MODEL 1
REMARK VINA RESULT:      -6.1      0.000      0.000
REMARK  3 active torsions:
REMARK  status: ('A' for Active; 'I' for Inactive)
REMARK       I    between atoms: C_2  and  N_3 
REMARK       I    between atoms: C_2  and  N_11 
REMARK    1  A    between atoms: N_3  and  C_4 
REMARK    2  A    between atoms: N_11  and  C_12 
REMARK    3  A    between atoms: C_16  and  C_20 
ROOT
HETATM    1  O   UNL     1     -42.239 -48.319  10.367  1.00  0.00    -0.247 OA
HETATM    2  C   UNL     1     -41.342 -48.288  11.199  1.00  0.00     0.321 C 
HETATM    3  N   UNL     1     -40.555 -47.173  11.372  1.00  0.00    -0.336 N 
HETATM    4  N   UNL     1     -41.020 -49.302  12.069  1.00  0.00    -0.306 N 
HETATM    5  H   UNL     1     -40.120 -47.051  12.274  1.00  0.00     0.164 HD
HETATM    6  H   UNL     1     -40.138 -49.223  12.555  1.00  0.00     0.171 HD
ENDROOT
BRANCH   4   7
HETATM    7  C   UNL     1     -41.757 -50.498  12.228  1.00  0.00     0.067 A 
HETATM    8  C   UNL     1     -41.343 -51.752  11.837  1.00  0.00     0.120 A 
HETATM    9  N   UNL     1     -42.079 -52.876  11.986  1.00  0.00    -0.353 N 
HETATM   10  C   UNL     1     -43.289 -52.759  12.561  1.00  0.00     0.085 A 
ATOM     11  HN  UNL     1     -41.728 -53.781  11.673  1.00  0.00     0.166 HD
HETATM   12  N   UNL     1     -43.793 -51.575  12.970  1.00  0.00    -0.353 N 
HETATM   13  C   UNL     1     -43.016 -50.480  12.794  1.00  0.00     0.120 A 
ATOM     14  HN  UNL     1     -44.719 -51.508  13.393  1.00  0.00     0.166 HD
BRANCH  10  15
HETATM   15  C   UNL     1     -44.105 -54.014  12.739  1.00  0.00     0.053 A 
HETATM   16  C   UNL     1     -45.397 -53.992  13.522  1.00  0.00     0.013 A 
HETATM   17  C   UNL     1     -44.189 -54.660  14.106  1.00  0.00     0.013 A 
ENDBRANCH  10  15
ENDBRANCH   4   7
BRANCH   3  18
HETATM   18  C   UNL     1     -40.879 -45.976  10.606  1.00  0.00     0.117 C 
HETATM   19  C   UNL     1     -39.675 -45.063  10.343  1.00  0.00     0.059 C 
HETATM   20  C   UNL     1     -40.167 -43.721  10.892  1.00  0.00     0.124 C 
HETATM   21  C   UNL     1     -40.214 -43.745  12.419  1.00  0.00     0.034 C 
HETATM   22  O   UNL     1     -41.573 -43.770  10.565  1.00  0.00    -0.378 OA
HETATM   23  C   UNL     1     -41.442 -44.616  12.688  1.00  0.00     0.036 C 
HETATM   24  C   UNL     1     -41.873 -45.001  11.273  1.00  0.00     0.144 C 
ENDBRANCH   3  18
TORSDOF 3
ENDMDL
MODEL 2
REMARK VINA RESULT:      -5.9      2.381      8.348
REMARK  3 active torsions:
REMARK  status: ('A' for Active; 'I' for Inactive)
REMARK       I    between atoms: C_2  and  N_3 
REMARK       I    between atoms: C_2  and  N_11 
REMARK    1  A    between atoms: N_3  and  C_4 
REMARK    2  A    between atoms: N_11  and  C_12 
REMARK    3  A    between atoms: C_16  and  C_20 
ROOT
HETATM    1  O   UNL     1     -42.064 -50.426  14.110  1.00  0.00    -0.247 OA
HETATM    2  C   UNL     1     -42.494 -50.917  13.074  1.00  0.00     0.321 C 
HETATM    3  N   UNL     1     -43.066 -52.168  13.051  1.00  0.00    -0.336 N 
HETATM    4  N   UNL     1     -42.499 -50.310  11.841  1.00  0.00    -0.306 N 
HETATM    5  H   UNL     1     -43.722 -52.360  12.309  1.00  0.00     0.164 HD
HETATM    6  H   UNL     1     -42.692 -50.900  11.044  1.00  0.00     0.171 HD
ENDROOT
BRANCH   4   7
HETATM    7  C   UNL     1     -42.124 -48.969  11.596  1.00  0.00     0.067 A 
HETATM    8  C   UNL     1     -42.855 -47.856  11.946  1.00  0.00     0.120 A 
HETATM    9  N   UNL     1     -42.478 -46.585  11.681  1.00  0.00    -0.353 N 
HETATM   10  C   UNL     1     -41.309 -46.400  11.041  1.00  0.00     0.085 A 
ATOM     11  HN  UNL     1     -43.060 -45.794  11.957  1.00  0.00     0.166 HD
HETATM   12  N   UNL     1     -40.523 -47.424  10.645  1.00  0.00    -0.353 N 
HETATM   13  C   UNL     1     -40.949 -48.676  10.932  1.00  0.00     0.120 A 
ATOM     14  HN  UNL     1     -39.646 -47.260  10.150  1.00  0.00     0.166 HD
BRANCH  10  15
HETATM   15  C   UNL     1     -40.883 -44.982  10.757  1.00  0.00     0.053 A 
HETATM   16  C   UNL     1     -39.526 -44.689  10.160  1.00  0.00     0.013 A 
HETATM   17  C   UNL     1     -39.791 -44.351  11.596  1.00  0.00     0.013 A 
ENDBRANCH  10  15
ENDBRANCH   4   7
BRANCH   3  18
HETATM   18  C   UNL     1     -43.247 -52.866  14.318  1.00  0.00     0.117 C 
HETATM   19  C   UNL     1     -42.835 -54.343  14.276  1.00  0.00     0.059 C 
HETATM   20  C   UNL     1     -44.104 -55.041  14.771  1.00  0.00     0.124 C 
HETATM   21  C   UNL     1     -45.201 -54.992  13.708  1.00  0.00     0.034 C 
HETATM   22  O   UNL     1     -44.603 -54.090  15.736  1.00  0.00    -0.378 OA
HETATM   23  C   UNL     1     -45.649 -53.531  13.778  1.00  0.00     0.036 C 
HETATM   24  C   UNL     1     -44.700 -52.959  14.831  1.00  0.00     0.144 C 
ENDBRANCH   3  18
TORSDOF 3
ENDMDL
MODEL 3
REMARK VINA RESULT:      -5.5      4.605      6.588
REMARK  3 active torsions:
REMARK  status: ('A' for Active; 'I' for Inactive)
REMARK       I    between atoms: C_2  and  N_3 
REMARK       I    between atoms: C_2  and  N_11 
REMARK    1  A    between atoms: N_3  and  C_4 
REMARK    2  A    between atoms: N_11  and  C_12 
REMARK    3  A    between atoms: C_16  and  C_20 
ROOT
HETATM    1  O   UNL     1     -40.269 -47.339  14.271  1.00  0.00    -0.247 OA
HETATM    2  C   UNL     1     -39.303 -47.677  13.598  1.00  0.00     0.321 C 
HETATM    3  N   UNL     1     -38.096 -47.995  14.176  1.00  0.00    -0.336 N 
HETATM    4  N   UNL     1     -39.288 -47.815  12.231  1.00  0.00    -0.306 N 
HETATM    5  H   UNL     1     -37.486 -48.609  13.660  1.00  0.00     0.164 HD
HETATM    6  H   UNL     1     -38.381 -47.899  11.792  1.00  0.00     0.171 HD
ENDROOT
BRANCH   4   7
HETATM    7  C   UNL     1     -40.421 -47.711  11.393  1.00  0.00     0.067 A 
HETATM    8  C   UNL     1     -41.281 -48.739  11.077  1.00  0.00     0.120 A 
HETATM    9  N   UNL     1     -42.348 -48.613  10.256  1.00  0.00    -0.353 N 
HETATM   10  C   UNL     1     -42.585 -47.401   9.721  1.00  0.00     0.085 A 
ATOM     11  HN  UNL     1     -42.951 -49.409  10.049  1.00  0.00     0.166 HD
HETATM   12  N   UNL     1     -41.796 -46.331   9.957  1.00  0.00    -0.353 N 
HETATM   13  C   UNL     1     -40.739 -46.513  10.784  1.00  0.00     0.120 A 
ATOM     14  HN  UNL     1     -41.988 -45.425   9.530  1.00  0.00     0.166 HD
BRANCH  10  15
HETATM   15  C   UNL     1     -43.781 -47.258   8.815  1.00  0.00     0.053 A 
HETATM   16  C   UNL     1     -44.677 -46.045   8.907  1.00  0.00     0.013 A 
HETATM   17  C   UNL     1     -45.174 -47.370   9.399  1.00  0.00     0.013 A 
ENDBRANCH  10  15
ENDBRANCH   4   7
BRANCH   3  18
HETATM   18  C   UNL     1     -38.016 -48.021  15.631  1.00  0.00     0.117 C 
HETATM   19  C   UNL     1     -36.638 -47.634  16.184  1.00  0.00     0.059 C 
HETATM   20  C   UNL     1     -36.299 -48.837  17.067  1.00  0.00     0.124 C 
HETATM   21  C   UNL     1     -35.962 -50.059  16.213  1.00  0.00     0.034 C 
HETATM   22  O   UNL     1     -37.600 -49.200  17.578  1.00  0.00    -0.378 OA
HETATM   23  C   UNL     1     -37.339 -50.479  15.697  1.00  0.00     0.036 C 
HETATM   24  C   UNL     1     -38.243 -49.399  16.291  1.00  0.00     0.144 C 
ENDBRANCH   3  18
TORSDOF 3
ENDMDL
MODEL 4
REMARK VINA RESULT:      -5.4      2.205      8.011
REMARK  3 active torsions:
REMARK  status: ('A' for Active; 'I' for Inactive)
REMARK       I    between atoms: C_2  and  N_3 
REMARK       I    between atoms: C_2  and  N_11 
REMARK    1  A    between atoms: N_3  and  C_4 
REMARK    2  A    between atoms: N_11  and  C_12 
REMARK    3  A    between atoms: C_16  and  C_20 
ROOT
HETATM    1  O   UNL     1     -41.982 -49.624  13.518  1.00  0.00    -0.247 OA
HETATM    2  C   UNL     1     -42.255 -49.997  12.384  1.00  0.00     0.321 C 
HETATM    3  N   UNL     1     -42.702 -51.272  12.130  1.00  0.00    -0.336 N 
HETATM    4  N   UNL     1     -42.190 -49.223  11.250  1.00  0.00    -0.306 N 
HETATM    5  H   UNL     1     -43.257 -51.409  11.299  1.00  0.00     0.164 HD
HETATM    6  H   UNL     1     -42.243 -49.708  10.364  1.00  0.00     0.171 HD
ENDROOT
BRANCH   4   7
HETATM    7  C   UNL     1     -41.919 -47.836  11.228  1.00  0.00     0.067 A 
HETATM    8  C   UNL     1     -40.667 -47.265  11.173  1.00  0.00     0.120 A 
HETATM    9  N   UNL     1     -40.438 -45.933  11.172  1.00  0.00    -0.353 N 
HETATM   10  C   UNL     1     -41.505 -45.115  11.221  1.00  0.00     0.085 A 
ATOM     11  HN  UNL     1     -39.489 -45.561  11.137  1.00  0.00     0.166 HD
HETATM   12  N   UNL     1     -42.774 -45.573  11.289  1.00  0.00    -0.353 N 
HETATM   13  C   UNL     1     -42.947 -46.916  11.290  1.00  0.00     0.120 A 
ATOM     14  HN  UNL     1     -43.568 -44.934  11.337  1.00  0.00     0.166 HD
BRANCH  10  15
HETATM   15  C   UNL     1     -41.251 -43.630  11.208  1.00  0.00     0.053 A 
HETATM   16  C   UNL     1     -40.131 -43.031  12.027  1.00  0.00     0.013 A 
HETATM   17  C   UNL     1     -41.552 -42.812  12.447  1.00  0.00     0.013 A 
ENDBRANCH  10  15
ENDBRANCH   4   7
BRANCH   3  18
HETATM   18  C   UNL     1     -42.947 -52.154  13.264  1.00  0.00     0.117 C 
HETATM   19  C   UNL     1     -43.284 -53.597  12.867  1.00  0.00     0.059 C 
HETATM   20  C   UNL     1     -44.615 -53.823  13.588  1.00  0.00     0.124 C 
HETATM   21  C   UNL     1     -45.739 -53.041  12.911  1.00  0.00     0.034 C 
HETATM   22  O   UNL     1     -44.426 -53.057  14.797  1.00  0.00    -0.378 OA
HETATM   23  C   UNL     1     -45.436 -51.606  13.343  1.00  0.00     0.036 C 
HETATM   24  C   UNL     1     -44.153 -51.784  14.155  1.00  0.00     0.144 C 
ENDBRANCH   3  18
TORSDOF 3
ENDMDL
MODEL 5
REMARK VINA RESULT:      -5.3      4.886      6.657
REMARK  3 active torsions:
REMARK  status: ('A' for Active; 'I' for Inactive)
REMARK       I    between atoms: C_2  and  N_3 
REMARK       I    between atoms: C_2  and  N_11 
REMARK    1  A    between atoms: N_3  and  C_4 
REMARK    2  A    between atoms: N_11  and  C_12 
REMARK    3  A    between atoms: C_16  and  C_20 
ROOT
HETATM    1  O   UNL     1     -38.394 -48.712  12.606  1.00  0.00    -0.247 OA
HETATM    2  C   UNL     1     -39.024 -48.320  13.580  1.00  0.00     0.321 C 
HETATM    3  N   UNL     1     -38.476 -48.316  14.842  1.00  0.00    -0.336 N 
HETATM    4  N   UNL     1     -40.303 -47.816  13.557  1.00  0.00    -0.306 N 
HETATM    5  H   UNL     1     -38.856 -47.660  15.507  1.00  0.00     0.164 HD
HETATM    6  H   UNL     1     -40.772 -47.724  14.448  1.00  0.00     0.171 HD
ENDROOT
BRANCH   4   7
HETATM    7  C   UNL     1     -41.050 -47.553  12.387  1.00  0.00     0.067 A 
HETATM    8  C   UNL     1     -40.579 -46.913  11.262  1.00  0.00     0.120 A 
HETATM    9  N   UNL     1     -41.324 -46.659  10.164  1.00  0.00    -0.353 N 
HETATM   10  C   UNL     1     -42.606 -47.067  10.170  1.00  0.00     0.085 A 
ATOM     11  HN  UNL     1     -40.928 -46.175   9.358  1.00  0.00     0.166 HD
HETATM   12  N   UNL     1     -43.169 -47.693  11.226  1.00  0.00    -0.353 N 
HETATM   13  C   UNL     1     -42.379 -47.919  12.302  1.00  0.00     0.120 A 
ATOM     14  HN  UNL     1     -44.147 -47.982  11.213  1.00  0.00     0.166 HD
BRANCH  10  15
HETATM   15  C   UNL     1     -43.434 -46.795   8.940  1.00  0.00     0.053 A 
HETATM   16  C   UNL     1     -44.706 -47.567   8.679  1.00  0.00     0.013 A 
HETATM   17  C   UNL     1     -43.494 -47.833   7.838  1.00  0.00     0.013 A 
ENDBRANCH  10  15
ENDBRANCH   4   7
BRANCH   3  18
HETATM   18  C   UNL     1     -37.077 -48.697  14.985  1.00  0.00     0.117 C 
HETATM   19  C   UNL     1     -36.873 -50.103  15.565  1.00  0.00     0.059 C 
HETATM   20  C   UNL     1     -35.960 -49.824  16.762  1.00  0.00     0.124 C 
HETATM   21  C   UNL     1     -36.731 -49.131  17.884  1.00  0.00     0.034 C 
HETATM   22  O   UNL     1     -35.149 -48.738  16.263  1.00  0.00    -0.378 OA
HETATM   23  C   UNL     1     -36.896 -47.714  17.331  1.00  0.00     0.036 C 
HETATM   24  C   UNL     1     -36.241 -47.833  15.955  1.00  0.00     0.144 C 
ENDBRANCH   3  18
TORSDOF 3
ENDMDL
MODEL 6
REMARK VINA RESULT:      -5.2      3.097      3.816
REMARK  3 active torsions:
REMARK  status: ('A' for Active; 'I' for Inactive)
REMARK       I    between atoms: C_2  and  N_3 
REMARK       I    between atoms: C_2  and  N_11 
REMARK    1  A    between atoms: N_3  and  C_4 
REMARK    2  A    between atoms: N_11  and  C_12 
REMARK    3  A    between atoms: C_16  and  C_20 
ROOT
HETATM    1  O   UNL     1     -42.443 -50.163  12.891  1.00  0.00    -0.247 OA
HETATM    2  C   UNL     1     -41.623 -50.256  11.986  1.00  0.00     0.321 C 
HETATM    3  N   UNL     1     -41.573 -49.343  10.959  1.00  0.00    -0.336 N 
HETATM    4  N   UNL     1     -40.652 -51.224  11.882  1.00  0.00    -0.306 N 
HETATM    5  H   UNL     1     -40.691 -49.235  10.482  1.00  0.00     0.164 HD
HETATM    6  H   UNL     1     -40.182 -51.303  10.991  1.00  0.00     0.171 HD
ENDROOT
BRANCH   4   7
HETATM    7  C   UNL     1     -40.364 -52.193  12.869  1.00  0.00     0.067 A 
HETATM    8  C   UNL     1     -39.603 -51.986  13.998  1.00  0.00     0.120 A 
HETATM    9  N   UNL     1     -39.329 -52.940  14.916  1.00  0.00    -0.353 N 
HETATM   10  C   UNL     1     -39.842 -54.167  14.715  1.00  0.00     0.085 A 
ATOM     11  HN  UNL     1     -38.754 -52.735  15.733  1.00  0.00     0.166 HD
HETATM   12  N   UNL     1     -40.592 -54.478  13.635  1.00  0.00    -0.353 N 
HETATM   13  C   UNL     1     -40.832 -53.487  12.745  1.00  0.00     0.120 A 
ATOM     14  HN  UNL     1     -40.960 -55.419  13.496  1.00  0.00     0.166 HD
BRANCH  10  15
HETATM   15  C   UNL     1     -39.547 -55.227  15.745  1.00  0.00     0.053 A 
HETATM   16  C   UNL     1     -38.848 -54.875  17.037  1.00  0.00     0.013 A 
HETATM   17  C   UNL     1     -38.113 -55.651  15.987  1.00  0.00     0.013 A 
ENDBRANCH  10  15
ENDBRANCH   4   7
BRANCH   3  18
HETATM   18  C   UNL     1     -42.460 -48.188  11.021  1.00  0.00     0.117 C 
HETATM   19  C   UNL     1     -42.563 -47.414   9.701  1.00  0.00     0.059 C 
HETATM   20  C   UNL     1     -42.197 -45.992  10.136  1.00  0.00     0.124 C 
HETATM   21  C   UNL     1     -40.704 -45.887  10.445  1.00  0.00     0.034 C 
HETATM   22  O   UNL     1     -42.764 -45.938  11.463  1.00  0.00    -0.378 OA
HETATM   23  C   UNL     1     -40.601 -46.617  11.785  1.00  0.00     0.036 C 
HETATM   24  C   UNL     1     -42.043 -47.075  12.007  1.00  0.00     0.144 C 
ENDBRANCH   3  18
TORSDOF 3
ENDMDL
MODEL 7
REMARK VINA RESULT:      -5.1     16.251     18.163
REMARK  3 active torsions:
REMARK  status: ('A' for Active; 'I' for Inactive)
REMARK       I    between atoms: C_2  and  N_3 
REMARK       I    between atoms: C_2  and  N_11 
REMARK    1  A    between atoms: N_3  and  C_4 
REMARK    2  A    between atoms: N_11  and  C_12 
REMARK    3  A    between atoms: C_16  and  C_20 
ROOT
HETATM    1  O   UNL     1     -50.261 -54.730  -2.741  1.00  0.00    -0.247 OA
HETATM    2  C   UNL     1     -49.093 -54.910  -2.420  1.00  0.00     0.321 C 
HETATM    3  N   UNL     1     -48.374 -55.986  -2.885  1.00  0.00    -0.336 N 
HETATM    4  N   UNL     1     -48.349 -54.087  -1.609  1.00  0.00    -0.306 N 
HETATM    5  H   UNL     1     -47.370 -55.891  -2.916  1.00  0.00     0.164 HD
HETATM    6  H   UNL     1     -47.475 -54.457  -1.263  1.00  0.00     0.171 HD
ENDROOT
BRANCH   4   7
HETATM    7  C   UNL     1     -48.774 -52.832  -1.119  1.00  0.00     0.067 A 
HETATM    8  C   UNL     1     -49.937 -52.597  -0.418  1.00  0.00     0.120 A 
HETATM    9  N   UNL     1     -50.326 -51.380   0.023  1.00  0.00    -0.353 N 
HETATM   10  C   UNL     1     -49.520 -50.334  -0.234  1.00  0.00     0.085 A 
ATOM     11  HN  UNL     1     -51.202 -51.259   0.533  1.00  0.00     0.166 HD
HETATM   12  N   UNL     1     -48.364 -50.454  -0.922  1.00  0.00    -0.353 N 
HETATM   13  C   UNL     1     -48.023 -51.695  -1.344  1.00  0.00     0.120 A 
ATOM     14  HN  UNL     1     -47.774 -49.645  -1.116  1.00  0.00     0.166 HD
BRANCH  10  15
HETATM   15  C   UNL     1     -49.948 -48.979   0.269  1.00  0.00     0.053 A 
HETATM   16  C   UNL     1     -48.956 -47.844   0.368  1.00  0.00     0.013 A 
HETATM   17  C   UNL     1     -49.459 -48.498   1.619  1.00  0.00     0.013 A 
ENDBRANCH  10  15
ENDBRANCH   4   7
BRANCH   3  18
HETATM   18  C   UNL     1     -49.004 -56.864  -3.863  1.00  0.00     0.117 C 
HETATM   19  C   UNL     1     -48.376 -58.262  -3.937  1.00  0.00     0.059 C 
HETATM   20  C   UNL     1     -48.036 -58.380  -5.425  1.00  0.00     0.124 C 
HETATM   21  C   UNL     1     -46.850 -57.485  -5.783  1.00  0.00     0.034 C 
HETATM   22  O   UNL     1     -49.129 -57.658  -6.032  1.00  0.00    -0.378 OA
HETATM   23  C   UNL     1     -47.481 -56.092  -5.757  1.00  0.00     0.036 C 
HETATM   24  C   UNL     1     -48.917 -56.403  -5.334  1.00  0.00     0.144 C 
ENDBRANCH   3  18
TORSDOF 3
ENDMDL
MODEL 8
REMARK VINA RESULT:      -5.0      4.253      8.521
REMARK  3 active torsions:
REMARK  status: ('A' for Active; 'I' for Inactive)
REMARK       I    between atoms: C_2  and  N_3 
REMARK       I    between atoms: C_2  and  N_11 
REMARK    1  A    between atoms: N_3  and  C_4 
REMARK    2  A    between atoms: N_11  and  C_12 
REMARK    3  A    between atoms: C_16  and  C_20 
ROOT
HETATM    1  O   UNL     1     -39.278 -51.615  14.844  1.00  0.00    -0.247 OA
HETATM    2  C   UNL     1     -39.553 -52.550  14.104  1.00  0.00     0.321 C 
HETATM    3  N   UNL     1     -39.381 -53.857  14.495  1.00  0.00    -0.336 N 
HETATM    4  N   UNL     1     -40.082 -52.442  12.840  1.00  0.00    -0.306 N 
HETATM    5  H   UNL     1     -39.952 -54.553  14.041  1.00  0.00     0.164 HD
HETATM    6  H   UNL     1     -40.068 -53.275  12.267  1.00  0.00     0.171 HD
ENDROOT
BRANCH   4   7
HETATM    7  C   UNL     1     -40.511 -51.236  12.241  1.00  0.00     0.067 A 
HETATM    8  C   UNL     1     -39.702 -50.333  11.587  1.00  0.00     0.120 A 
HETATM    9  N   UNL     1     -40.140 -49.178  11.040  1.00  0.00    -0.353 N 
HETATM   10  C   UNL     1     -41.452 -48.898  11.134  1.00  0.00     0.085 A 
ATOM     11  HN  UNL     1     -39.496 -48.539  10.571  1.00  0.00     0.166 HD
HETATM   12  N   UNL     1     -42.329 -49.711  11.763  1.00  0.00    -0.353 N 
HETATM   13  C   UNL     1     -41.837 -50.854  12.297  1.00  0.00     0.120 A 
ATOM     14  HN  UNL     1     -43.318 -49.473  11.833  1.00  0.00     0.166 HD
BRANCH  10  15
HETATM   15  C   UNL     1     -41.942 -47.616  10.512  1.00  0.00     0.053 A 
HETATM   16  C   UNL     1     -41.140 -46.341  10.638  1.00  0.00     0.013 A 
HETATM   17  C   UNL     1     -42.418 -46.490  11.407  1.00  0.00     0.013 A 
ENDBRANCH  10  15
ENDBRANCH   4   7
BRANCH   3  18
HETATM   18  C   UNL     1     -38.954 -54.114  15.865  1.00  0.00     0.117 C 
HETATM   19  C   UNL     1     -38.230 -55.454  16.048  1.00  0.00     0.059 C 
HETATM   20  C   UNL     1     -39.051 -56.110  17.162  1.00  0.00     0.124 C 
HETATM   21  C   UNL     1     -40.414 -56.560  16.638  1.00  0.00     0.034 C 
HETATM   22  O   UNL     1     -39.420 -54.968  17.964  1.00  0.00    -0.378 OA
HETATM   23  C   UNL     1     -41.158 -55.231  16.498  1.00  0.00     0.036 C 
HETATM   24  C   UNL     1     -40.085 -54.223  16.911  1.00  0.00     0.144 C 
ENDBRANCH   3  18
TORSDOF 3
ENDMDL
MODEL 9
REMARK VINA RESULT:      -5.0      6.727      8.714
REMARK  3 active torsions:
REMARK  status: ('A' for Active; 'I' for Inactive)
REMARK       I    between atoms: C_2  and  N_3 
REMARK       I    between atoms: C_2  and  N_11 
REMARK    1  A    between atoms: N_3  and  C_4 
REMARK    2  A    between atoms: N_11  and  C_12 
REMARK    3  A    between atoms: C_16  and  C_20 
ROOT
HETATM    1  O   UNL     1     -42.655 -55.466  15.186  1.00  0.00    -0.247 OA
HETATM    2  C   UNL     1     -42.350 -54.298  14.984  1.00  0.00     0.321 C 
HETATM    3  N   UNL     1     -43.254 -53.391  14.482  1.00  0.00    -0.336 N 
HETATM    4  N   UNL     1     -41.124 -53.733  15.246  1.00  0.00    -0.306 N 
HETATM    5  H   UNL     1     -43.093 -52.417  14.689  1.00  0.00     0.164 HD
HETATM    6  H   UNL     1     -40.947 -52.823  14.844  1.00  0.00     0.171 HD
ENDROOT
BRANCH   4   7
HETATM    7  C   UNL     1     -40.058 -54.381  15.910  1.00  0.00     0.067 A 
HETATM    8  C   UNL     1     -39.864 -54.414  17.273  1.00  0.00     0.120 A 
HETATM    9  N   UNL     1     -38.823 -55.028  17.878  1.00  0.00    -0.353 N 
HETATM   10  C   UNL     1     -37.924 -55.652  17.095  1.00  0.00     0.085 A 
ATOM     11  HN  UNL     1     -38.722 -55.017  18.893  1.00  0.00     0.166 HD
HETATM   12  N   UNL     1     -38.015 -55.670  15.748  1.00  0.00    -0.353 N 
HETATM   13  C   UNL     1     -39.076 -55.036  15.193  1.00  0.00     0.120 A 
ATOM     14  HN  UNL     1     -37.316 -56.139  15.174  1.00  0.00     0.166 HD
BRANCH  10  15
HETATM   15  C   UNL     1     -36.770 -56.347  17.771  1.00  0.00     0.053 A 
HETATM   16  C   UNL     1     -36.081 -55.720  18.961  1.00  0.00     0.013 A 
HETATM   17  C   UNL     1     -35.375 -55.770  17.641  1.00  0.00     0.013 A 
ENDBRANCH  10  15
ENDBRANCH   4   7
BRANCH   3  18
HETATM   18  C   UNL     1     -44.631 -53.828  14.288  1.00  0.00     0.117 C 
HETATM   19  C   UNL     1     -45.260 -53.333  12.979  1.00  0.00     0.059 C 
HETATM   20  C   UNL     1     -46.527 -52.636  13.478  1.00  0.00     0.124 C 
HETATM   21  C   UNL     1     -46.184 -51.321  14.177  1.00  0.00     0.034 C 
HETATM   22  O   UNL     1     -46.894 -53.465  14.602  1.00  0.00    -0.378 OA
HETATM   23  C   UNL     1     -45.599 -51.806  15.504  1.00  0.00     0.036 C 
HETATM   24  C   UNL     1     -45.648 -53.325  15.335  1.00  0.00     0.144 C 
ENDBRANCH   3  18
TORSDOF 3
ENDMDL
