MODEL 1
REMARK VINA RESULT:      -5.9      0.000      0.000
REMARK  7 active torsions:
REMARK  status: ('A' for Active; 'I' for Inactive)
REMARK    1  A    between atoms: C_2  and  N_3 
REMARK    2  A    between atoms: C_7  and  N_9 
REMARK       I    between atoms: N_9  and  C_10 
REMARK    3  A    between atoms: C_10  and  C_12 
REMARK    4  A    between atoms: C_18  and  O_19 
REMARK    5  A    between atoms: O_19  and  C_20 
REMARK    6  A    between atoms: C_20  and  C_21 
REMARK    7  A    between atoms: C_21  and  O_22 
ROOT
HETATM    1  C   UNL     1     -39.710 -51.044  12.834  1.00  0.00     0.083 A 
HETATM    2  C   UNL     1     -38.389 -51.329  13.221  1.00  0.00     0.023 A 
HETATM    3  C   UNL     1     -37.320 -50.845  12.476  1.00  0.00     0.018 A 
HETATM    4  C   UNL     1     -37.601 -50.063  11.372  1.00  0.00     0.090 A 
HETATM    5  N   UNL     1     -38.855 -49.754  10.983  1.00  0.00    -0.346 N 
ATOM      6  HN  UNL     1     -39.019 -49.168  10.164  1.00  0.00     0.167 HD
HETATM    7  C   UNL     1     -39.897 -50.241  11.710  1.00  0.00     0.158 A 
ENDROOT
BRANCH   1   8
HETATM    8  C   UNL     1     -40.837 -51.602  13.625  1.00  0.00     0.256 C 
HETATM    9  N   UNL     1     -41.690 -52.453  12.932  1.00  0.00    -0.350 N 
HETATM   10  H   UNL     1     -41.656 -52.461  11.921  1.00  0.00     0.163 HD
HETATM   11  O   UNL     1     -40.989 -51.332  14.809  1.00  0.00    -0.268 OA
BRANCH   9  12
HETATM   12  C   UNL     1     -42.878 -53.009  13.569  1.00  0.00     0.113 C 
HETATM   13  C   UNL     1     -42.589 -54.402  14.140  1.00  0.00     0.029 C 
HETATM   14  C   UNL     1     -43.856 -55.012  14.740  1.00  0.00     0.032 C 
HETATM   15  C   UNL     1     -45.028 -54.978  13.749  1.00  0.00     0.272 C 
HETATM   16  N   UNL     1     -45.297 -53.650  13.170  1.00  0.00     0.090 N 
HETATM   17  C   UNL     1     -44.065 -53.094  12.583  1.00  0.00     0.297 C 
BRANCH  16  18
HETATM   18  C   UNL     1     -45.943 -52.760  14.149  1.00  0.00     0.268 C 
HETATM   19  C   UNL     1     -46.465 -51.448  13.570  1.00  0.00     0.037 C 
ENDBRANCH  16  18
ENDBRANCH   9  12
ENDBRANCH   1   8
BRANCH   7  20
HETATM   20  O   UNL     1     -41.170 -49.899  11.288  1.00  0.00    -0.333 OA
BRANCH  20  21
HETATM   21  C   UNL     1     -41.444 -48.505  11.473  1.00  0.00     0.203 C 
BRANCH  21  22
HETATM   22  C   UNL     1     -42.067 -47.879  10.226  1.00  0.00     0.193 C 
BRANCH  22  23
HETATM   23  O   UNL     1     -41.673 -46.503  10.191  1.00  0.00    -0.394 OA
HETATM   24  C   UNL     1     -40.426 -46.273  10.826  1.00  0.00     0.201 C 
ENDBRANCH  22  23
ENDBRANCH  21  22
ENDBRANCH  20  21
ENDBRANCH   7  20
TORSDOF 7
ENDMDL
MODEL 2
REMARK VINA RESULT:      -5.6      2.326      4.663
REMARK  7 active torsions:
REMARK  status: ('A' for Active; 'I' for Inactive)
REMARK    1  A    between atoms: C_2  and  N_3 
REMARK    2  A    between atoms: C_7  and  N_9 
REMARK       I    between atoms: N_9  and  C_10 
REMARK    3  A    between atoms: C_10  and  C_12 
REMARK    4  A    between atoms: C_18  and  O_19 
REMARK    5  A    between atoms: O_19  and  C_20 
REMARK    6  A    between atoms: C_20  and  C_21 
REMARK    7  A    between atoms: C_21  and  O_22 
ROOT
HETATM    1  C   UNL     1     -43.039 -47.885  10.832  1.00  0.00     0.083 A 
HETATM    2  C   UNL     1     -44.355 -47.777  10.349  1.00  0.00     0.023 A 
HETATM    3  C   UNL     1     -44.658 -46.873   9.337  1.00  0.00     0.018 A 
HETATM    4  C   UNL     1     -43.628 -46.115   8.815  1.00  0.00     0.090 A 
HETATM    5  N   UNL     1     -42.351 -46.206   9.241  1.00  0.00    -0.346 N 
ATOM      6  HN  UNL     1     -41.619 -45.631   8.825  1.00  0.00     0.167 HD
HETATM    7  C   UNL     1     -42.063 -47.084  10.240  1.00  0.00     0.158 A 
ENDROOT
BRANCH   1   8
HETATM    8  C   UNL     1     -42.745 -48.832  11.938  1.00  0.00     0.256 C 
HETATM    9  N   UNL     1     -41.953 -49.922  11.596  1.00  0.00    -0.350 N 
HETATM   10  H   UNL     1     -41.825 -50.145  10.618  1.00  0.00     0.163 HD
HETATM   11  O   UNL     1     -43.166 -48.649  13.072  1.00  0.00    -0.268 OA
BRANCH   9  12
HETATM   12  C   UNL     1     -41.651 -50.966  12.568  1.00  0.00     0.113 C 
HETATM   13  C   UNL     1     -40.151 -51.000  12.885  1.00  0.00     0.029 C 
HETATM   14  C   UNL     1     -39.829 -52.143  13.847  1.00  0.00     0.032 C 
HETATM   15  C   UNL     1     -40.387 -53.483  13.345  1.00  0.00     0.272 C 
HETATM   16  N   UNL     1     -41.821 -53.456  13.009  1.00  0.00     0.090 N 
HETATM   17  C   UNL     1     -42.101 -52.357  12.068  1.00  0.00     0.297 C 
BRANCH  16  18
HETATM   18  C   UNL     1     -42.655 -53.425  14.223  1.00  0.00     0.268 C 
HETATM   19  C   UNL     1     -42.810 -54.773  14.923  1.00  0.00     0.037 C 
ENDBRANCH  16  18
ENDBRANCH   9  12
ENDBRANCH   1   8
BRANCH   7  20
HETATM   20  O   UNL     1     -40.743 -47.158  10.649  1.00  0.00    -0.333 OA
BRANCH  20  21
HETATM   21  C   UNL     1     -40.300 -45.942  11.265  1.00  0.00     0.203 C 
BRANCH  21  22
HETATM   22  C   UNL     1     -39.533 -45.056  10.285  1.00  0.00     0.193 C 
BRANCH  22  23
HETATM   23  O   UNL     1     -40.273 -43.841  10.131  1.00  0.00    -0.394 OA
HETATM   24  C   UNL     1     -41.034 -43.512  11.281  1.00  0.00     0.201 C 
ENDBRANCH  22  23
ENDBRANCH  21  22
ENDBRANCH  20  21
ENDBRANCH   7  20
TORSDOF 7
ENDMDL
MODEL 3
REMARK VINA RESULT:      -5.6      1.668      3.780
REMARK  7 active torsions:
REMARK  status: ('A' for Active; 'I' for Inactive)
REMARK    1  A    between atoms: C_2  and  N_3 
REMARK    2  A    between atoms: C_7  and  N_9 
REMARK       I    between atoms: N_9  and  C_10 
REMARK    3  A    between atoms: C_10  and  C_12 
REMARK    4  A    between atoms: C_18  and  O_19 
REMARK    5  A    between atoms: O_19  and  C_20 
REMARK    6  A    between atoms: C_20  and  C_21 
REMARK    7  A    between atoms: C_21  and  O_22 
ROOT
HETATM    1  C   UNL     1     -42.587 -48.748  12.118  1.00  0.00     0.083 A 
HETATM    2  C   UNL     1     -43.204 -47.489  12.013  1.00  0.00     0.023 A 
HETATM    3  C   UNL     1     -42.687 -46.525  11.154  1.00  0.00     0.018 A 
HETATM    4  C   UNL     1     -41.577 -46.855  10.401  1.00  0.00     0.090 A 
HETATM    5  N   UNL     1     -40.972 -48.060  10.463  1.00  0.00    -0.346 N 
ATOM      6  HN  UNL     1     -40.157 -48.265   9.885  1.00  0.00     0.167 HD
HETATM    7  C   UNL     1     -41.475 -48.994  11.313  1.00  0.00     0.158 A 
ENDROOT
BRANCH   1   8
HETATM    8  C   UNL     1     -43.135 -49.750  13.068  1.00  0.00     0.256 C 
HETATM    9  N   UNL     1     -43.292 -51.033  12.557  1.00  0.00    -0.350 N 
HETATM   10  H   UNL     1     -43.264 -51.167  11.555  1.00  0.00     0.163 HD
HETATM   11  O   UNL     1     -43.415 -49.457  14.222  1.00  0.00    -0.268 OA
BRANCH   9  12
HETATM   12  C   UNL     1     -43.889 -52.094  13.361  1.00  0.00     0.113 C 
HETATM   13  C   UNL     1     -43.041 -53.370  13.297  1.00  0.00     0.029 C 
HETATM   14  C   UNL     1     -43.709 -54.501  14.079  1.00  0.00     0.032 C 
HETATM   15  C   UNL     1     -45.169 -54.704  13.650  1.00  0.00     0.272 C 
HETATM   16  N   UNL     1     -45.987 -53.479  13.678  1.00  0.00     0.090 N 
HETATM   17  C   UNL     1     -45.330 -52.412  12.903  1.00  0.00     0.297 C 
BRANCH  16  18
HETATM   18  C   UNL     1     -46.321 -53.090  15.059  1.00  0.00     0.268 C 
HETATM   19  C   UNL     1     -46.978 -51.719  15.194  1.00  0.00     0.037 C 
ENDBRANCH  16  18
ENDBRANCH   9  12
ENDBRANCH   1   8
BRANCH   7  20
HETATM   20  O   UNL     1     -40.836 -50.221  11.347  1.00  0.00    -0.333 OA
BRANCH  20  21
HETATM   21  C   UNL     1     -39.577 -50.154  12.029  1.00  0.00     0.203 C 
BRANCH  21  22
HETATM   22  C   UNL     1     -39.590 -50.963  13.326  1.00  0.00     0.193 C 
BRANCH  22  23
HETATM   23  O   UNL     1     -39.647 -52.348  12.969  1.00  0.00    -0.394 OA
HETATM   24  C   UNL     1     -39.233 -53.203  14.021  1.00  0.00     0.201 C 
ENDBRANCH  22  23
ENDBRANCH  21  22
ENDBRANCH  20  21
ENDBRANCH   7  20
TORSDOF 7
ENDMDL
MODEL 4
REMARK VINA RESULT:      -5.3      2.069      6.611
REMARK  7 active torsions:
REMARK  status: ('A' for Active; 'I' for Inactive)
REMARK    1  A    between atoms: C_2  and  N_3 
REMARK    2  A    between atoms: C_7  and  N_9 
REMARK       I    between atoms: N_9  and  C_10 
REMARK    3  A    between atoms: C_10  and  C_12 
REMARK    4  A    between atoms: C_18  and  O_19 
REMARK    5  A    between atoms: O_19  and  C_20 
REMARK    6  A    between atoms: C_20  and  C_21 
REMARK    7  A    between atoms: C_21  and  O_22 
ROOT
HETATM    1  C   UNL     1     -43.782 -51.587  13.143  1.00  0.00     0.083 A 
HETATM    2  C   UNL     1     -45.019 -51.937  13.713  1.00  0.00     0.023 A 
HETATM    3  C   UNL     1     -45.484 -53.244  13.629  1.00  0.00     0.018 A 
HETATM    4  C   UNL     1     -44.686 -54.178  12.998  1.00  0.00     0.090 A 
HETATM    5  N   UNL     1     -43.485 -53.882  12.457  1.00  0.00    -0.346 N 
ATOM      6  HN  UNL     1     -42.924 -54.603  12.004  1.00  0.00     0.167 HD
HETATM    7  C   UNL     1     -43.041 -52.598  12.532  1.00  0.00     0.158 A 
ENDROOT
BRANCH   1   8
HETATM    8  C   UNL     1     -43.320 -50.177  13.213  1.00  0.00     0.256 C 
HETATM    9  N   UNL     1     -42.795 -49.662  12.034  1.00  0.00    -0.350 N 
HETATM   10  H   UNL     1     -42.535 -50.301  11.295  1.00  0.00     0.163 HD
HETATM   11  O   UNL     1     -43.412 -49.520  14.241  1.00  0.00    -0.268 OA
BRANCH   9  12
HETATM   12  C   UNL     1     -42.237 -48.315  11.986  1.00  0.00     0.113 C 
HETATM   13  C   UNL     1     -43.134 -47.382  11.164  1.00  0.00     0.029 C 
HETATM   14  C   UNL     1     -42.508 -45.992  11.053  1.00  0.00     0.032 C 
HETATM   15  C   UNL     1     -41.059 -46.059  10.552  1.00  0.00     0.272 C 
HETATM   16  N   UNL     1     -40.194 -46.975  11.315  1.00  0.00     0.090 N 
HETATM   17  C   UNL     1     -40.811 -48.311  11.391  1.00  0.00     0.297 C 
BRANCH  16  18
HETATM   18  C   UNL     1     -39.840 -46.408  12.628  1.00  0.00     0.268 C 
HETATM   19  C   UNL     1     -38.964 -47.309  13.495  1.00  0.00     0.037 C 
ENDBRANCH  16  18
ENDBRANCH   9  12
ENDBRANCH   1   8
BRANCH   7  20
HETATM   20  O   UNL     1     -41.804 -52.329  11.974  1.00  0.00    -0.333 OA
BRANCH  20  21
HETATM   21  C   UNL     1     -40.727 -52.803  12.794  1.00  0.00     0.203 C 
BRANCH  21  22
HETATM   22  C   UNL     1     -39.861 -51.656  13.312  1.00  0.00     0.193 C 
BRANCH  22  23
HETATM   23  O   UNL     1     -38.917 -51.331  12.286  1.00  0.00    -0.394 OA
HETATM   24  C   UNL     1     -37.677 -50.879  12.803  1.00  0.00     0.201 C 
ENDBRANCH  22  23
ENDBRANCH  21  22
ENDBRANCH  20  21
ENDBRANCH   7  20
TORSDOF 7
ENDMDL
MODEL 5
REMARK VINA RESULT:      -5.2      1.980      2.769
REMARK  7 active torsions:
REMARK  status: ('A' for Active; 'I' for Inactive)
REMARK    1  A    between atoms: C_2  and  N_3 
REMARK    2  A    between atoms: C_7  and  N_9 
REMARK       I    between atoms: N_9  and  C_10 
REMARK    3  A    between atoms: C_10  and  C_12 
REMARK    4  A    between atoms: C_18  and  O_19 
REMARK    5  A    between atoms: O_19  and  C_20 
REMARK    6  A    between atoms: C_20  and  C_21 
REMARK    7  A    between atoms: C_21  and  O_22 
ROOT
HETATM    1  C   UNL     1     -40.834 -50.784  12.278  1.00  0.00     0.083 A 
HETATM    2  C   UNL     1     -39.596 -51.310  12.688  1.00  0.00     0.023 A 
HETATM    3  C   UNL     1     -38.414 -50.655  12.362  1.00  0.00     0.018 A 
HETATM    4  C   UNL     1     -38.501 -49.473  11.653  1.00  0.00     0.090 A 
HETATM    5  N   UNL     1     -39.673 -48.929  11.261  1.00  0.00    -0.346 N 
ATOM      6  HN  UNL     1     -39.694 -48.051  10.743  1.00  0.00     0.167 HD
HETATM    7  C   UNL     1     -40.825 -49.581  11.572  1.00  0.00     0.158 A 
ENDROOT
BRANCH   1   8
HETATM    8  C   UNL     1     -42.082 -51.519  12.606  1.00  0.00     0.256 C 
HETATM    9  N   UNL     1     -42.929 -50.885  13.508  1.00  0.00    -0.350 N 
HETATM   10  H   UNL     1     -42.569 -50.118  14.060  1.00  0.00     0.163 HD
HETATM   11  O   UNL     1     -42.343 -52.603  12.102  1.00  0.00    -0.268 OA
BRANCH   9  12
HETATM   12  C   UNL     1     -44.151 -51.531  13.973  1.00  0.00     0.113 C 
HETATM   13  C   UNL     1     -45.358 -51.073  13.146  1.00  0.00     0.029 C 
HETATM   14  C   UNL     1     -46.647 -51.695  13.684  1.00  0.00     0.032 C 
HETATM   15  C   UNL     1     -46.804 -51.461  15.194  1.00  0.00     0.272 C 
HETATM   16  N   UNL     1     -45.638 -51.868  15.997  1.00  0.00     0.090 N 
HETATM   17  C   UNL     1     -44.414 -51.242  15.468  1.00  0.00     0.297 C 
BRANCH  16  18
HETATM   18  C   UNL     1     -45.554 -53.335  16.112  1.00  0.00     0.268 C 
HETATM   19  C   UNL     1     -44.383 -53.842  16.949  1.00  0.00     0.037 C 
ENDBRANCH  16  18
ENDBRANCH   9  12
ENDBRANCH   1   8
BRANCH   7  20
HETATM   20  O   UNL     1     -42.009 -48.994  11.161  1.00  0.00    -0.333 OA
BRANCH  20  21
HETATM   21  C   UNL     1     -41.783 -47.843  10.338  1.00  0.00     0.203 C 
BRANCH  21  22
HETATM   22  C   UNL     1     -43.032 -46.971  10.226  1.00  0.00     0.193 C 
BRANCH  22  23
HETATM   23  O   UNL     1     -43.968 -47.663   9.394  1.00  0.00    -0.394 OA
HETATM   24  C   UNL     1     -43.597 -47.654   8.026  1.00  0.00     0.201 C 
ENDBRANCH  22  23
ENDBRANCH  21  22
ENDBRANCH  20  21
ENDBRANCH   7  20
TORSDOF 7
ENDMDL
MODEL 6
REMARK VINA RESULT:      -5.2      2.396      6.957
REMARK  7 active torsions:
REMARK  status: ('A' for Active; 'I' for Inactive)
REMARK    1  A    between atoms: C_2  and  N_3 
REMARK    2  A    between atoms: C_7  and  N_9 
REMARK       I    between atoms: N_9  and  C_10 
REMARK    3  A    between atoms: C_10  and  C_12 
REMARK    4  A    between atoms: C_18  and  O_19 
REMARK    5  A    between atoms: O_19  and  C_20 
REMARK    6  A    between atoms: C_20  and  C_21 
REMARK    7  A    between atoms: C_21  and  O_22 
ROOT
HETATM    1  C   UNL     1     -44.541 -51.435  13.676  1.00  0.00     0.083 A 
HETATM    2  C   UNL     1     -45.715 -51.513  14.446  1.00  0.00     0.023 A 
HETATM    3  C   UNL     1     -46.455 -52.689  14.478  1.00  0.00     0.018 A 
HETATM    4  C   UNL     1     -45.987 -53.769  13.755  1.00  0.00     0.090 A 
HETATM    5  N   UNL     1     -44.855 -53.736  13.021  1.00  0.00    -0.346 N 
ATOM      6  HN  UNL     1     -44.542 -54.558  12.506  1.00  0.00     0.167 HD
HETATM    7  C   UNL     1     -44.142 -52.578  12.984  1.00  0.00     0.158 A 
ENDROOT
BRANCH   1   8
HETATM    8  C   UNL     1     -43.785 -50.157  13.628  1.00  0.00     0.256 C 
HETATM    9  N   UNL     1     -43.496 -49.681  12.354  1.00  0.00    -0.350 N 
HETATM   10  H   UNL     1     -43.588 -50.308  11.566  1.00  0.00     0.163 HD
HETATM   11  O   UNL     1     -43.454 -49.566  14.647  1.00  0.00    -0.268 OA
BRANCH   9  12
HETATM   12  C   UNL     1     -42.695 -48.477  12.166  1.00  0.00     0.113 C 
HETATM   13  C   UNL     1     -43.459 -47.439  11.335  1.00  0.00     0.029 C 
HETATM   14  C   UNL     1     -42.587 -46.209  11.076  1.00  0.00     0.032 C 
HETATM   15  C   UNL     1     -41.222 -46.593  10.488  1.00  0.00     0.272 C 
HETATM   16  N   UNL     1     -40.492 -47.613  11.260  1.00  0.00     0.090 N 
HETATM   17  C   UNL     1     -41.347 -48.792  11.480  1.00  0.00     0.297 C 
BRANCH  16  18
HETATM   18  C   UNL     1     -39.932 -47.046  12.500  1.00  0.00     0.268 C 
HETATM   19  C   UNL     1     -38.992 -47.979  13.259  1.00  0.00     0.037 C 
ENDBRANCH  16  18
ENDBRANCH   9  12
ENDBRANCH   1   8
BRANCH   7  20
HETATM   20  O   UNL     1     -42.984 -52.579  12.228  1.00  0.00    -0.333 OA
BRANCH  20  21
HETATM   21  C   UNL     1     -41.872 -53.133  12.943  1.00  0.00     0.203 C 
BRANCH  21  22
HETATM   22  C   UNL     1     -40.575 -52.382  12.646  1.00  0.00     0.193 C 
BRANCH  22  23
HETATM   23  O   UNL     1     -39.509 -53.095  13.281  1.00  0.00    -0.394 OA
HETATM   24  C   UNL     1     -39.950 -54.269  13.941  1.00  0.00     0.201 C 
ENDBRANCH  22  23
ENDBRANCH  21  22
ENDBRANCH  20  21
ENDBRANCH   7  20
TORSDOF 7
ENDMDL
MODEL 7
REMARK VINA RESULT:      -4.9     16.107     17.727
REMARK  7 active torsions:
REMARK  status: ('A' for Active; 'I' for Inactive)
REMARK    1  A    between atoms: C_2  and  N_3 
REMARK    2  A    between atoms: C_7  and  N_9 
REMARK       I    between atoms: N_9  and  C_10 
REMARK    3  A    between atoms: C_10  and  C_12 
REMARK    4  A    between atoms: C_18  and  O_19 
REMARK    5  A    between atoms: O_19  and  C_20 
REMARK    6  A    between atoms: C_20  and  C_21 
REMARK    7  A    between atoms: C_21  and  O_22 
ROOT
HETATM    1  C   UNL     1     -51.434 -51.766  -0.638  1.00  0.00     0.083 A 
HETATM    2  C   UNL     1     -52.590 -50.966  -0.619  1.00  0.00     0.023 A 
HETATM    3  C   UNL     1     -52.509 -49.628  -0.251  1.00  0.00     0.018 A 
HETATM    4  C   UNL     1     -51.267 -49.116   0.067  1.00  0.00     0.090 A 
HETATM    5  N   UNL     1     -50.134 -49.851   0.041  1.00  0.00    -0.346 N 
ATOM      6  HN  UNL     1     -49.235 -49.432   0.278  1.00  0.00     0.167 HD
HETATM    7  C   UNL     1     -50.221 -51.162  -0.309  1.00  0.00     0.158 A 
ENDROOT
BRANCH   1   8
HETATM    8  C   UNL     1     -51.548 -53.202  -1.001  1.00  0.00     0.256 C 
HETATM    9  N   UNL     1     -50.605 -53.665  -1.911  1.00  0.00    -0.350 N 
HETATM   10  H   UNL     1     -50.069 -52.993  -2.444  1.00  0.00     0.163 HD
HETATM   11  O   UNL     1     -52.411 -53.922  -0.517  1.00  0.00    -0.268 OA
BRANCH   9  12
HETATM   12  C   UNL     1     -50.650 -55.036  -2.408  1.00  0.00     0.113 C 
HETATM   13  C   UNL     1     -49.238 -55.623  -2.517  1.00  0.00     0.029 C 
HETATM   14  C   UNL     1     -49.284 -57.031  -3.110  1.00  0.00     0.032 C 
HETATM   15  C   UNL     1     -50.076 -57.070  -4.425  1.00  0.00     0.272 C 
HETATM   16  N   UNL     1     -51.423 -56.481  -4.341  1.00  0.00     0.090 N 
HETATM   17  C   UNL     1     -51.348 -55.118  -3.784  1.00  0.00     0.297 C 
BRANCH  16  18
HETATM   18  C   UNL     1     -52.351 -57.368  -3.618  1.00  0.00     0.268 C 
HETATM   19  C   UNL     1     -53.677 -56.721  -3.228  1.00  0.00     0.037 C 
ENDBRANCH  16  18
ENDBRANCH   9  12
ENDBRANCH   1   8
BRANCH   7  20
HETATM   20  O   UNL     1     -49.042 -51.885  -0.332  1.00  0.00    -0.333 OA
BRANCH  20  21
HETATM   21  C   UNL     1     -48.030 -51.241  -1.117  1.00  0.00     0.203 C 
BRANCH  21  22
HETATM   22  C   UNL     1     -47.624 -52.086  -2.324  1.00  0.00     0.193 C 
BRANCH  22  23
HETATM   23  O   UNL     1     -48.654 -51.953  -3.309  1.00  0.00    -0.394 OA
HETATM   24  C   UNL     1     -48.309 -52.549  -4.548  1.00  0.00     0.201 C 
ENDBRANCH  22  23
ENDBRANCH  21  22
ENDBRANCH  20  21
ENDBRANCH   7  20
TORSDOF 7
ENDMDL
MODEL 8
REMARK VINA RESULT:      -4.9      1.910      3.910
REMARK  7 active torsions:
REMARK  status: ('A' for Active; 'I' for Inactive)
REMARK    1  A    between atoms: C_2  and  N_3 
REMARK    2  A    between atoms: C_7  and  N_9 
REMARK       I    between atoms: N_9  and  C_10 
REMARK    3  A    between atoms: C_10  and  C_12 
REMARK    4  A    between atoms: C_18  and  O_19 
REMARK    5  A    between atoms: O_19  and  C_20 
REMARK    6  A    between atoms: C_20  and  C_21 
REMARK    7  A    between atoms: C_21  and  O_22 
ROOT
HETATM    1  C   UNL     1     -41.462 -49.040  11.920  1.00  0.00     0.083 A 
HETATM    2  C   UNL     1     -41.982 -48.273  10.862  1.00  0.00     0.023 A 
HETATM    3  C   UNL     1     -41.423 -47.039  10.551  1.00  0.00     0.018 A 
HETATM    4  C   UNL     1     -40.338 -46.613  11.292  1.00  0.00     0.090 A 
HETATM    5  N   UNL     1     -39.802 -47.331  12.301  1.00  0.00    -0.346 N 
ATOM      6  HN  UNL     1     -38.997 -46.982  12.820  1.00  0.00     0.167 HD
HETATM    7  C   UNL     1     -40.361 -48.532  12.608  1.00  0.00     0.158 A 
ENDROOT
BRANCH   1   8
HETATM    8  C   UNL     1     -42.097 -50.340  12.258  1.00  0.00     0.256 C 
HETATM    9  N   UNL     1     -43.354 -50.256  12.845  1.00  0.00    -0.350 N 
HETATM   10  H   UNL     1     -43.659 -49.368  13.222  1.00  0.00     0.163 HD
HETATM   11  O   UNL     1     -41.546 -51.406  12.021  1.00  0.00    -0.268 OA
BRANCH   9  12
HETATM   12  C   UNL     1     -44.055 -51.453  13.295  1.00  0.00     0.113 C 
HETATM   13  C   UNL     1     -45.573 -51.236  13.274  1.00  0.00     0.029 C 
HETATM   14  C   UNL     1     -46.300 -52.466  13.817  1.00  0.00     0.032 C 
HETATM   15  C   UNL     1     -45.753 -52.893  15.187  1.00  0.00     0.272 C 
HETATM   16  N   UNL     1     -44.291 -53.075  15.227  1.00  0.00     0.090 N 
HETATM   17  C   UNL     1     -43.615 -51.870  14.716  1.00  0.00     0.297 C 
BRANCH  16  18
HETATM   18  C   UNL     1     -43.888 -54.317  14.545  1.00  0.00     0.268 C 
HETATM   19  C   UNL     1     -42.381 -54.484  14.365  1.00  0.00     0.037 C 
ENDBRANCH  16  18
ENDBRANCH   9  12
ENDBRANCH   1   8
BRANCH   7  20
HETATM   20  O   UNL     1     -39.783 -49.247  13.643  1.00  0.00    -0.333 OA
BRANCH  20  21
HETATM   21  C   UNL     1     -38.389 -49.492  13.417  1.00  0.00     0.203 C 
BRANCH  21  22
HETATM   22  C   UNL     1     -38.078 -50.987  13.357  1.00  0.00     0.193 C 
BRANCH  22  23
HETATM   23  O   UNL     1     -37.639 -51.283  12.028  1.00  0.00    -0.394 OA
HETATM   24  C   UNL     1     -37.387 -50.118  11.260  1.00  0.00     0.201 C 
ENDBRANCH  22  23
ENDBRANCH  21  22
ENDBRANCH  20  21
ENDBRANCH   7  20
TORSDOF 7
ENDMDL
MODEL 9
REMARK VINA RESULT:      -4.8      3.204      5.421
REMARK  7 active torsions:
REMARK  status: ('A' for Active; 'I' for Inactive)
REMARK    1  A    between atoms: C_2  and  N_3 
REMARK    2  A    between atoms: C_7  and  N_9 
REMARK       I    between atoms: N_9  and  C_10 
REMARK    3  A    between atoms: C_10  and  C_12 
REMARK    4  A    between atoms: C_18  and  O_19 
REMARK    5  A    between atoms: O_19  and  C_20 
REMARK    6  A    between atoms: C_20  and  C_21 
REMARK    7  A    between atoms: C_21  and  O_22 
ROOT
HETATM    1  C   UNL     1     -39.899 -52.057  12.980  1.00  0.00     0.083 A 
HETATM    2  C   UNL     1     -38.956 -51.029  13.156  1.00  0.00     0.023 A 
HETATM    3  C   UNL     1     -39.056 -49.854  12.420  1.00  0.00     0.018 A 
HETATM    4  C   UNL     1     -40.114 -49.726  11.542  1.00  0.00     0.090 A 
HETATM    5  N   UNL     1     -41.048 -50.684  11.363  1.00  0.00    -0.346 N 
ATOM      6  HN  UNL     1     -41.818 -50.547  10.708  1.00  0.00     0.167 HD
HETATM    7  C   UNL     1     -40.939 -51.836  12.077  1.00  0.00     0.158 A 
ENDROOT
BRANCH   1   8
HETATM    8  C   UNL     1     -39.754 -53.319  13.751  1.00  0.00     0.256 C 
HETATM    9  N   UNL     1     -40.765 -53.578  14.668  1.00  0.00    -0.350 N 
HETATM   10  H   UNL     1     -41.387 -52.827  14.936  1.00  0.00     0.163 HD
HETATM   11  O   UNL     1     -38.810 -54.077  13.573  1.00  0.00    -0.268 OA
BRANCH   9  12
HETATM   12  C   UNL     1     -40.706 -54.745  15.542  1.00  0.00     0.113 C 
HETATM   13  C   UNL     1     -42.115 -55.251  15.872  1.00  0.00     0.029 C 
HETATM   14  C   UNL     1     -42.051 -56.426  16.848  1.00  0.00     0.032 C 
HETATM   15  C   UNL     1     -41.206 -56.092  18.085  1.00  0.00     0.272 C 
HETATM   16  N   UNL     1     -39.860 -55.576  17.782  1.00  0.00     0.090 N 
HETATM   17  C   UNL     1     -39.952 -54.434  16.855  1.00  0.00     0.297 C 
BRANCH  16  18
HETATM   18  C   UNL     1     -38.967 -56.650  17.314  1.00  0.00     0.268 C 
HETATM   19  C   UNL     1     -38.947 -57.893  18.200  1.00  0.00     0.037 C 
ENDBRANCH  16  18
ENDBRANCH   9  12
ENDBRANCH   1   8
BRANCH   7  20
HETATM   20  O   UNL     1     -41.916 -52.795  11.874  1.00  0.00    -0.333 OA
BRANCH  20  21
HETATM   21  C   UNL     1     -43.148 -52.455  12.523  1.00  0.00     0.203 C 
BRANCH  21  22
HETATM   22  C   UNL     1     -44.156 -53.602  12.462  1.00  0.00     0.193 C 
BRANCH  22  23
HETATM   23  O   UNL     1     -44.594 -53.862  13.800  1.00  0.00    -0.394 OA
HETATM   24  C   UNL     1     -45.478 -54.966  13.883  1.00  0.00     0.201 C 
ENDBRANCH  22  23
ENDBRANCH  21  22
ENDBRANCH  20  21
ENDBRANCH   7  20
TORSDOF 7
ENDMDL
