MODEL 1
REMARK VINA RESULT:      -5.7      0.000      0.000
REMARK  4 active torsions:
REMARK  status: ('A' for Active; 'I' for Inactive)
REMARK    1  A    between atoms: C_2  and  C_3 
REMARK    2  A    between atoms: C_3  and  N_4 
REMARK       I    between atoms: N_4  and  C_5 
REMARK       I    between atoms: C_5  and  N_7 
REMARK    3  A    between atoms: N_7  and  C_8 
REMARK    4  A    between atoms: C_11  and  N_15 
ROOT
HETATM    1  C   UNL     1     -41.237 -48.393  10.691  1.00  0.00     0.051 A 
HETATM    2  C   UNL     1     -40.555 -47.336  11.274  1.00  0.00     0.035 A 
HETATM    3  C   UNL     1     -39.505 -47.608  12.154  1.00  0.00     0.051 A 
HETATM    4  C   UNL     1     -39.169 -48.926  12.479  1.00  0.00     0.103 A 
HETATM    5  N   UNL     1     -39.878 -49.955  11.973  1.00  0.00    -0.350 N 
ATOM      6  HN  UNL     1     -39.670 -50.917  12.241  1.00  0.00     0.166 HD
HETATM    7  C   UNL     1     -40.879 -49.675  11.094  1.00  0.00     0.119 A 
ENDROOT
BRANCH   1   8
HETATM    8  N   UNL     1     -42.193 -48.111   9.686  1.00  0.00    -0.308 N 
HETATM    9  C   UNL     1     -43.435 -47.597   9.998  1.00  0.00     0.321 C 
HETATM   10  N   UNL     1     -44.289 -47.643   8.915  1.00  0.00    -0.339 N 
HETATM   11  O   UNL     1     -43.795 -47.242  11.112  1.00  0.00    -0.247 OA
HETATM   12  H   UNL     1     -43.879 -47.316   8.049  1.00  0.00     0.164 HD
HETATM   13  H   UNL     1     -42.201 -48.726   8.884  1.00  0.00     0.170 HD
BRANCH  10  14
HETATM   14  C   UNL     1     -45.670 -47.286   9.141  1.00  0.00     0.150 C 
BRANCH  14  15
HETATM   15  C   UNL     1     -46.522 -48.473   8.830  1.00  0.00    -0.018 C 
HETATM   16  C   UNL     1     -46.525 -49.109   7.651  1.00  0.00     0.008 C 
ENDBRANCH  14  15
ENDBRANCH  10  14
ENDBRANCH   1   8
BRANCH   4  17
HETATM   17  N   UNL     1     -38.041 -49.172  13.244  1.00  0.00    -0.363 N 
HETATM   18  C   UNL     1     -37.750 -50.551  13.662  1.00  0.00     0.150 C 
HETATM   19  C   UNL     1     -38.010 -50.767  15.158  1.00  0.00     0.187 C 
HETATM   20  O   UNL     1     -37.340 -49.776  15.958  1.00  0.00    -0.388 OA
HETATM   21  C   UNL     1     -37.827 -48.471  15.615  1.00  0.00     0.187 C 
HETATM   22  C   UNL     1     -37.538 -48.126  14.145  1.00  0.00     0.150 C 
ENDBRANCH   4  17
TORSDOF 4
ENDMDL
MODEL 2
REMARK VINA RESULT:      -5.6      2.411      3.128
REMARK  4 active torsions:
REMARK  status: ('A' for Active; 'I' for Inactive)
REMARK    1  A    between atoms: C_2  and  C_3 
REMARK    2  A    between atoms: C_3  and  N_4 
REMARK       I    between atoms: N_4  and  C_5 
REMARK       I    between atoms: C_5  and  N_7 
REMARK    3  A    between atoms: N_7  and  C_8 
REMARK    4  A    between atoms: C_11  and  N_15 
ROOT
HETATM    1  C   UNL     1     -40.565 -50.095  11.452  1.00  0.00     0.051 A 
HETATM    2  C   UNL     1     -39.328 -49.789  11.999  1.00  0.00     0.035 A 
HETATM    3  C   UNL     1     -38.805 -50.613  12.998  1.00  0.00     0.051 A 
HETATM    4  C   UNL     1     -39.532 -51.708  13.474  1.00  0.00     0.103 A 
HETATM    5  N   UNL     1     -40.767 -51.967  12.998  1.00  0.00    -0.350 N 
ATOM      6  HN  UNL     1     -41.323 -52.735  13.372  1.00  0.00     0.166 HD
HETATM    7  C   UNL     1     -41.251 -51.172  12.003  1.00  0.00     0.119 A 
ENDROOT
BRANCH   1   8
HETATM    8  N   UNL     1     -41.017 -49.350  10.338  1.00  0.00    -0.308 N 
HETATM    9  C   UNL     1     -41.924 -48.318  10.481  1.00  0.00     0.321 C 
HETATM   10  N   UNL     1     -42.418 -47.906   9.260  1.00  0.00    -0.339 N 
HETATM   11  O   UNL     1     -42.338 -47.883  11.546  1.00  0.00    -0.247 OA
HETATM   12  H   UNL     1     -41.711 -47.777   8.548  1.00  0.00     0.164 HD
HETATM   13  H   UNL     1     -41.111 -49.851   9.466  1.00  0.00     0.170 HD
BRANCH  10  14
HETATM   14  C   UNL     1     -43.496 -46.944   9.271  1.00  0.00     0.150 C 
BRANCH  14  15
HETATM   15  C   UNL     1     -44.730 -47.612   8.759  1.00  0.00    -0.018 C 
HETATM   16  C   UNL     1     -45.971 -47.319   9.171  1.00  0.00     0.008 C 
ENDBRANCH  14  15
ENDBRANCH  10  14
ENDBRANCH   1   8
BRANCH   4  17
HETATM   17  N   UNL     1     -38.936 -52.586  14.364  1.00  0.00    -0.363 N 
HETATM   18  C   UNL     1     -39.096 -54.033  14.155  1.00  0.00     0.150 C 
HETATM   19  C   UNL     1     -40.043 -54.663  15.183  1.00  0.00     0.187 C 
HETATM   20  O   UNL     1     -39.664 -54.321  16.528  1.00  0.00    -0.388 OA
HETATM   21  C   UNL     1     -39.721 -52.897  16.697  1.00  0.00     0.187 C 
HETATM   22  C   UNL     1     -38.740 -52.175  15.761  1.00  0.00     0.150 C 
ENDBRANCH   4  17
TORSDOF 4
ENDMDL
MODEL 3
REMARK VINA RESULT:      -5.5      4.152      6.560
REMARK  4 active torsions:
REMARK  status: ('A' for Active; 'I' for Inactive)
REMARK    1  A    between atoms: C_2  and  C_3 
REMARK    2  A    between atoms: C_3  and  N_4 
REMARK       I    between atoms: N_4  and  C_5 
REMARK       I    between atoms: C_5  and  N_7 
REMARK    3  A    between atoms: N_7  and  C_8 
REMARK    4  A    between atoms: C_11  and  N_15 
ROOT
HETATM    1  C   UNL     1     -42.396 -50.780  12.974  1.00  0.00     0.051 A 
HETATM    2  C   UNL     1     -43.221 -49.668  13.053  1.00  0.00     0.035 A 
HETATM    3  C   UNL     1     -43.043 -48.624  12.142  1.00  0.00     0.051 A 
HETATM    4  C   UNL     1     -42.023 -48.674  11.188  1.00  0.00     0.103 A 
HETATM    5  N   UNL     1     -41.171 -49.719  11.155  1.00  0.00    -0.350 N 
ATOM      6  HN  UNL     1     -40.395 -49.742  10.493  1.00  0.00     0.166 HD
HETATM    7  C   UNL     1     -41.375 -50.742  12.030  1.00  0.00     0.119 A 
ENDROOT
BRANCH   1   8
HETATM    8  N   UNL     1     -42.681 -51.896  13.795  1.00  0.00    -0.308 N 
HETATM    9  C   UNL     1     -43.567 -52.877  13.395  1.00  0.00     0.321 C 
HETATM   10  N   UNL     1     -43.891 -53.722  14.437  1.00  0.00    -0.339 N 
HETATM   11  O   UNL     1     -44.098 -52.946  12.295  1.00  0.00    -0.247 OA
HETATM   12  H   UNL     1     -43.096 -54.036  14.978  1.00  0.00     0.164 HD
HETATM   13  H   UNL     1     -42.681 -51.735  14.792  1.00  0.00     0.170 HD
BRANCH  10  14
HETATM   14  C   UNL     1     -44.931 -54.696  14.204  1.00  0.00     0.150 C 
BRANCH  14  15
HETATM   15  C   UNL     1     -46.136 -54.299  14.991  1.00  0.00    -0.018 C 
HETATM   16  C   UNL     1     -46.964 -53.302  14.650  1.00  0.00     0.008 C 
ENDBRANCH  14  15
ENDBRANCH  10  14
ENDBRANCH   1   8
BRANCH   4  17
HETATM   17  N   UNL     1     -41.954 -47.694  10.213  1.00  0.00    -0.363 N 
HETATM   18  C   UNL     1     -41.361 -46.391  10.551  1.00  0.00     0.150 C 
HETATM   19  C   UNL     1     -42.420 -45.287  10.660  1.00  0.00     0.187 C 
HETATM   20  O   UNL     1     -43.259 -45.244   9.491  1.00  0.00    -0.388 OA
HETATM   21  C   UNL     1     -43.947 -46.496   9.347  1.00  0.00     0.187 C 
HETATM   22  C   UNL     1     -42.967 -47.662   9.149  1.00  0.00     0.150 C 
ENDBRANCH   4  17
TORSDOF 4
ENDMDL
MODEL 4
REMARK VINA RESULT:      -5.5      3.501      5.440
REMARK  4 active torsions:
REMARK  status: ('A' for Active; 'I' for Inactive)
REMARK    1  A    between atoms: C_2  and  C_3 
REMARK    2  A    between atoms: C_3  and  N_4 
REMARK       I    between atoms: N_4  and  C_5 
REMARK       I    between atoms: C_5  and  N_7 
REMARK    3  A    between atoms: N_7  and  C_8 
REMARK    4  A    between atoms: C_11  and  N_15 
ROOT
HETATM    1  C   UNL     1     -40.646 -49.855  11.265  1.00  0.00     0.051 A 
HETATM    2  C   UNL     1     -39.603 -49.448  12.084  1.00  0.00     0.035 A 
HETATM    3  C   UNL     1     -39.304 -48.087  12.177  1.00  0.00     0.051 A 
HETATM    4  C   UNL     1     -40.015 -47.146  11.427  1.00  0.00     0.103 A 
HETATM    5  N   UNL     1     -40.981 -47.543  10.574  1.00  0.00    -0.350 N 
ATOM      6  HN  UNL     1     -41.473 -46.868   9.989  1.00  0.00     0.166 HD
HETATM    7  C   UNL     1     -41.281 -48.870  10.516  1.00  0.00     0.119 A 
ENDROOT
BRANCH   1   8
HETATM    8  N   UNL     1     -41.042 -51.212  11.295  1.00  0.00    -0.308 N 
HETATM    9  C   UNL     1     -41.920 -51.686  12.250  1.00  0.00     0.321 C 
HETATM   10  N   UNL     1     -41.965 -53.065  12.257  1.00  0.00    -0.339 N 
HETATM   11  O   UNL     1     -42.510 -50.999  13.073  1.00  0.00    -0.247 OA
HETATM   12  H   UNL     1     -42.044 -53.481  11.338  1.00  0.00     0.164 HD
HETATM   13  H   UNL     1     -40.351 -51.891  11.011  1.00  0.00     0.170 HD
BRANCH  10  14
HETATM   14  C   UNL     1     -42.719 -53.700  13.312  1.00  0.00     0.150 C 
BRANCH  14  15
HETATM   15  C   UNL     1     -44.074 -54.043  12.785  1.00  0.00    -0.018 C 
HETATM   16  C   UNL     1     -45.019 -54.678  13.492  1.00  0.00     0.008 C 
ENDBRANCH  14  15
ENDBRANCH  10  14
ENDBRANCH   1   8
BRANCH   4  17
HETATM   17  N   UNL     1     -39.792 -45.796  11.640  1.00  0.00    -0.363 N 
HETATM   18  C   UNL     1     -39.639 -45.307  13.018  1.00  0.00     0.150 C 
HETATM   19  C   UNL     1     -40.863 -44.509  13.485  1.00  0.00     0.187 C 
HETATM   20  O   UNL     1     -41.205 -43.472  12.548  1.00  0.00    -0.388 OA
HETATM   21  C   UNL     1     -41.525 -44.058  11.278  1.00  0.00     0.187 C 
HETATM   22  C   UNL     1     -40.328 -44.817  10.685  1.00  0.00     0.150 C 
ENDBRANCH   4  17
TORSDOF 4
ENDMDL
MODEL 5
REMARK VINA RESULT:      -5.5      3.441      5.873
REMARK  4 active torsions:
REMARK  status: ('A' for Active; 'I' for Inactive)
REMARK    1  A    between atoms: C_2  and  C_3 
REMARK    2  A    between atoms: C_3  and  N_4 
REMARK       I    between atoms: N_4  and  C_5 
REMARK       I    between atoms: C_5  and  N_7 
REMARK    3  A    between atoms: N_7  and  C_8 
REMARK    4  A    between atoms: C_11  and  N_15 
ROOT
HETATM    1  C   UNL     1     -40.568 -49.538  11.217  1.00  0.00     0.051 A 
HETATM    2  C   UNL     1     -39.554 -48.961  11.966  1.00  0.00     0.035 A 
HETATM    3  C   UNL     1     -39.616 -47.597  12.257  1.00  0.00     0.051 A 
HETATM    4  C   UNL     1     -40.663 -46.809  11.768  1.00  0.00     0.103 A 
HETATM    5  N   UNL     1     -41.612 -47.350  10.977  1.00  0.00    -0.350 N 
ATOM      6  HN  UNL     1     -42.353 -46.774  10.578  1.00  0.00     0.166 HD
HETATM    7  C   UNL     1     -41.553 -48.687  10.727  1.00  0.00     0.119 A 
ENDROOT
BRANCH   1   8
HETATM    8  N   UNL     1     -40.578 -50.944  11.058  1.00  0.00    -0.308 N 
HETATM    9  C   UNL     1     -41.109 -51.774  12.025  1.00  0.00     0.321 C 
HETATM   10  N   UNL     1     -40.786 -53.095  11.791  1.00  0.00    -0.339 N 
HETATM   11  O   UNL     1     -41.698 -51.403  13.031  1.00  0.00    -0.247 OA
HETATM   12  H   UNL     1     -40.918 -53.391  10.833  1.00  0.00     0.164 HD
HETATM   13  H   UNL     1     -39.796 -51.349  10.564  1.00  0.00     0.170 HD
BRANCH  10  14
HETATM   14  C   UNL     1     -41.138 -54.056  12.811  1.00  0.00     0.150 C 
BRANCH  14  15
HETATM   15  C   UNL     1     -39.940 -54.293  13.671  1.00  0.00    -0.018 C 
HETATM   16  C   UNL     1     -39.996 -54.558  14.983  1.00  0.00     0.008 C 
ENDBRANCH  14  15
ENDBRANCH  10  14
ENDBRANCH   1   8
BRANCH   4  17
HETATM   17  N   UNL     1     -40.776 -45.493  12.183  1.00  0.00    -0.363 N 
HETATM   18  C   UNL     1     -39.783 -44.512  11.721  1.00  0.00     0.150 C 
HETATM   19  C   UNL     1     -38.820 -44.095  12.840  1.00  0.00     0.187 C 
HETATM   20  O   UNL     1     -39.531 -43.674  14.018  1.00  0.00    -0.388 OA
HETATM   21  C   UNL     1     -40.330 -44.759  14.511  1.00  0.00     0.187 C 
HETATM   22  C   UNL     1     -41.387 -45.197  13.485  1.00  0.00     0.150 C 
ENDBRANCH   4  17
TORSDOF 4
ENDMDL
MODEL 6
REMARK VINA RESULT:      -5.5      5.082      6.849
REMARK  4 active torsions:
REMARK  status: ('A' for Active; 'I' for Inactive)
REMARK    1  A    between atoms: C_2  and  C_3 
REMARK    2  A    between atoms: C_3  and  N_4 
REMARK       I    between atoms: N_4  and  C_5 
REMARK       I    between atoms: C_5  and  N_7 
REMARK    3  A    between atoms: N_7  and  C_8 
REMARK    4  A    between atoms: C_11  and  N_15 
ROOT
HETATM    1  C   UNL     1     -41.399 -52.317  12.115  1.00  0.00     0.051 A 
HETATM    2  C   UNL     1     -42.781 -52.200  12.080  1.00  0.00     0.035 A 
HETATM    3  C   UNL     1     -43.556 -53.068  12.851  1.00  0.00     0.051 A 
HETATM    4  C   UNL     1     -42.956 -54.071  13.618  1.00  0.00     0.103 A 
HETATM    5  N   UNL     1     -41.618 -54.238  13.598  1.00  0.00    -0.350 N 
ATOM      6  HN  UNL     1     -41.176 -54.996  14.117  1.00  0.00     0.166 HD
HETATM    7  C   UNL     1     -40.874 -53.365  12.865  1.00  0.00     0.119 A 
ENDROOT
BRANCH   1   8
HETATM    8  N   UNL     1     -40.619 -51.339  11.456  1.00  0.00    -0.308 N 
HETATM    9  C   UNL     1     -40.263 -50.160  12.081  1.00  0.00     0.321 C 
HETATM   10  N   UNL     1     -39.734 -49.252  11.187  1.00  0.00    -0.339 N 
HETATM   11  O   UNL     1     -40.481 -49.886  13.254  1.00  0.00    -0.247 OA
HETATM   12  H   UNL     1     -39.046 -49.644  10.556  1.00  0.00     0.164 HD
HETATM   13  H   UNL     1     -40.762 -51.240  10.461  1.00  0.00     0.170 HD
BRANCH  10  14
HETATM   14  C   UNL     1     -39.469 -47.918  11.672  1.00  0.00     0.150 C 
BRANCH  14  15
HETATM   15  C   UNL     1     -40.483 -46.991  11.087  1.00  0.00    -0.018 C 
HETATM   16  C   UNL     1     -40.286 -45.680  10.898  1.00  0.00     0.008 C 
ENDBRANCH  14  15
ENDBRANCH  10  14
ENDBRANCH   1   8
BRANCH   4  17
HETATM   17  N   UNL     1     -43.735 -54.829  14.477  1.00  0.00    -0.363 N 
HETATM   18  C   UNL     1     -45.113 -55.161  14.086  1.00  0.00     0.150 C 
HETATM   19  C   UNL     1     -46.148 -54.371  14.897  1.00  0.00     0.187 C 
HETATM   20  O   UNL     1     -45.913 -54.491  16.312  1.00  0.00    -0.388 OA
HETATM   21  C   UNL     1     -44.616 -53.966  16.630  1.00  0.00     0.187 C 
HETATM   22  C   UNL     1     -43.498 -54.749  15.925  1.00  0.00     0.150 C 
ENDBRANCH   4  17
TORSDOF 4
ENDMDL
MODEL 7
REMARK VINA RESULT:      -5.3      3.919      5.871
REMARK  4 active torsions:
REMARK  status: ('A' for Active; 'I' for Inactive)
REMARK    1  A    between atoms: C_2  and  C_3 
REMARK    2  A    between atoms: C_3  and  N_4 
REMARK       I    between atoms: N_4  and  C_5 
REMARK       I    between atoms: C_5  and  N_7 
REMARK    3  A    between atoms: N_7  and  C_8 
REMARK    4  A    between atoms: C_11  and  N_15 
ROOT
HETATM    1  C   UNL     1     -41.416 -49.073  11.339  1.00  0.00     0.051 A 
HETATM    2  C   UNL     1     -40.639 -50.217  11.440  1.00  0.00     0.035 A 
HETATM    3  C   UNL     1     -41.157 -51.335  12.097  1.00  0.00     0.051 A 
HETATM    4  C   UNL     1     -42.425 -51.294  12.684  1.00  0.00     0.103 A 
HETATM    5  N   UNL     1     -43.155 -50.161  12.654  1.00  0.00    -0.350 N 
ATOM      6  HN  UNL     1     -44.061 -50.108  13.119  1.00  0.00     0.166 HD
HETATM    7  C   UNL     1     -42.649 -49.089  11.984  1.00  0.00     0.119 A 
ENDROOT
BRANCH   1   8
HETATM    8  N   UNL     1     -40.948 -48.003  10.542  1.00  0.00    -0.308 N 
HETATM    9  C   UNL     1     -40.249 -46.947  11.093  1.00  0.00     0.321 C 
HETATM   10  N   UNL     1     -40.118 -45.905  10.197  1.00  0.00    -0.339 N 
HETATM   11  O   UNL     1     -39.879 -46.872  12.256  1.00  0.00    -0.247 OA
HETATM   12  H   UNL     1     -39.832 -46.189   9.269  1.00  0.00     0.164 HD
HETATM   13  H   UNL     1     -41.525 -47.738   9.756  1.00  0.00     0.170 HD
BRANCH  10  14
HETATM   14  C   UNL     1     -39.549 -44.672  10.691  1.00  0.00     0.150 C 
BRANCH  14  15
HETATM   15  C   UNL     1     -40.662 -43.715  10.966  1.00  0.00    -0.018 C 
HETATM   16  C   UNL     1     -40.524 -42.578  11.662  1.00  0.00     0.008 C 
ENDBRANCH  14  15
ENDBRANCH  10  14
ENDBRANCH   1   8
BRANCH   4  17
HETATM   17  N   UNL     1     -42.970 -52.455  13.208  1.00  0.00    -0.363 N 
HETATM   18  C   UNL     1     -43.929 -53.221  12.400  1.00  0.00     0.150 C 
HETATM   19  C   UNL     1     -45.363 -53.088  12.927  1.00  0.00     0.187 C 
HETATM   20  O   UNL     1     -45.438 -53.386  14.333  1.00  0.00    -0.388 OA
HETATM   21  C   UNL     1     -44.616 -52.464  15.065  1.00  0.00     0.187 C 
HETATM   22  C   UNL     1     -43.138 -52.580  14.662  1.00  0.00     0.150 C 
ENDBRANCH   4  17
TORSDOF 4
ENDMDL
MODEL 8
REMARK VINA RESULT:      -5.3      3.709      6.309
REMARK  4 active torsions:
REMARK  status: ('A' for Active; 'I' for Inactive)
REMARK    1  A    between atoms: C_2  and  C_3 
REMARK    2  A    between atoms: C_3  and  N_4 
REMARK       I    between atoms: N_4  and  C_5 
REMARK       I    between atoms: C_5  and  N_7 
REMARK    3  A    between atoms: N_7  and  C_8 
REMARK    4  A    between atoms: C_11  and  N_15 
ROOT
HETATM    1  C   UNL     1     -41.470 -47.503  10.634  1.00  0.00     0.051 A 
HETATM    2  C   UNL     1     -40.423 -46.644  10.930  1.00  0.00     0.035 A 
HETATM    3  C   UNL     1     -40.704 -45.308  11.227  1.00  0.00     0.051 A 
HETATM    4  C   UNL     1     -42.016 -44.828  11.188  1.00  0.00     0.103 A 
HETATM    5  N   UNL     1     -43.030 -45.641  10.828  1.00  0.00    -0.350 N 
ATOM      6  HN  UNL     1     -43.983 -45.288  10.751  1.00  0.00     0.166 HD
HETATM    7  C   UNL     1     -42.744 -46.947  10.570  1.00  0.00     0.119 A 
ENDROOT
BRANCH   1   8
HETATM    8  N   UNL     1     -41.195 -48.882  10.487  1.00  0.00    -0.308 N 
HETATM    9  C   UNL     1     -41.167 -49.731  11.575  1.00  0.00     0.321 C 
HETATM   10  N   UNL     1     -40.631 -50.960  11.246  1.00  0.00    -0.339 N 
HETATM   11  O   UNL     1     -41.468 -49.424  12.720  1.00  0.00    -0.247 OA
HETATM   12  H   UNL     1     -40.993 -51.353  10.387  1.00  0.00     0.164 HD
HETATM   13  H   UNL     1     -40.542 -49.139   9.759  1.00  0.00     0.170 HD
BRANCH  10  14
HETATM   14  C   UNL     1     -40.392 -51.891  12.324  1.00  0.00     0.150 C 
BRANCH  14  15
HETATM   15  C   UNL     1     -41.444 -52.951  12.275  1.00  0.00    -0.018 C 
HETATM   16  C   UNL     1     -41.538 -53.960  13.151  1.00  0.00     0.008 C 
ENDBRANCH  14  15
ENDBRANCH  10  14
ENDBRANCH   1   8
BRANCH   4  17
HETATM   17  N   UNL     1     -42.282 -43.539  11.618  1.00  0.00    -0.363 N 
HETATM   18  C   UNL     1     -41.506 -42.424  11.056  1.00  0.00     0.150 C 
HETATM   19  C   UNL     1     -40.503 -41.853  12.066  1.00  0.00     0.187 C 
HETATM   20  O   UNL     1     -41.140 -41.530  13.316  1.00  0.00    -0.388 OA
HETATM   21  C   UNL     1     -41.706 -42.718  13.888  1.00  0.00     0.187 C 
HETATM   22  C   UNL     1     -42.789 -43.324  12.981  1.00  0.00     0.150 C 
ENDBRANCH   4  17
TORSDOF 4
ENDMDL
MODEL 9
REMARK VINA RESULT:      -5.3      4.070      6.985
REMARK  4 active torsions:
REMARK  status: ('A' for Active; 'I' for Inactive)
REMARK    1  A    between atoms: C_2  and  C_3 
REMARK    2  A    between atoms: C_3  and  N_4 
REMARK       I    between atoms: N_4  and  C_5 
REMARK       I    between atoms: C_5  and  N_7 
REMARK    3  A    between atoms: N_7  and  C_8 
REMARK    4  A    between atoms: C_11  and  N_15 
ROOT
HETATM    1  C   UNL     1     -41.454 -46.467  10.468  1.00  0.00     0.051 A 
HETATM    2  C   UNL     1     -40.483 -45.522  10.761  1.00  0.00     0.035 A 
HETATM    3  C   UNL     1     -40.877 -44.236  11.136  1.00  0.00     0.051 A 
HETATM    4  C   UNL     1     -42.230 -43.887  11.176  1.00  0.00     0.103 A 
HETATM    5  N   UNL     1     -43.176 -44.780  10.821  1.00  0.00    -0.350 N 
ATOM      6  HN  UNL     1     -44.162 -44.521  10.802  1.00  0.00     0.166 HD
HETATM    7  C   UNL     1     -42.778 -46.039  10.486  1.00  0.00     0.119 A 
ENDROOT
BRANCH   1   8
HETATM    8  N   UNL     1     -41.053 -47.804  10.241  1.00  0.00    -0.308 N 
HETATM    9  C   UNL     1     -40.815 -48.672  11.288  1.00  0.00     0.321 C 
HETATM   10  N   UNL     1     -40.193 -49.827  10.858  1.00  0.00    -0.339 N 
HETATM   11  O   UNL     1     -41.018 -48.429  12.469  1.00  0.00    -0.247 OA
HETATM   12  H   UNL     1     -40.605 -50.235  10.028  1.00  0.00     0.164 HD
HETATM   13  H   UNL     1     -40.462 -47.970   9.438  1.00  0.00     0.170 HD
BRANCH  10  14
HETATM   14  C   UNL     1     -39.739 -50.753  11.868  1.00  0.00     0.150 C 
BRANCH  14  15
HETATM   15  C   UNL     1     -38.292 -50.493  12.132  1.00  0.00    -0.018 C 
HETATM   16  C   UNL     1     -37.422 -50.068  11.206  1.00  0.00     0.008 C 
ENDBRANCH  14  15
ENDBRANCH  10  14
ENDBRANCH   1   8
BRANCH   4  17
HETATM   17  N   UNL     1     -42.600 -42.652  11.681  1.00  0.00    -0.363 N 
HETATM   18  C   UNL     1     -42.103 -41.434  11.024  1.00  0.00     0.150 C 
HETATM   19  C   UNL     1     -41.032 -40.724  11.861  1.00  0.00     0.187 C 
HETATM   20  O   UNL     1     -41.480 -40.500  13.210  1.00  0.00    -0.388 OA
HETATM   21  C   UNL     1     -41.761 -41.759  13.839  1.00  0.00     0.187 C 
HETATM   22  C   UNL     1     -42.886 -42.515  13.116  1.00  0.00     0.150 C 
ENDBRANCH   4  17
TORSDOF 4
ENDMDL
