MODEL 1
REMARK VINA RESULT:      -6.0      0.000      0.000
REMARK  8 active torsions:
REMARK  status: ('A' for Active; 'I' for Inactive)
REMARK    1  A    between atoms: O_2  and  C_3 
REMARK    2  A    between atoms: C_3  and  C_4 
REMARK    3  A    between atoms: C_4  and  N_5 
REMARK    4  A    between atoms: C_6  and  S_7 
REMARK    5  A    between atoms: S_7  and  C_8 
REMARK    6  A    between atoms: C_8  and  C_9 
REMARK    7  A    between atoms: C_9  and  C_11 
REMARK    8  A    between atoms: C_12  and  N_14 
ROOT
HETATM    1  C   UNL     1     -43.912 -53.608  13.616  1.00  0.00     0.107 C 
HETATM    2  C   UNL     1     -45.169 -54.043  13.341  1.00  0.00     0.004 C 
HETATM    3  C   UNL     1     -45.731 -55.343  13.888  1.00  0.00     0.063 C 
HETATM    4  C   UNL     1     -43.015 -54.380  14.410  1.00  0.00     0.104 C 
HETATM    5  N   UNL     1     -42.262 -55.006  15.032  1.00  0.00    -0.191 NA
ENDROOT
BRANCH   1   6
HETATM    6  C   UNL     1     -43.384 -52.304  13.046  1.00  0.00     0.181 C 
HETATM    7  O   UNL     1     -43.901 -51.233  13.377  1.00  0.00    -0.291 OA
BRANCH   6   8
HETATM    8  C   UNL     1     -42.233 -52.407  12.040  1.00  0.00     0.167 C 
BRANCH   8   9
HETATM    9  S   UNL     1     -40.716 -51.560  12.570  1.00  0.00    -0.086 SA
BRANCH   9  10
HETATM   10  C   UNL     1     -40.987 -49.947  11.994  1.00  0.00     0.148 A 
HETATM   11  N   UNL     1     -40.024 -48.964  12.013  1.00  0.00    -0.324 N 
HETATM   12  C   UNL     1     -40.565 -47.852  11.395  1.00  0.00     0.063 A 
HETATM   13  C   UNL     1     -41.872 -48.227  11.090  1.00  0.00     0.061 A 
HETATM   14  C   UNL     1     -40.048 -46.590  11.069  1.00  0.00     0.032 A 
HETATM   15  N   UNL     1     -42.120 -49.519  11.485  1.00  0.00    -0.335 N 
HETATM   16  C   UNL     1     -42.713 -47.310  10.441  1.00  0.00     0.032 A 
ATOM     17  HN  UNL     1     -42.995 -50.035  11.402  1.00  0.00     0.168 HD
HETATM   18  C   UNL     1     -42.215 -46.043  10.113  1.00  0.00     0.002 A 
HETATM   19  C   UNL     1     -40.903 -45.690  10.425  1.00  0.00     0.002 A 
BRANCH  11  20
HETATM   20  C   UNL     1     -38.652 -49.050  12.471  1.00  0.00     0.157 C 
BRANCH  20  21
HETATM   21  C   UNL     1     -37.679 -49.586  11.420  1.00  0.00     0.187 C 
BRANCH  21  22
HETATM   22  O   UNL     1     -37.427 -50.970  11.690  1.00  0.00    -0.394 OA
HETATM   23  C   UNL     1     -37.080 -51.186  13.053  1.00  0.00     0.201 C 
ENDBRANCH  21  22
ENDBRANCH  20  21
ENDBRANCH  11  20
ENDBRANCH   9  10
ENDBRANCH   8   9
ENDBRANCH   6   8
ENDBRANCH   1   6
BRANCH   2  24
HETATM   24  N   UNL     1     -46.072 -53.369  12.522  1.00  0.00    -0.305 NA
HETATM   25  H   UNL     1     -46.775 -52.828  13.045  1.00  0.00     0.124 HD
HETATM   26  H   UNL     1     -46.476 -53.919  11.767  1.00  0.00     0.124 HD
ENDBRANCH   2  24
TORSDOF 8
ENDMDL
MODEL 2
REMARK VINA RESULT:      -5.8      2.412      6.469
REMARK  8 active torsions:
REMARK  status: ('A' for Active; 'I' for Inactive)
REMARK    1  A    between atoms: O_2  and  C_3 
REMARK    2  A    between atoms: C_3  and  C_4 
REMARK    3  A    between atoms: C_4  and  N_5 
REMARK    4  A    between atoms: C_6  and  S_7 
REMARK    5  A    between atoms: S_7  and  C_8 
REMARK    6  A    between atoms: C_8  and  C_9 
REMARK    7  A    between atoms: C_9  and  C_11 
REMARK    8  A    between atoms: C_12  and  N_14 
ROOT
HETATM    1  C   UNL     1     -40.752 -50.279  12.716  1.00  0.00     0.107 C 
HETATM    2  C   UNL     1     -41.050 -49.684  11.531  1.00  0.00     0.004 C 
HETATM    3  C   UNL     1     -42.125 -48.622  11.389  1.00  0.00     0.063 C 
HETATM    4  C   UNL     1     -41.472 -49.968  13.905  1.00  0.00     0.104 C 
HETATM    5  N   UNL     1     -42.065 -49.749  14.878  1.00  0.00    -0.191 NA
ENDROOT
BRANCH   1   6
HETATM    6  C   UNL     1     -39.673 -51.341  12.818  1.00  0.00     0.181 C 
HETATM    7  O   UNL     1     -38.617 -51.210  12.192  1.00  0.00    -0.291 OA
BRANCH   6   8
HETATM    8  C   UNL     1     -39.988 -52.562  13.688  1.00  0.00     0.167 C 
BRANCH   8   9
HETATM    9  S   UNL     1     -40.990 -53.824  12.849  1.00  0.00    -0.086 SA
BRANCH   9  10
HETATM   10  C   UNL     1     -42.603 -53.272  13.171  1.00  0.00     0.148 A 
HETATM   11  N   UNL     1     -43.122 -53.150  14.440  1.00  0.00    -0.324 N 
HETATM   12  C   UNL     1     -44.384 -52.598  14.312  1.00  0.00     0.063 A 
HETATM   13  C   UNL     1     -44.570 -52.478  12.936  1.00  0.00     0.061 A 
HETATM   14  C   UNL     1     -45.351 -52.192  15.242  1.00  0.00     0.032 A 
HETATM   15  N   UNL     1     -43.465 -52.917  12.247  1.00  0.00    -0.335 N 
HETATM   16  C   UNL     1     -45.773 -51.939  12.454  1.00  0.00     0.032 A 
ATOM     17  HN  UNL     1     -43.343 -52.958  11.236  1.00  0.00     0.168 HD
HETATM   18  C   UNL     1     -46.753 -51.532  13.368  1.00  0.00     0.002 A 
HETATM   19  C   UNL     1     -46.543 -51.659  14.740  1.00  0.00     0.002 A 
BRANCH  11  20
HETATM   20  C   UNL     1     -42.480 -53.419  15.711  1.00  0.00     0.157 C 
BRANCH  20  21
HETATM   21  C   UNL     1     -42.590 -54.875  16.166  1.00  0.00     0.187 C 
BRANCH  21  22
HETATM   22  O   UNL     1     -43.878 -55.076  16.758  1.00  0.00    -0.394 OA
HETATM   23  C   UNL     1     -43.947 -54.524  18.068  1.00  0.00     0.201 C 
ENDBRANCH  21  22
ENDBRANCH  20  21
ENDBRANCH  11  20
ENDBRANCH   9  10
ENDBRANCH   8   9
ENDBRANCH   6   8
ENDBRANCH   1   6
BRANCH   2  24
HETATM   24  N   UNL     1     -40.429 -49.987  10.322  1.00  0.00    -0.305 NA
HETATM   25  H   UNL     1     -40.583 -50.958  10.014  1.00  0.00     0.124 HD
HETATM   26  H   UNL     1     -39.457 -49.695  10.241  1.00  0.00     0.124 HD
ENDBRANCH   2  24
TORSDOF 8
ENDMDL
MODEL 3
REMARK VINA RESULT:      -5.7      1.980      2.483
REMARK  8 active torsions:
REMARK  status: ('A' for Active; 'I' for Inactive)
REMARK    1  A    between atoms: O_2  and  C_3 
REMARK    2  A    between atoms: C_3  and  C_4 
REMARK    3  A    between atoms: C_4  and  N_5 
REMARK    4  A    between atoms: C_6  and  S_7 
REMARK    5  A    between atoms: S_7  and  C_8 
REMARK    6  A    between atoms: C_8  and  C_9 
REMARK    7  A    between atoms: C_9  and  C_11 
REMARK    8  A    between atoms: C_12  and  N_14 
ROOT
HETATM    1  C   UNL     1     -45.029 -53.161  14.218  1.00  0.00     0.107 C 
HETATM    2  C   UNL     1     -45.635 -52.003  13.848  1.00  0.00     0.004 C 
HETATM    3  C   UNL     1     -46.689 -51.316  14.696  1.00  0.00     0.063 C 
HETATM    4  C   UNL     1     -45.385 -53.835  15.422  1.00  0.00     0.104 C 
HETATM    5  N   UNL     1     -45.680 -54.412  16.384  1.00  0.00    -0.191 NA
ENDROOT
BRANCH   1   6
HETATM    6  C   UNL     1     -43.981 -53.821  13.340  1.00  0.00     0.181 C 
HETATM    7  O   UNL     1     -44.295 -54.261  12.230  1.00  0.00    -0.291 OA
BRANCH   6   8
HETATM    8  C   UNL     1     -42.568 -53.934  13.920  1.00  0.00     0.167 C 
BRANCH   8   9
HETATM    9  S   UNL     1     -41.257 -53.447  12.759  1.00  0.00    -0.086 SA
BRANCH   9  10
HETATM   10  C   UNL     1     -41.417 -51.720  12.741  1.00  0.00     0.148 A 
HETATM   11  N   UNL     1     -40.595 -50.876  13.450  1.00  0.00    -0.324 N 
HETATM   12  C   UNL     1     -40.957 -49.583  13.121  1.00  0.00     0.063 A 
HETATM   13  C   UNL     1     -42.041 -49.736  12.260  1.00  0.00     0.061 A 
HETATM   14  C   UNL     1     -40.447 -48.325  13.473  1.00  0.00     0.032 A 
HETATM   15  N   UNL     1     -42.323 -51.065  12.052  1.00  0.00    -0.335 N 
HETATM   16  C   UNL     1     -42.659 -48.594  11.727  1.00  0.00     0.032 A 
ATOM     17  HN  UNL     1     -43.073 -51.457  11.484  1.00  0.00     0.168 HD
HETATM   18  C   UNL     1     -42.166 -47.329  12.073  1.00  0.00     0.002 A 
HETATM   19  C   UNL     1     -41.078 -47.200  12.934  1.00  0.00     0.002 A 
BRANCH  11  20
HETATM   20  C   UNL     1     -39.471 -51.211  14.303  1.00  0.00     0.157 C 
BRANCH  20  21
HETATM   21  C   UNL     1     -38.112 -50.824  13.720  1.00  0.00     0.187 C 
BRANCH  21  22
HETATM   22  O   UNL     1     -38.040 -51.296  12.370  1.00  0.00    -0.394 OA
HETATM   23  C   UNL     1     -37.480 -50.319  11.499  1.00  0.00     0.201 C 
ENDBRANCH  21  22
ENDBRANCH  20  21
ENDBRANCH  11  20
ENDBRANCH   9  10
ENDBRANCH   8   9
ENDBRANCH   6   8
ENDBRANCH   1   6
BRANCH   2  24
HETATM   24  N   UNL     1     -45.378 -51.328  12.657  1.00  0.00    -0.305 NA
HETATM   25  H   UNL     1     -45.944 -51.665  11.865  1.00  0.00     0.124 HD
HETATM   26  H   UNL     1     -44.396 -51.209  12.421  1.00  0.00     0.124 HD
ENDBRANCH   2  24
TORSDOF 8
ENDMDL
MODEL 4
REMARK VINA RESULT:      -5.6      1.812      2.400
REMARK  8 active torsions:
REMARK  status: ('A' for Active; 'I' for Inactive)
REMARK    1  A    between atoms: O_2  and  C_3 
REMARK    2  A    between atoms: C_3  and  C_4 
REMARK    3  A    between atoms: C_4  and  N_5 
REMARK    4  A    between atoms: C_6  and  S_7 
REMARK    5  A    between atoms: S_7  and  C_8 
REMARK    6  A    between atoms: C_8  and  C_9 
REMARK    7  A    between atoms: C_9  and  C_11 
REMARK    8  A    between atoms: C_12  and  N_14 
ROOT
HETATM    1  C   UNL     1     -44.689 -52.069  13.787  1.00  0.00     0.107 C 
HETATM    2  C   UNL     1     -45.984 -52.353  14.083  1.00  0.00     0.004 C 
HETATM    3  C   UNL     1     -46.914 -51.361  14.758  1.00  0.00     0.063 C 
HETATM    4  C   UNL     1     -44.104 -50.818  14.139  1.00  0.00     0.104 C 
HETATM    5  N   UNL     1     -43.602 -49.817  14.441  1.00  0.00    -0.191 NA
ENDROOT
BRANCH   1   6
HETATM    6  C   UNL     1     -43.789 -53.089  13.116  1.00  0.00     0.181 C 
HETATM    7  O   UNL     1     -44.199 -53.727  12.142  1.00  0.00    -0.291 OA
BRANCH   6   8
HETATM    8  C   UNL     1     -42.401 -53.295  13.732  1.00  0.00     0.167 C 
BRANCH   8   9
HETATM    9  S   UNL     1     -41.037 -53.102  12.548  1.00  0.00    -0.086 SA
BRANCH   9  10
HETATM   10  C   UNL     1     -40.985 -51.381  12.338  1.00  0.00     0.148 A 
HETATM   11  N   UNL     1     -40.223 -50.545  13.122  1.00  0.00    -0.324 N 
HETATM   12  C   UNL     1     -40.359 -49.269  12.607  1.00  0.00     0.063 A 
HETATM   13  C   UNL     1     -41.264 -49.413  11.558  1.00  0.00     0.061 A 
HETATM   14  C   UNL     1     -39.782 -48.035  12.940  1.00  0.00     0.032 A 
HETATM   15  N   UNL     1     -41.654 -50.724  11.419  1.00  0.00    -0.335 N 
HETATM   16  C   UNL     1     -41.627 -48.285  10.807  1.00  0.00     0.032 A 
ATOM     17  HN  UNL     1     -42.321 -51.103  10.747  1.00  0.00     0.168 HD
HETATM   18  C   UNL     1     -41.065 -47.043  11.129  1.00  0.00     0.002 A 
HETATM   19  C   UNL     1     -40.159 -46.922  12.180  1.00  0.00     0.002 A 
BRANCH  11  20
HETATM   20  C   UNL     1     -39.336 -50.888  14.215  1.00  0.00     0.157 C 
BRANCH  20  21
HETATM   21  C   UNL     1     -37.851 -50.816  13.856  1.00  0.00     0.187 C 
BRANCH  21  22
HETATM   22  O   UNL     1     -37.640 -51.526  12.630  1.00  0.00    -0.394 OA
HETATM   23  C   UNL     1     -37.182 -50.664  11.594  1.00  0.00     0.201 C 
ENDBRANCH  21  22
ENDBRANCH  20  21
ENDBRANCH  11  20
ENDBRANCH   9  10
ENDBRANCH   8   9
ENDBRANCH   6   8
ENDBRANCH   1   6
BRANCH   2  24
HETATM   24  N   UNL     1     -46.599 -53.576  13.824  1.00  0.00    -0.305 NA
HETATM   25  H   UNL     1     -45.994 -54.241  13.321  1.00  0.00     0.124 HD
HETATM   26  H   UNL     1     -47.538 -53.523  13.437  1.00  0.00     0.124 HD
ENDBRANCH   2  24
TORSDOF 8
ENDMDL
MODEL 5
REMARK VINA RESULT:      -5.6      2.368      6.746
REMARK  8 active torsions:
REMARK  status: ('A' for Active; 'I' for Inactive)
REMARK    1  A    between atoms: O_2  and  C_3 
REMARK    2  A    between atoms: C_3  and  C_4 
REMARK    3  A    between atoms: C_4  and  N_5 
REMARK    4  A    between atoms: C_6  and  S_7 
REMARK    5  A    between atoms: S_7  and  C_8 
REMARK    6  A    between atoms: C_8  and  C_9 
REMARK    7  A    between atoms: C_9  and  C_11 
REMARK    8  A    between atoms: C_12  and  N_14 
ROOT
HETATM    1  C   UNL     1     -42.299 -47.455  10.674  1.00  0.00     0.107 C 
HETATM    2  C   UNL     1     -43.434 -47.208   9.968  1.00  0.00     0.004 C 
HETATM    3  C   UNL     1     -43.581 -46.022   9.031  1.00  0.00     0.063 C 
HETATM    4  C   UNL     1     -41.178 -46.578  10.610  1.00  0.00     0.104 C 
HETATM    5  N   UNL     1     -40.266 -45.862  10.592  1.00  0.00    -0.191 NA
ENDROOT
BRANCH   1   6
HETATM    6  C   UNL     1     -42.192 -48.648  11.605  1.00  0.00     0.181 C 
HETATM    7  O   UNL     1     -42.936 -48.735  12.586  1.00  0.00    -0.291 OA
BRANCH   6   8
HETATM    8  C   UNL     1     -41.109 -49.682  11.279  1.00  0.00     0.167 C 
BRANCH   8   9
HETATM    9  S   UNL     1     -40.430 -50.521  12.740  1.00  0.00    -0.086 SA
BRANCH   9  10
HETATM   10  C   UNL     1     -41.591 -51.783  12.999  1.00  0.00     0.148 A 
HETATM   11  N   UNL     1     -41.361 -52.868  13.815  1.00  0.00    -0.324 N 
HETATM   12  C   UNL     1     -42.531 -53.604  13.852  1.00  0.00     0.063 A 
HETATM   13  C   UNL     1     -43.391 -52.931  12.988  1.00  0.00     0.061 A 
HETATM   14  C   UNL     1     -42.915 -54.758  14.550  1.00  0.00     0.032 A 
HETATM   15  N   UNL     1     -42.785 -51.818  12.455  1.00  0.00    -0.335 N 
HETATM   16  C   UNL     1     -44.690 -53.424  12.794  1.00  0.00     0.032 A 
ATOM     17  HN  UNL     1     -43.179 -51.161  11.782  1.00  0.00     0.168 HD
HETATM   18  C   UNL     1     -45.090 -54.579  13.479  1.00  0.00     0.002 A 
HETATM   19  C   UNL     1     -44.213 -55.234  14.341  1.00  0.00     0.002 A 
BRANCH  11  20
HETATM   20  C   UNL     1     -40.184 -53.175  14.603  1.00  0.00     0.157 C 
BRANCH  20  21
HETATM   21  C   UNL     1     -39.271 -54.226  13.971  1.00  0.00     0.187 C 
BRANCH  21  22
HETATM   22  O   UNL     1     -39.107 -55.308  14.895  1.00  0.00    -0.394 OA
HETATM   23  C   UNL     1     -39.538 -54.952  16.205  1.00  0.00     0.201 C 
ENDBRANCH  21  22
ENDBRANCH  20  21
ENDBRANCH  11  20
ENDBRANCH   9  10
ENDBRANCH   8   9
ENDBRANCH   6   8
ENDBRANCH   1   6
BRANCH   2  24
HETATM   24  N   UNL     1     -44.585 -47.988  10.034  1.00  0.00    -0.305 NA
HETATM   25  H   UNL     1     -45.267 -47.656  10.730  1.00  0.00     0.124 HD
HETATM   26  H   UNL     1     -44.433 -48.993  10.076  1.00  0.00     0.124 HD
ENDBRANCH   2  24
TORSDOF 8
ENDMDL
MODEL 6
REMARK VINA RESULT:      -5.5      2.677      6.995
REMARK  8 active torsions:
REMARK  status: ('A' for Active; 'I' for Inactive)
REMARK    1  A    between atoms: O_2  and  C_3 
REMARK    2  A    between atoms: C_3  and  C_4 
REMARK    3  A    between atoms: C_4  and  N_5 
REMARK    4  A    between atoms: C_6  and  S_7 
REMARK    5  A    between atoms: S_7  and  C_8 
REMARK    6  A    between atoms: C_8  and  C_9 
REMARK    7  A    between atoms: C_9  and  C_11 
REMARK    8  A    between atoms: C_12  and  N_14 
ROOT
HETATM    1  C   UNL     1     -41.611 -45.356  11.146  1.00  0.00     0.107 C 
HETATM    2  C   UNL     1     -40.487 -44.673  10.808  1.00  0.00     0.004 C 
HETATM    3  C   UNL     1     -39.821 -43.669  11.732  1.00  0.00     0.063 C 
HETATM    4  C   UNL     1     -42.269 -45.135  12.391  1.00  0.00     0.104 C 
HETATM    5  N   UNL     1     -42.834 -44.949  13.387  1.00  0.00    -0.191 NA
ENDROOT
BRANCH   1   6
HETATM    6  C   UNL     1     -42.251 -46.348  10.193  1.00  0.00     0.181 C 
HETATM    7  O   UNL     1     -42.750 -45.954   9.135  1.00  0.00    -0.291 OA
BRANCH   6   8
HETATM    8  C   UNL     1     -42.269 -47.816  10.635  1.00  0.00     0.167 C 
BRANCH   8   9
HETATM    9  S   UNL     1     -40.694 -48.391  11.335  1.00  0.00    -0.086 SA
BRANCH   9  10
HETATM   10  C   UNL     1     -41.088 -50.009  11.820  1.00  0.00     0.148 A 
HETATM   11  N   UNL     1     -40.149 -50.926  12.232  1.00  0.00    -0.324 N 
HETATM   12  C   UNL     1     -40.833 -52.061  12.626  1.00  0.00     0.063 A 
HETATM   13  C   UNL     1     -42.169 -51.768  12.362  1.00  0.00     0.061 A 
HETATM   14  C   UNL     1     -40.425 -53.280  13.186  1.00  0.00     0.032 A 
HETATM   15  N   UNL     1     -42.305 -50.502  11.847  1.00  0.00    -0.335 N 
HETATM   16  C   UNL     1     -43.151 -52.727  12.655  1.00  0.00     0.032 A 
ATOM     17  HN  UNL     1     -43.166 -50.044  11.548  1.00  0.00     0.168 HD
HETATM   18  C   UNL     1     -42.761 -53.954  13.209  1.00  0.00     0.002 A 
HETATM   19  C   UNL     1     -41.419 -54.224  13.468  1.00  0.00     0.002 A 
BRANCH  11  20
HETATM   20  C   UNL     1     -38.715 -50.757  12.363  1.00  0.00     0.157 C 
BRANCH  20  21
HETATM   21  C   UNL     1     -38.256 -50.431  13.785  1.00  0.00     0.187 C 
BRANCH  21  22
HETATM   22  O   UNL     1     -38.394 -49.021  14.001  1.00  0.00    -0.394 OA
HETATM   23  C   UNL     1     -39.242 -48.738  15.109  1.00  0.00     0.201 C 
ENDBRANCH  21  22
ENDBRANCH  20  21
ENDBRANCH  11  20
ENDBRANCH   9  10
ENDBRANCH   8   9
ENDBRANCH   6   8
ENDBRANCH   1   6
BRANCH   2  24
HETATM   24  N   UNL     1     -39.832 -44.796   9.585  1.00  0.00    -0.305 NA
HETATM   25  H   UNL     1     -39.899 -43.952   8.997  1.00  0.00     0.124 HD
HETATM   26  H   UNL     1     -40.018 -45.653   9.070  1.00  0.00     0.124 HD
ENDBRANCH   2  24
TORSDOF 8
ENDMDL
MODEL 7
REMARK VINA RESULT:      -5.5      2.094      2.867
REMARK  8 active torsions:
REMARK  status: ('A' for Active; 'I' for Inactive)
REMARK    1  A    between atoms: O_2  and  C_3 
REMARK    2  A    between atoms: C_3  and  C_4 
REMARK    3  A    between atoms: C_4  and  N_5 
REMARK    4  A    between atoms: C_6  and  S_7 
REMARK    5  A    between atoms: S_7  and  C_8 
REMARK    6  A    between atoms: C_8  and  C_9 
REMARK    7  A    between atoms: C_9  and  C_11 
REMARK    8  A    between atoms: C_12  and  N_14 
ROOT
HETATM    1  C   UNL     1     -44.495 -53.070  13.820  1.00  0.00     0.107 C 
HETATM    2  C   UNL     1     -45.072 -52.081  13.089  1.00  0.00     0.004 C 
HETATM    3  C   UNL     1     -46.381 -52.264  12.342  1.00  0.00     0.063 C 
HETATM    4  C   UNL     1     -45.068 -54.372  13.893  1.00  0.00     0.104 C 
HETATM    5  N   UNL     1     -45.505 -55.446  13.943  1.00  0.00    -0.191 NA
ENDROOT
BRANCH   1   6
HETATM    6  C   UNL     1     -43.182 -52.850  14.550  1.00  0.00     0.181 C 
HETATM    7  O   UNL     1     -43.016 -51.831  15.225  1.00  0.00    -0.291 OA
BRANCH   6   8
HETATM    8  C   UNL     1     -42.103 -53.922  14.366  1.00  0.00     0.167 C 
BRANCH   8   9
HETATM    9  S   UNL     1     -41.305 -53.890  12.734  1.00  0.00    -0.086 SA
BRANCH   9  10
HETATM   10  C   UNL     1     -41.010 -52.195  12.514  1.00  0.00     0.148 A 
HETATM   11  N   UNL     1     -39.949 -51.530  13.085  1.00  0.00    -0.324 N 
HETATM   12  C   UNL     1     -39.983 -50.230  12.615  1.00  0.00     0.063 A 
HETATM   13  C   UNL     1     -41.125 -50.179  11.820  1.00  0.00     0.061 A 
HETATM   14  C   UNL     1     -39.140 -49.124  12.794  1.00  0.00     0.032 A 
HETATM   15  N   UNL     1     -41.758 -51.399  11.785  1.00  0.00    -0.335 N 
HETATM   16  C   UNL     1     -41.459 -48.977  11.177  1.00  0.00     0.032 A 
ATOM     17  HN  UNL     1     -42.622 -51.634  11.297  1.00  0.00     0.168 HD
HETATM   18  C   UNL     1     -40.631 -47.860  11.349  1.00  0.00     0.002 A 
HETATM   19  C   UNL     1     -39.491 -47.935  12.147  1.00  0.00     0.002 A 
BRANCH  11  20
HETATM   20  C   UNL     1     -38.897 -52.060  13.929  1.00  0.00     0.157 C 
BRANCH  20  21
HETATM   21  C   UNL     1     -39.218 -52.011  15.424  1.00  0.00     0.187 C 
BRANCH  21  22
HETATM   22  O   UNL     1     -38.876 -50.713  15.925  1.00  0.00    -0.394 OA
HETATM   23  C   UNL     1     -37.472 -50.486  15.886  1.00  0.00     0.201 C 
ENDBRANCH  21  22
ENDBRANCH  20  21
ENDBRANCH  11  20
ENDBRANCH   9  10
ENDBRANCH   8   9
ENDBRANCH   6   8
ENDBRANCH   1   6
BRANCH   2  24
HETATM   24  N   UNL     1     -44.533 -50.808  12.925  1.00  0.00    -0.305 NA
HETATM   25  H   UNL     1     -43.508 -50.781  13.023  1.00  0.00     0.124 HD
HETATM   26  H   UNL     1     -44.999 -50.063  13.437  1.00  0.00     0.124 HD
ENDBRANCH   2  24
TORSDOF 8
ENDMDL
MODEL 8
REMARK VINA RESULT:      -5.5      2.390      6.910
REMARK  8 active torsions:
REMARK  status: ('A' for Active; 'I' for Inactive)
REMARK    1  A    between atoms: O_2  and  C_3 
REMARK    2  A    between atoms: C_3  and  C_4 
REMARK    3  A    between atoms: C_4  and  N_5 
REMARK    4  A    between atoms: C_6  and  S_7 
REMARK    5  A    between atoms: S_7  and  C_8 
REMARK    6  A    between atoms: C_8  and  C_9 
REMARK    7  A    between atoms: C_9  and  C_11 
REMARK    8  A    between atoms: C_12  and  N_14 
ROOT
HETATM    1  C   UNL     1     -40.798 -46.794  11.588  1.00  0.00     0.107 C 
HETATM    2  C   UNL     1     -40.803 -45.876  10.587  1.00  0.00     0.004 C 
HETATM    3  C   UNL     1     -39.746 -44.794  10.455  1.00  0.00     0.063 C 
HETATM    4  C   UNL     1     -39.811 -46.769  12.615  1.00  0.00     0.104 C 
HETATM    5  N   UNL     1     -39.033 -46.749  13.475  1.00  0.00    -0.191 NA
ENDROOT
BRANCH   1   6
HETATM    6  C   UNL     1     -41.875 -47.858  11.689  1.00  0.00     0.181 C 
HETATM    7  O   UNL     1     -43.025 -47.544  12.013  1.00  0.00    -0.291 OA
BRANCH   6   8
HETATM    8  C   UNL     1     -41.446 -49.303  11.411  1.00  0.00     0.167 C 
BRANCH   8   9
HETATM    9  S   UNL     1     -41.092 -50.266  12.910  1.00  0.00    -0.086 SA
BRANCH   9  10
HETATM   10  C   UNL     1     -42.610 -51.053  13.197  1.00  0.00     0.148 A 
HETATM   11  N   UNL     1     -42.722 -52.295  13.780  1.00  0.00    -0.324 N 
HETATM   12  C   UNL     1     -44.071 -52.554  13.932  1.00  0.00     0.063 A 
HETATM   13  C   UNL     1     -44.702 -51.450  13.362  1.00  0.00     0.061 A 
HETATM   14  C   UNL     1     -44.784 -53.613  14.511  1.00  0.00     0.032 A 
HETATM   15  N   UNL     1     -43.782 -50.542  12.895  1.00  0.00    -0.335 N 
HETATM   16  C   UNL     1     -46.104 -51.393  13.351  1.00  0.00     0.032 A 
ATOM     17  HN  UNL     1     -43.969 -49.661  12.418  1.00  0.00     0.168 HD
HETATM   18  C   UNL     1     -46.833 -52.445  13.920  1.00  0.00     0.002 A 
HETATM   19  C   UNL     1     -46.181 -53.538  14.488  1.00  0.00     0.002 A 
BRANCH  11  20
HETATM   20  C   UNL     1     -41.669 -53.162  14.271  1.00  0.00     0.157 C 
BRANCH  20  21
HETATM   21  C   UNL     1     -41.011 -54.014  13.184  1.00  0.00     0.187 C 
BRANCH  21  22
HETATM   22  O   UNL     1     -39.589 -53.884  13.296  1.00  0.00    -0.394 OA
HETATM   23  C   UNL     1     -39.081 -54.599  14.417  1.00  0.00     0.201 C 
ENDBRANCH  21  22
ENDBRANCH  20  21
ENDBRANCH  11  20
ENDBRANCH   9  10
ENDBRANCH   8   9
ENDBRANCH   6   8
ENDBRANCH   1   6
BRANCH   2  24
HETATM   24  N   UNL     1     -41.772 -45.806   9.589  1.00  0.00    -0.305 NA
HETATM   25  H   UNL     1     -42.727 -45.683   9.953  1.00  0.00     0.124 HD
HETATM   26  H   UNL     1     -41.712 -46.521   8.867  1.00  0.00     0.124 HD
ENDBRANCH   2  24
TORSDOF 8
ENDMDL
MODEL 9
REMARK VINA RESULT:      -5.4      2.366      3.211
REMARK  8 active torsions:
REMARK  status: ('A' for Active; 'I' for Inactive)
REMARK    1  A    between atoms: O_2  and  C_3 
REMARK    2  A    between atoms: C_3  and  C_4 
REMARK    3  A    between atoms: C_4  and  N_5 
REMARK    4  A    between atoms: C_6  and  S_7 
REMARK    5  A    between atoms: S_7  and  C_8 
REMARK    6  A    between atoms: C_8  and  C_9 
REMARK    7  A    between atoms: C_9  and  C_11 
REMARK    8  A    between atoms: C_12  and  N_14 
ROOT
HETATM    1  C   UNL     1     -44.889 -52.527  13.823  1.00  0.00     0.107 C 
HETATM    2  C   UNL     1     -46.133 -52.748  14.320  1.00  0.00     0.004 C 
HETATM    3  C   UNL     1     -46.996 -51.646  14.906  1.00  0.00     0.063 C 
HETATM    4  C   UNL     1     -44.291 -51.234  13.863  1.00  0.00     0.104 C 
HETATM    5  N   UNL     1     -43.777 -50.195  13.912  1.00  0.00    -0.191 NA
ENDROOT
BRANCH   1   6
HETATM    6  C   UNL     1     -44.054 -53.657  13.248  1.00  0.00     0.181 C 
HETATM    7  O   UNL     1     -44.523 -54.383  12.367  1.00  0.00    -0.291 OA
BRANCH   6   8
HETATM    8  C   UNL     1     -42.655 -53.851  13.842  1.00  0.00     0.167 C 
BRANCH   8   9
HETATM    9  S   UNL     1     -41.326 -53.859  12.603  1.00  0.00    -0.086 SA
BRANCH   9  10
HETATM   10  C   UNL     1     -40.973 -52.168  12.446  1.00  0.00     0.148 A 
HETATM   11  N   UNL     1     -39.958 -51.540  13.130  1.00  0.00    -0.324 N 
HETATM   12  C   UNL     1     -39.917 -50.231  12.686  1.00  0.00     0.063 A 
HETATM   13  C   UNL     1     -40.975 -50.138  11.786  1.00  0.00     0.061 A 
HETATM   14  C   UNL     1     -39.070 -49.149  12.968  1.00  0.00     0.032 A 
HETATM   15  N   UNL     1     -41.628 -51.341  11.665  1.00  0.00    -0.335 N 
HETATM   16  C   UNL     1     -41.218 -48.916  11.139  1.00  0.00     0.032 A 
ATOM     17  HN  UNL     1     -42.446 -51.546  11.092  1.00  0.00     0.168 HD
HETATM   18  C   UNL     1     -40.385 -47.823  11.412  1.00  0.00     0.002 A 
HETATM   19  C   UNL     1     -39.330 -47.940  12.314  1.00  0.00     0.002 A 
BRANCH  11  20
HETATM   20  C   UNL     1     -39.004 -52.111  14.061  1.00  0.00     0.157 C 
BRANCH  20  21
HETATM   21  C   UNL     1     -39.465 -52.078  15.519  1.00  0.00     0.187 C 
BRANCH  21  22
HETATM   22  O   UNL     1     -38.984 -50.873  16.126  1.00  0.00    -0.394 OA
HETATM   23  C   UNL     1     -40.052 -50.018  16.517  1.00  0.00     0.201 C 
ENDBRANCH  21  22
ENDBRANCH  20  21
ENDBRANCH  11  20
ENDBRANCH   9  10
ENDBRANCH   8   9
ENDBRANCH   6   8
ENDBRANCH   1   6
BRANCH   2  24
HETATM   24  N   UNL     1     -46.750 -53.996  14.367  1.00  0.00    -0.305 NA
HETATM   25  H   UNL     1     -47.607 -54.009  14.937  1.00  0.00     0.124 HD
HETATM   26  H   UNL     1     -46.134 -54.784  14.559  1.00  0.00     0.124 HD
ENDBRANCH   2  24
TORSDOF 8
ENDMDL
