MODEL 1
REMARK VINA RESULT:      -6.8      0.000      0.000
REMARK  5 active torsions:
REMARK  status: ('A' for Active; 'I' for Inactive)
REMARK       I    between atoms: C_2  and  N_4 
REMARK    1  A    between atoms: N_4  and  C_5 
REMARK    2  A    between atoms: C_10  and  O_11 
REMARK    3  A    between atoms: O_11  and  C_12 
REMARK    4  A    between atoms: C_12  and  C_13 
REMARK    5  A    between atoms: C_13  and  N_14 
ROOT
HETATM    1  O   UNL     1     -41.353 -51.718  12.764  1.00  0.00    -0.347 OA
ENDROOT
BRANCH   1   2
HETATM    2  C   UNL     1     -40.151 -51.101  12.509  1.00  0.00     0.095 A 
HETATM    3  C   UNL     1     -39.807 -50.149  11.529  1.00  0.00     0.068 A 
HETATM    4  C   UNL     1     -38.474 -49.706  11.434  1.00  0.00     0.032 A 
HETATM    5  C   UNL     1     -37.486 -50.181  12.294  1.00  0.00     0.002 A 
HETATM    6  C   UNL     1     -37.814 -51.130  13.250  1.00  0.00     0.003 A 
HETATM    7  C   UNL     1     -39.132 -51.586  13.351  1.00  0.00     0.039 A 
BRANCH   3   8
HETATM    8  N   UNL     1     -40.742 -49.538  10.668  1.00  0.00    -0.325 N 
HETATM    9  C   UNL     1     -41.391 -48.354  10.972  1.00  0.00     0.218 C 
HETATM   10  C   UNL     1     -42.342 -47.925   9.888  1.00  0.00     0.117 C 
HETATM   11  O   UNL     1     -41.198 -47.663  11.967  1.00  0.00    -0.274 OA
HETATM   12  H   UNL     1     -40.788 -49.852   9.714  1.00  0.00     0.169 HD
ENDBRANCH   3   8
ENDBRANCH   1   2
BRANCH   1  13
HETATM   13  C   UNL     1     -41.415 -52.791  13.695  1.00  0.00     0.196 C 
BRANCH  13  14
HETATM   14  C   UNL     1     -42.339 -53.902  13.190  1.00  0.00     0.161 C 
BRANCH  14  15
HETATM   15  N   UNL     1     -43.549 -53.978  13.980  1.00  0.00    -0.289 N 
HETATM   16  C   UNL     1     -43.757 -54.852  15.029  1.00  0.00     0.373 A 
HETATM   17  O   UNL     1     -42.999 -55.739  15.383  1.00  0.00    -0.237 OA
HETATM   18  O   UNL     1     -44.957 -54.567  15.698  1.00  0.00    -0.259 OA
HETATM   19  C   UNL     1     -45.419 -53.450  15.018  1.00  0.00     0.107 A 
HETATM   20  C   UNL     1     -46.568 -52.752  15.322  1.00  0.00     0.040 A 
HETATM   21  C   UNL     1     -44.587 -53.070  13.982  1.00  0.00     0.073 A 
HETATM   22  C   UNL     1     -46.877 -51.648  14.525  1.00  0.00     0.003 A 
HETATM   23  C   UNL     1     -46.029 -51.265  13.465  1.00  0.00     0.002 A 
HETATM   24  C   UNL     1     -44.857 -51.977  13.187  1.00  0.00     0.033 A 
ENDBRANCH  14  15
ENDBRANCH  13  14
ENDBRANCH   1  13
TORSDOF 5
ENDMDL
MODEL 2
REMARK VINA RESULT:      -6.7      2.290      3.884
REMARK  5 active torsions:
REMARK  status: ('A' for Active; 'I' for Inactive)
REMARK       I    between atoms: C_2  and  N_4 
REMARK    1  A    between atoms: N_4  and  C_5 
REMARK    2  A    between atoms: C_10  and  O_11 
REMARK    3  A    between atoms: O_11  and  C_12 
REMARK    4  A    between atoms: C_12  and  C_13 
REMARK    5  A    between atoms: C_13  and  N_14 
ROOT
HETATM    1  O   UNL     1     -42.012 -49.162  11.410  1.00  0.00    -0.347 OA
ENDROOT
BRANCH   1   2
HETATM    2  C   UNL     1     -41.793 -47.834  11.130  1.00  0.00     0.095 A 
HETATM    3  C   UNL     1     -42.660 -46.864  10.592  1.00  0.00     0.068 A 
HETATM    4  C   UNL     1     -42.174 -45.566  10.341  1.00  0.00     0.032 A 
HETATM    5  C   UNL     1     -40.854 -45.217  10.621  1.00  0.00     0.002 A 
HETATM    6  C   UNL     1     -39.991 -46.171  11.136  1.00  0.00     0.003 A 
HETATM    7  C   UNL     1     -40.457 -47.467  11.382  1.00  0.00     0.039 A 
BRANCH   3   8
HETATM    8  N   UNL     1     -44.032 -47.084  10.355  1.00  0.00    -0.325 N 
HETATM    9  C   UNL     1     -44.538 -47.457   9.122  1.00  0.00     0.218 C 
HETATM   10  C   UNL     1     -46.034 -47.617   9.138  1.00  0.00     0.117 C 
HETATM   11  O   UNL     1     -43.877 -47.704   8.119  1.00  0.00    -0.274 OA
HETATM   12  H   UNL     1     -44.644 -47.180  11.147  1.00  0.00     0.169 HD
ENDBRANCH   3   8
ENDBRANCH   1   2
BRANCH   1  13
HETATM   13  C   UNL     1     -40.921 -50.000  11.770  1.00  0.00     0.196 C 
BRANCH  13  14
HETATM   14  C   UNL     1     -41.166 -50.668  13.125  1.00  0.00     0.161 C 
BRANCH  14  15
HETATM   15  N   UNL     1     -41.874 -51.920  12.973  1.00  0.00    -0.289 N 
HETATM   16  C   UNL     1     -41.278 -53.164  12.893  1.00  0.00     0.373 A 
HETATM   17  O   UNL     1     -40.079 -53.381  12.848  1.00  0.00    -0.237 OA
HETATM   18  O   UNL     1     -42.235 -54.189  12.921  1.00  0.00    -0.259 OA
HETATM   19  C   UNL     1     -43.421 -53.486  13.069  1.00  0.00     0.107 A 
HETATM   20  C   UNL     1     -44.673 -54.051  13.187  1.00  0.00     0.040 A 
HETATM   21  C   UNL     1     -43.232 -52.117  13.110  1.00  0.00     0.073 A 
HETATM   22  C   UNL     1     -45.758 -53.183  13.329  1.00  0.00     0.003 A 
HETATM   23  C   UNL     1     -45.563 -51.787  13.366  1.00  0.00     0.002 A 
HETATM   24  C   UNL     1     -44.281 -51.237  13.263  1.00  0.00     0.033 A 
ENDBRANCH  14  15
ENDBRANCH  13  14
ENDBRANCH   1  13
TORSDOF 5
ENDMDL
MODEL 3
REMARK VINA RESULT:      -6.7      2.499      3.928
REMARK  5 active torsions:
REMARK  status: ('A' for Active; 'I' for Inactive)
REMARK       I    between atoms: C_2  and  N_4 
REMARK    1  A    between atoms: N_4  and  C_5 
REMARK    2  A    between atoms: C_10  and  O_11 
REMARK    3  A    between atoms: O_11  and  C_12 
REMARK    4  A    between atoms: C_12  and  C_13 
REMARK    5  A    between atoms: C_13  and  N_14 
ROOT
HETATM    1  O   UNL     1     -42.365 -49.440  11.760  1.00  0.00    -0.347 OA
ENDROOT
BRANCH   1   2
HETATM    2  C   UNL     1     -41.962 -48.184  11.371  1.00  0.00     0.095 A 
HETATM    3  C   UNL     1     -42.680 -47.157  10.728  1.00  0.00     0.068 A 
HETATM    4  C   UNL     1     -42.017 -45.964  10.379  1.00  0.00     0.032 A 
HETATM    5  C   UNL     1     -40.667 -45.773  10.664  1.00  0.00     0.002 A 
HETATM    6  C   UNL     1     -39.950 -46.785  11.283  1.00  0.00     0.003 A 
HETATM    7  C   UNL     1     -40.593 -47.978  11.627  1.00  0.00     0.039 A 
BRANCH   3   8
HETATM    8  N   UNL     1     -44.065 -47.210  10.473  1.00  0.00    -0.325 N 
HETATM    9  C   UNL     1     -44.597 -47.487   9.225  1.00  0.00     0.218 C 
HETATM   10  C   UNL     1     -46.101 -47.474   9.224  1.00  0.00     0.117 C 
HETATM   11  O   UNL     1     -43.957 -47.781   8.221  1.00  0.00    -0.274 OA
HETATM   12  H   UNL     1     -44.694 -47.258  11.257  1.00  0.00     0.169 HD
ENDBRANCH   3   8
ENDBRANCH   1   2
BRANCH   1  13
HETATM   13  C   UNL     1     -41.466 -50.286  12.465  1.00  0.00     0.196 C 
BRANCH  13  14
HETATM   14  C   UNL     1     -41.275 -51.616  11.731  1.00  0.00     0.161 C 
BRANCH  14  15
HETATM   15  N   UNL     1     -41.429 -52.738  12.630  1.00  0.00    -0.289 N 
HETATM   16  C   UNL     1     -40.433 -53.249  13.439  1.00  0.00     0.373 A 
HETATM   17  O   UNL     1     -39.267 -52.892  13.450  1.00  0.00    -0.237 OA
HETATM   18  O   UNL     1     -40.937 -54.223  14.314  1.00  0.00    -0.259 OA
HETATM   19  C   UNL     1     -42.290 -54.224  14.010  1.00  0.00     0.107 A 
HETATM   20  C   UNL     1     -43.246 -54.999  14.633  1.00  0.00     0.040 A 
HETATM   21  C   UNL     1     -42.615 -53.335  13.003  1.00  0.00     0.073 A 
HETATM   22  C   UNL     1     -44.564 -54.867  14.193  1.00  0.00     0.003 A 
HETATM   23  C   UNL     1     -44.893 -53.963  13.162  1.00  0.00     0.002 A 
HETATM   24  C   UNL     1     -43.909 -53.173  12.557  1.00  0.00     0.033 A 
ENDBRANCH  14  15
ENDBRANCH  13  14
ENDBRANCH   1  13
TORSDOF 5
ENDMDL
MODEL 4
REMARK VINA RESULT:      -6.4      2.187      6.786
REMARK  5 active torsions:
REMARK  status: ('A' for Active; 'I' for Inactive)
REMARK       I    between atoms: C_2  and  N_4 
REMARK    1  A    between atoms: N_4  and  C_5 
REMARK    2  A    between atoms: C_10  and  O_11 
REMARK    3  A    between atoms: O_11  and  C_12 
REMARK    4  A    between atoms: C_12  and  C_13 
REMARK    5  A    between atoms: C_13  and  N_14 
ROOT
HETATM    1  O   UNL     1     -42.514 -51.726  12.215  1.00  0.00    -0.347 OA
ENDROOT
BRANCH   1   2
HETATM    2  C   UNL     1     -43.088 -52.786  12.877  1.00  0.00     0.095 A 
HETATM    3  C   UNL     1     -44.417 -53.253  12.865  1.00  0.00     0.068 A 
HETATM    4  C   UNL     1     -44.774 -54.339  13.687  1.00  0.00     0.032 A 
HETATM    5  C   UNL     1     -43.840 -54.969  14.507  1.00  0.00     0.002 A 
HETATM    6  C   UNL     1     -42.535 -54.504  14.536  1.00  0.00     0.003 A 
HETATM    7  C   UNL     1     -42.167 -53.421  13.731  1.00  0.00     0.039 A 
BRANCH   3   8
HETATM    8  N   UNL     1     -45.418 -52.748  12.010  1.00  0.00    -0.325 N 
HETATM    9  C   UNL     1     -46.412 -51.883  12.435  1.00  0.00     0.218 C 
HETATM   10  C   UNL     1     -47.357 -51.505  11.327  1.00  0.00     0.117 C 
HETATM   11  O   UNL     1     -46.514 -51.402  13.559  1.00  0.00    -0.274 OA
HETATM   12  H   UNL     1     -45.291 -52.845  11.017  1.00  0.00     0.169 HD
ENDBRANCH   3   8
ENDBRANCH   1   2
BRANCH   1  13
HETATM   13  C   UNL     1     -41.377 -51.077  12.769  1.00  0.00     0.196 C 
BRANCH  13  14
HETATM   14  C   UNL     1     -40.494 -50.484  11.668  1.00  0.00     0.161 C 
BRANCH  14  15
HETATM   15  N   UNL     1     -40.372 -49.050  11.808  1.00  0.00    -0.289 N 
HETATM   16  C   UNL     1     -39.330 -48.400  12.441  1.00  0.00     0.373 A 
HETATM   17  O   UNL     1     -38.417 -48.935  13.048  1.00  0.00    -0.237 OA
HETATM   18  O   UNL     1     -39.412 -47.011  12.262  1.00  0.00    -0.259 OA
HETATM   19  C   UNL     1     -40.529 -46.881  11.451  1.00  0.00     0.107 A 
HETATM   20  C   UNL     1     -41.018 -45.692  10.952  1.00  0.00     0.040 A 
HETATM   21  C   UNL     1     -41.123 -48.094  11.156  1.00  0.00     0.073 A 
HETATM   22  C   UNL     1     -42.158 -45.754  10.148  1.00  0.00     0.003 A 
HETATM   23  C   UNL     1     -42.765 -46.992   9.853  1.00  0.00     0.002 A 
HETATM   24  C   UNL     1     -42.240 -48.188  10.355  1.00  0.00     0.033 A 
ENDBRANCH  14  15
ENDBRANCH  13  14
ENDBRANCH   1  13
TORSDOF 5
ENDMDL
MODEL 5
REMARK VINA RESULT:      -6.3      2.035      6.644
REMARK  5 active torsions:
REMARK  status: ('A' for Active; 'I' for Inactive)
REMARK       I    between atoms: C_2  and  N_4 
REMARK    1  A    between atoms: N_4  and  C_5 
REMARK    2  A    between atoms: C_10  and  O_11 
REMARK    3  A    between atoms: O_11  and  C_12 
REMARK    4  A    between atoms: C_12  and  C_13 
REMARK    5  A    between atoms: C_13  and  N_14 
ROOT
HETATM    1  O   UNL     1     -43.940 -54.433  14.275  1.00  0.00    -0.347 OA
ENDROOT
BRANCH   1   2
HETATM    2  C   UNL     1     -44.837 -53.396  14.185  1.00  0.00     0.095 A 
HETATM    3  C   UNL     1     -45.394 -52.584  15.192  1.00  0.00     0.068 A 
HETATM    4  C   UNL     1     -46.350 -51.611  14.846  1.00  0.00     0.032 A 
HETATM    5  C   UNL     1     -46.754 -51.425  13.526  1.00  0.00     0.002 A 
HETATM    6  C   UNL     1     -46.223 -52.231  12.531  1.00  0.00     0.003 A 
HETATM    7  C   UNL     1     -45.278 -53.208  12.861  1.00  0.00     0.039 A 
BRANCH   3   8
HETATM    8  N   UNL     1     -44.993 -52.627  16.544  1.00  0.00    -0.325 N 
HETATM    9  C   UNL     1     -45.339 -53.653  17.405  1.00  0.00     0.218 C 
HETATM   10  C   UNL     1     -44.791 -53.451  18.792  1.00  0.00     0.117 C 
HETATM   11  O   UNL     1     -45.964 -54.665  17.104  1.00  0.00    -0.274 OA
HETATM   12  H   UNL     1     -44.259 -52.007  16.844  1.00  0.00     0.169 HD
ENDBRANCH   3   8
ENDBRANCH   1   2
BRANCH   1  13
HETATM   13  C   UNL     1     -42.609 -54.262  13.806  1.00  0.00     0.196 C 
BRANCH  13  14
HETATM   14  C   UNL     1     -41.863 -53.219  14.642  1.00  0.00     0.161 C 
BRANCH  14  15
HETATM   15  N   UNL     1     -41.139 -52.291  13.801  1.00  0.00    -0.289 N 
HETATM   16  C   UNL     1     -39.880 -52.510  13.279  1.00  0.00     0.373 A 
HETATM   17  O   UNL     1     -39.161 -53.466  13.519  1.00  0.00    -0.237 OA
HETATM   18  O   UNL     1     -39.522 -51.503  12.370  1.00  0.00    -0.259 OA
HETATM   19  C   UNL     1     -40.657 -50.705  12.350  1.00  0.00     0.107 A 
HETATM   20  C   UNL     1     -40.827 -49.582  11.568  1.00  0.00     0.040 A 
HETATM   21  C   UNL     1     -41.649 -51.160  13.198  1.00  0.00     0.073 A 
HETATM   22  C   UNL     1     -42.041 -48.902  11.679  1.00  0.00     0.003 A 
HETATM   23  C   UNL     1     -43.050 -49.365  12.549  1.00  0.00     0.002 A 
HETATM   24  C   UNL     1     -42.862 -50.519  13.319  1.00  0.00     0.033 A 
ENDBRANCH  14  15
ENDBRANCH  13  14
ENDBRANCH   1  13
TORSDOF 5
ENDMDL
MODEL 6
REMARK VINA RESULT:      -6.3      2.400      6.701
REMARK  5 active torsions:
REMARK  status: ('A' for Active; 'I' for Inactive)
REMARK       I    between atoms: C_2  and  N_4 
REMARK    1  A    between atoms: N_4  and  C_5 
REMARK    2  A    between atoms: C_10  and  O_11 
REMARK    3  A    between atoms: O_11  and  C_12 
REMARK    4  A    between atoms: C_12  and  C_13 
REMARK    5  A    between atoms: C_13  and  N_14 
ROOT
HETATM    1  O   UNL     1     -42.305 -52.254  11.947  1.00  0.00    -0.347 OA
ENDROOT
BRANCH   1   2
HETATM    2  C   UNL     1     -42.942 -53.141  12.783  1.00  0.00     0.095 A 
HETATM    3  C   UNL     1     -44.314 -53.424  12.933  1.00  0.00     0.068 A 
HETATM    4  C   UNL     1     -44.726 -54.347  13.913  1.00  0.00     0.032 A 
HETATM    5  C   UNL     1     -43.806 -54.994  14.735  1.00  0.00     0.002 A 
HETATM    6  C   UNL     1     -42.456 -54.708  14.604  1.00  0.00     0.003 A 
HETATM    7  C   UNL     1     -42.032 -53.788  13.640  1.00  0.00     0.039 A 
BRANCH   3   8
HETATM    8  N   UNL     1     -45.319 -52.894  12.098  1.00  0.00    -0.325 N 
HETATM    9  C   UNL     1     -46.240 -51.953  12.523  1.00  0.00     0.218 C 
HETATM   10  C   UNL     1     -47.208 -51.563  11.439  1.00  0.00     0.117 C 
HETATM   11  O   UNL     1     -46.264 -51.419  13.628  1.00  0.00    -0.274 OA
HETATM   12  H   UNL     1     -45.242 -53.041  11.105  1.00  0.00     0.169 HD
ENDBRANCH   3   8
ENDBRANCH   1   2
BRANCH   1  13
HETATM   13  C   UNL     1     -41.920 -50.975  12.433  1.00  0.00     0.196 C 
BRANCH  13  14
HETATM   14  C   UNL     1     -40.634 -50.495  11.754  1.00  0.00     0.161 C 
BRANCH  14  15
HETATM   15  N   UNL     1     -39.659 -50.055  12.727  1.00  0.00    -0.289 N 
HETATM   16  C   UNL     1     -38.668 -50.848  13.272  1.00  0.00     0.373 A 
HETATM   17  O   UNL     1     -38.525 -52.045  13.086  1.00  0.00    -0.237 OA
HETATM   18  O   UNL     1     -37.781 -50.090  14.052  1.00  0.00    -0.259 OA
HETATM   19  C   UNL     1     -38.275 -48.804  13.899  1.00  0.00     0.107 A 
HETATM   20  C   UNL     1     -37.721 -47.667  14.450  1.00  0.00     0.040 A 
HETATM   21  C   UNL     1     -39.402 -48.752  13.101  1.00  0.00     0.073 A 
HETATM   22  C   UNL     1     -38.357 -46.452  14.187  1.00  0.00     0.003 A 
HETATM   23  C   UNL     1     -39.510 -46.403  13.376  1.00  0.00     0.002 A 
HETATM   24  C   UNL     1     -40.043 -47.567  12.812  1.00  0.00     0.033 A 
ENDBRANCH  14  15
ENDBRANCH  13  14
ENDBRANCH   1  13
TORSDOF 5
ENDMDL
MODEL 7
REMARK VINA RESULT:      -6.3      1.430      1.625
REMARK  5 active torsions:
REMARK  status: ('A' for Active; 'I' for Inactive)
REMARK       I    between atoms: C_2  and  N_4 
REMARK    1  A    between atoms: N_4  and  C_5 
REMARK    2  A    between atoms: C_10  and  O_11 
REMARK    3  A    between atoms: O_11  and  C_12 
REMARK    4  A    between atoms: C_12  and  C_13 
REMARK    5  A    between atoms: C_13  and  N_14 
ROOT
HETATM    1  O   UNL     1     -41.510 -51.171  13.189  1.00  0.00    -0.347 OA
ENDROOT
BRANCH   1   2
HETATM    2  C   UNL     1     -40.256 -50.802  12.762  1.00  0.00     0.095 A 
HETATM    3  C   UNL     1     -39.860 -50.091  11.613  1.00  0.00     0.068 A 
HETATM    4  C   UNL     1     -38.488 -49.886  11.366  1.00  0.00     0.032 A 
HETATM    5  C   UNL     1     -37.513 -50.364  12.239  1.00  0.00     0.002 A 
HETATM    6  C   UNL     1     -37.896 -51.078  13.364  1.00  0.00     0.003 A 
HETATM    7  C   UNL     1     -39.254 -51.297  13.617  1.00  0.00     0.039 A 
BRANCH   3   8
HETATM    8  N   UNL     1     -40.763 -49.489  10.713  1.00  0.00    -0.325 N 
HETATM    9  C   UNL     1     -41.371 -48.269  10.951  1.00  0.00     0.218 C 
HETATM   10  C   UNL     1     -42.296 -47.860   9.836  1.00  0.00     0.117 C 
HETATM   11  O   UNL     1     -41.163 -47.538  11.914  1.00  0.00    -0.274 OA
HETATM   12  H   UNL     1     -40.811 -49.848   9.774  1.00  0.00     0.169 HD
ENDBRANCH   3   8
ENDBRANCH   1   2
BRANCH   1  13
HETATM   13  C   UNL     1     -42.093 -52.378  12.717  1.00  0.00     0.196 C 
BRANCH  13  14
HETATM   14  C   UNL     1     -42.699 -53.182  13.869  1.00  0.00     0.161 C 
BRANCH  14  15
HETATM   15  N   UNL     1     -44.122 -52.947  13.982  1.00  0.00    -0.289 N 
HETATM   16  C   UNL     1     -45.100 -53.662  13.320  1.00  0.00     0.373 A 
HETATM   17  O   UNL     1     -44.909 -54.528  12.482  1.00  0.00    -0.237 OA
HETATM   18  O   UNL     1     -46.382 -53.308  13.766  1.00  0.00    -0.259 OA
HETATM   19  C   UNL     1     -46.105 -52.381  14.759  1.00  0.00     0.107 A 
HETATM   20  C   UNL     1     -47.046 -51.750  15.545  1.00  0.00     0.040 A 
HETATM   21  C   UNL     1     -44.751 -52.149  14.915  1.00  0.00     0.073 A 
HETATM   22  C   UNL     1     -46.581 -50.842  16.499  1.00  0.00     0.003 A 
HETATM   23  C   UNL     1     -45.200 -50.603  16.652  1.00  0.00     0.002 A 
HETATM   24  C   UNL     1     -44.261 -51.270  15.857  1.00  0.00     0.033 A 
ENDBRANCH  14  15
ENDBRANCH  13  14
ENDBRANCH   1  13
TORSDOF 5
ENDMDL
MODEL 8
REMARK VINA RESULT:      -6.1      2.251      6.612
REMARK  5 active torsions:
REMARK  status: ('A' for Active; 'I' for Inactive)
REMARK       I    between atoms: C_2  and  N_4 
REMARK    1  A    between atoms: N_4  and  C_5 
REMARK    2  A    between atoms: C_10  and  O_11 
REMARK    3  A    between atoms: O_11  and  C_12 
REMARK    4  A    between atoms: C_12  and  C_13 
REMARK    5  A    between atoms: C_13  and  N_14 
ROOT
HETATM    1  O   UNL     1     -41.852 -51.086  11.854  1.00  0.00    -0.347 OA
ENDROOT
BRANCH   1   2
HETATM    2  C   UNL     1     -41.915 -52.184  12.679  1.00  0.00     0.095 A 
HETATM    3  C   UNL     1     -42.916 -52.585  13.585  1.00  0.00     0.068 A 
HETATM    4  C   UNL     1     -42.718 -53.736  14.370  1.00  0.00     0.032 A 
HETATM    5  C   UNL     1     -41.554 -54.496  14.266  1.00  0.00     0.002 A 
HETATM    6  C   UNL     1     -40.557 -54.098  13.388  1.00  0.00     0.003 A 
HETATM    7  C   UNL     1     -40.737 -52.952  12.608  1.00  0.00     0.039 A 
BRANCH   3   8
HETATM    8  N   UNL     1     -44.166 -51.942  13.706  1.00  0.00    -0.325 N 
HETATM    9  C   UNL     1     -45.290 -52.330  12.998  1.00  0.00     0.218 C 
HETATM   10  C   UNL     1     -46.488 -51.474  13.306  1.00  0.00     0.117 C 
HETATM   11  O   UNL     1     -45.367 -53.296  12.245  1.00  0.00    -0.274 OA
HETATM   12  H   UNL     1     -44.308 -51.318  14.483  1.00  0.00     0.169 HD
ENDBRANCH   3   8
ENDBRANCH   1   2
BRANCH   1  13
HETATM   13  C   UNL     1     -41.027 -49.983  12.204  1.00  0.00     0.196 C 
BRANCH  13  14
HETATM   14  C   UNL     1     -41.866 -48.820  12.740  1.00  0.00     0.161 C 
BRANCH  14  15
HETATM   15  N   UNL     1     -41.902 -47.721  11.800  1.00  0.00    -0.289 N 
HETATM   16  C   UNL     1     -40.833 -46.899  11.499  1.00  0.00     0.373 A 
HETATM   17  O   UNL     1     -39.740 -46.919  12.040  1.00  0.00    -0.237 OA
HETATM   18  O   UNL     1     -41.136 -46.041  10.431  1.00  0.00    -0.259 OA
HETATM   19  C   UNL     1     -42.421 -46.434  10.089  1.00  0.00     0.107 A 
HETATM   20  C   UNL     1     -43.165 -45.909   9.052  1.00  0.00     0.040 A 
HETATM   21  C   UNL     1     -42.905 -47.448  10.893  1.00  0.00     0.073 A 
HETATM   22  C   UNL     1     -44.445 -46.430   8.855  1.00  0.00     0.003 A 
HETATM   23  C   UNL     1     -44.938 -47.461   9.680  1.00  0.00     0.002 A 
HETATM   24  C   UNL     1     -44.158 -47.991  10.714  1.00  0.00     0.033 A 
ENDBRANCH  14  15
ENDBRANCH  13  14
ENDBRANCH   1  13
TORSDOF 5
ENDMDL
MODEL 9
REMARK VINA RESULT:      -6.1      1.967      3.928
REMARK  5 active torsions:
REMARK  status: ('A' for Active; 'I' for Inactive)
REMARK       I    between atoms: C_2  and  N_4 
REMARK    1  A    between atoms: N_4  and  C_5 
REMARK    2  A    between atoms: C_10  and  O_11 
REMARK    3  A    between atoms: O_11  and  C_12 
REMARK    4  A    between atoms: C_12  and  C_13 
REMARK    5  A    between atoms: C_13  and  N_14 
ROOT
HETATM    1  O   UNL     1     -42.426 -48.780  11.496  1.00  0.00    -0.347 OA
ENDROOT
BRANCH   1   2
HETATM    2  C   UNL     1     -41.777 -47.602  11.211  1.00  0.00     0.095 A 
HETATM    3  C   UNL     1     -40.400 -47.320  11.122  1.00  0.00     0.068 A 
HETATM    4  C   UNL     1     -39.979 -46.000  10.870  1.00  0.00     0.032 A 
HETATM    5  C   UNL     1     -40.896 -44.965  10.698  1.00  0.00     0.002 A 
HETATM    6  C   UNL     1     -42.252 -45.232  10.800  1.00  0.00     0.003 A 
HETATM    7  C   UNL     1     -42.685 -46.537  11.058  1.00  0.00     0.039 A 
BRANCH   3   8
HETATM    8  N   UNL     1     -39.392 -48.304  11.193  1.00  0.00    -0.325 N 
HETATM    9  C   UNL     1     -38.872 -48.773  12.387  1.00  0.00     0.218 C 
HETATM   10  C   UNL     1     -37.804 -49.813  12.180  1.00  0.00     0.117 C 
HETATM   11  O   UNL     1     -39.252 -48.457  13.509  1.00  0.00    -0.274 OA
HETATM   12  H   UNL     1     -39.188 -48.838  10.365  1.00  0.00     0.169 HD
ENDBRANCH   3   8
ENDBRANCH   1   2
BRANCH   1  13
HETATM   13  C   UNL     1     -43.046 -48.959  12.762  1.00  0.00     0.196 C 
BRANCH  13  14
HETATM   14  C   UNL     1     -42.477 -50.185  13.483  1.00  0.00     0.161 C 
BRANCH  14  15
HETATM   15  N   UNL     1     -43.229 -51.378  13.162  1.00  0.00    -0.289 N 
HETATM   16  C   UNL     1     -42.743 -52.451  12.439  1.00  0.00     0.373 A 
HETATM   17  O   UNL     1     -41.654 -52.512  11.893  1.00  0.00    -0.237 OA
HETATM   18  O   UNL     1     -43.652 -53.520  12.442  1.00  0.00    -0.259 OA
HETATM   19  C   UNL     1     -44.676 -53.038  13.244  1.00  0.00     0.107 A 
HETATM   20  C   UNL     1     -45.811 -53.739  13.594  1.00  0.00     0.040 A 
HETATM   21  C   UNL     1     -44.444 -51.752  13.696  1.00  0.00     0.073 A 
HETATM   22  C   UNL     1     -46.737 -53.090  14.412  1.00  0.00     0.003 A 
HETATM   23  C   UNL     1     -46.501 -51.777  14.868  1.00  0.00     0.002 A 
HETATM   24  C   UNL     1     -45.333 -51.092  14.516  1.00  0.00     0.033 A 
ENDBRANCH  14  15
ENDBRANCH  13  14
ENDBRANCH   1  13
TORSDOF 5
ENDMDL
