MODEL 1
REMARK VINA RESULT:      -7.3      0.000      0.000
REMARK  4 active torsions:
REMARK  status: ('A' for Active; 'I' for Inactive)
REMARK    1  A    between atoms: C_2  and  N_3 
REMARK    2  A    between atoms: C_7  and  N_9 
REMARK       I    between atoms: N_9  and  C_10 
REMARK       I    between atoms: C_10  and  N_12 
REMARK    3  A    between atoms: N_12  and  C_13 
REMARK    4  A    between atoms: C_15  and  C_20 
ROOT
HETATM    1  N   UNL     1     -39.974 -48.591  11.220  1.00  0.00    -0.337 N 
HETATM    2  C   UNL     1     -41.256 -48.110  11.180  1.00  0.00     0.321 C 
HETATM    3  O   UNL     1     -41.991 -48.120  12.161  1.00  0.00    -0.247 OA
HETATM    4  N   UNL     1     -41.629 -47.638   9.941  1.00  0.00    -0.304 N 
HETATM    5  H   UNL     1     -39.398 -48.569  10.391  1.00  0.00     0.164 HD
HETATM    6  H   UNL     1     -41.310 -48.210   9.165  1.00  0.00     0.171 HD
ENDROOT
BRANCH   4   7
HETATM    7  C   UNL     1     -42.896 -47.111   9.761  1.00  0.00     0.105 A 
HETATM    8  C   UNL     1     -43.992 -47.855   9.537  1.00  0.00     0.052 A 
HETATM    9  C   UNL     1     -45.262 -47.257   9.159  1.00  0.00     0.065 A 
HETATM   10  C   UNL     1     -45.325 -45.920   9.027  1.00  0.00     0.107 A 
HETATM   11  N   UNL     1     -44.233 -45.129   9.297  1.00  0.00    -0.331 N 
HETATM   12  C   UNL     1     -43.012 -45.616   9.704  1.00  0.00     0.272 A 
HETATM   13  H   UNL     1     -44.293 -44.124   9.190  1.00  0.00     0.168 HD
HETATM   14  O   UNL     1     -42.052 -44.893   9.960  1.00  0.00    -0.266 OA
BRANCH   9  15
HETATM   15  C   UNL     1     -46.434 -48.149   8.864  1.00  0.00     0.418 C 
HETATM   16  F   UNL     1     -46.384 -48.716   7.629  1.00  0.00    -0.166 F 
HETATM   17  F   UNL     1     -46.511 -49.173   9.753  1.00  0.00    -0.166 F 
HETATM   18  F   UNL     1     -47.610 -47.477   8.942  1.00  0.00    -0.166 F 
ENDBRANCH   9  15
ENDBRANCH   4   7
BRANCH   1  19
HETATM   19  C   UNL     1     -39.506 -49.248  12.432  1.00  0.00     0.114 C 
HETATM   20  C   UNL     1     -38.656 -48.317  13.294  1.00  0.00     0.029 C 
HETATM   21  C   UNL     1     -38.162 -49.062  14.535  1.00  0.00     0.032 C 
HETATM   22  C   UNL     1     -37.455 -50.367  14.158  1.00  0.00     0.272 C 
HETATM   23  N   UNL     1     -38.263 -51.273  13.328  1.00  0.00     0.090 N 
HETATM   24  C   UNL     1     -38.740 -50.558  12.123  1.00  0.00     0.297 C 
BRANCH  23  25
HETATM   25  C   UNL     1     -39.391 -51.905  14.035  1.00  0.00     0.268 C 
HETATM   26  C   UNL     1     -39.306 -53.426  14.122  1.00  0.00     0.037 C 
ENDBRANCH  23  25
ENDBRANCH   1  19
TORSDOF 4
ENDMDL
MODEL 2
REMARK VINA RESULT:      -7.0      4.016      5.361
REMARK  4 active torsions:
REMARK  status: ('A' for Active; 'I' for Inactive)
REMARK    1  A    between atoms: C_2  and  N_3 
REMARK    2  A    between atoms: C_7  and  N_9 
REMARK       I    between atoms: N_9  and  C_10 
REMARK       I    between atoms: C_10  and  N_12 
REMARK    3  A    between atoms: N_12  and  C_13 
REMARK    4  A    between atoms: C_15  and  C_20 
ROOT
HETATM    1  N   UNL     1     -42.267 -52.167  12.403  1.00  0.00    -0.337 N 
HETATM    2  C   UNL     1     -42.313 -50.801  12.313  1.00  0.00     0.321 C 
HETATM    3  O   UNL     1     -43.050 -50.122  13.019  1.00  0.00    -0.247 OA
HETATM    4  N   UNL     1     -41.471 -50.283  11.353  1.00  0.00    -0.304 N 
HETATM    5  H   UNL     1     -41.649 -52.694  11.802  1.00  0.00     0.164 HD
HETATM    6  H   UNL     1     -41.448 -50.817  10.489  1.00  0.00     0.171 HD
ENDROOT
BRANCH   4   7
HETATM    7  C   UNL     1     -41.409 -48.913  11.163  1.00  0.00     0.105 A 
HETATM    8  C   UNL     1     -42.377 -48.193  10.571  1.00  0.00     0.052 A 
HETATM    9  C   UNL     1     -42.187 -46.797  10.216  1.00  0.00     0.065 A 
HETATM   10  C   UNL     1     -41.000 -46.224  10.488  1.00  0.00     0.107 A 
HETATM   11  N   UNL     1     -40.009 -46.921  11.138  1.00  0.00    -0.331 N 
HETATM   12  C   UNL     1     -40.129 -48.229  11.546  1.00  0.00     0.272 A 
HETATM   13  H   UNL     1     -39.119 -46.478  11.332  1.00  0.00     0.168 HD
HETATM   14  O   UNL     1     -39.240 -48.831  12.143  1.00  0.00    -0.266 OA
BRANCH   9  15
HETATM   15  C   UNL     1     -43.287 -46.066   9.501  1.00  0.00     0.418 C 
HETATM   16  F   UNL     1     -44.516 -46.614   9.695  1.00  0.00    -0.166 F 
HETATM   17  F   UNL     1     -43.373 -44.775   9.916  1.00  0.00    -0.166 F 
HETATM   18  F   UNL     1     -43.078 -46.029   8.161  1.00  0.00    -0.166 F 
ENDBRANCH   9  15
ENDBRANCH   4   7
BRANCH   1  19
HETATM   19  C   UNL     1     -43.210 -52.847  13.278  1.00  0.00     0.114 C 
HETATM   20  C   UNL     1     -42.652 -54.170  13.801  1.00  0.00     0.029 C 
HETATM   21  C   UNL     1     -43.690 -54.860  14.686  1.00  0.00     0.032 C 
HETATM   22  C   UNL     1     -45.034 -55.001  13.964  1.00  0.00     0.272 C 
HETATM   23  N   UNL     1     -45.583 -53.735  13.457  1.00  0.00     0.090 N 
HETATM   24  C   UNL     1     -44.583 -53.064  12.596  1.00  0.00     0.297 C 
BRANCH  23  25
HETATM   25  C   UNL     1     -46.063 -52.814  14.503  1.00  0.00     0.268 C 
HETATM   26  C   UNL     1     -46.580 -51.479  13.977  1.00  0.00     0.037 C 
ENDBRANCH  23  25
ENDBRANCH   1  19
TORSDOF 4
ENDMDL
MODEL 3
REMARK VINA RESULT:      -7.0      2.053      3.010
REMARK  4 active torsions:
REMARK  status: ('A' for Active; 'I' for Inactive)
REMARK    1  A    between atoms: C_2  and  N_3 
REMARK    2  A    between atoms: C_7  and  N_9 
REMARK       I    between atoms: N_9  and  C_10 
REMARK       I    between atoms: C_10  and  N_12 
REMARK    3  A    between atoms: N_12  and  C_13 
REMARK    4  A    between atoms: C_15  and  C_20 
ROOT
HETATM    1  N   UNL     1     -40.129 -51.044  11.874  1.00  0.00    -0.337 N 
HETATM    2  C   UNL     1     -40.928 -49.932  11.846  1.00  0.00     0.321 C 
HETATM    3  O   UNL     1     -41.671 -49.635  12.775  1.00  0.00    -0.247 OA
HETATM    4  N   UNL     1     -40.820 -49.205  10.681  1.00  0.00    -0.304 N 
HETATM    5  H   UNL     1     -39.531 -51.258  11.090  1.00  0.00     0.164 HD
HETATM    6  H   UNL     1     -40.765 -49.774   9.841  1.00  0.00     0.171 HD
ENDROOT
BRANCH   4   7
HETATM    7  C   UNL     1     -41.564 -48.049  10.523  1.00  0.00     0.105 A 
HETATM    8  C   UNL     1     -42.811 -48.022  10.023  1.00  0.00     0.052 A 
HETATM    9  C   UNL     1     -43.479 -46.774   9.692  1.00  0.00     0.065 A 
HETATM   10  C   UNL     1     -42.814 -45.621   9.891  1.00  0.00     0.107 A 
HETATM   11  N   UNL     1     -41.558 -45.615  10.448  1.00  0.00    -0.331 N 
HETATM   12  C   UNL     1     -40.879 -46.750  10.830  1.00  0.00     0.272 A 
HETATM   13  H   UNL     1     -41.067 -44.740  10.589  1.00  0.00     0.168 HD
HETATM   14  O   UNL     1     -39.764 -46.724  11.344  1.00  0.00    -0.266 OA
BRANCH   9  15
HETATM   15  C   UNL     1     -44.849 -46.815   9.079  1.00  0.00     0.418 C 
HETATM   16  F   UNL     1     -45.309 -45.594   8.700  1.00  0.00    -0.166 F 
HETATM   17  F   UNL     1     -44.869 -47.595   7.966  1.00  0.00    -0.166 F 
HETATM   18  F   UNL     1     -45.767 -47.336   9.933  1.00  0.00    -0.166 F 
ENDBRANCH   9  15
ENDBRANCH   4   7
BRANCH   1  19
HETATM   19  C   UNL     1     -40.254 -51.973  12.988  1.00  0.00     0.114 C 
HETATM   20  C   UNL     1     -38.949 -52.105  13.771  1.00  0.00     0.029 C 
HETATM   21  C   UNL     1     -39.121 -53.114  14.907  1.00  0.00     0.032 C 
HETATM   22  C   UNL     1     -39.666 -54.449  14.389  1.00  0.00     0.272 C 
HETATM   23  N   UNL     1     -40.923 -54.336  13.635  1.00  0.00     0.090 N 
HETATM   24  C   UNL     1     -40.761 -53.363  12.531  1.00  0.00     0.297 C 
BRANCH  23  25
HETATM   25  C   UNL     1     -42.100 -53.994  14.455  1.00  0.00     0.268 C 
HETATM   26  C   UNL     1     -43.438 -54.215  13.757  1.00  0.00     0.037 C 
ENDBRANCH  23  25
ENDBRANCH   1  19
TORSDOF 4
ENDMDL
MODEL 4
REMARK VINA RESULT:      -6.9      4.167      6.997
REMARK  4 active torsions:
REMARK  status: ('A' for Active; 'I' for Inactive)
REMARK    1  A    between atoms: C_2  and  N_3 
REMARK    2  A    between atoms: C_7  and  N_9 
REMARK       I    between atoms: N_9  and  C_10 
REMARK       I    between atoms: C_10  and  N_12 
REMARK    3  A    between atoms: N_12  and  C_13 
REMARK    4  A    between atoms: C_15  and  C_20 
ROOT
HETATM    1  N   UNL     1     -41.463 -50.048  11.115  1.00  0.00    -0.337 N 
HETATM    2  C   UNL     1     -41.883 -50.904  12.097  1.00  0.00     0.321 C 
HETATM    3  O   UNL     1     -42.207 -50.512  13.213  1.00  0.00    -0.247 OA
HETATM    4  N   UNL     1     -41.888 -52.226  11.712  1.00  0.00    -0.304 N 
HETATM    5  H   UNL     1     -41.201 -50.407  10.208  1.00  0.00     0.164 HD
HETATM    6  H   UNL     1     -41.085 -52.499  11.154  1.00  0.00     0.171 HD
ENDROOT
BRANCH   4   7
HETATM    7  C   UNL     1     -42.303 -53.199  12.605  1.00  0.00     0.105 A 
HETATM    8  C   UNL     1     -43.589 -53.526  12.814  1.00  0.00     0.052 A 
HETATM    9  C   UNL     1     -43.991 -54.408  13.896  1.00  0.00     0.065 A 
HETATM   10  C   UNL     1     -43.038 -54.899  14.709  1.00  0.00     0.107 A 
HETATM   11  N   UNL     1     -41.709 -54.623  14.489  1.00  0.00    -0.331 N 
HETATM   12  C   UNL     1     -41.247 -53.835  13.460  1.00  0.00     0.272 A 
HETATM   13  H   UNL     1     -41.002 -54.995  15.111  1.00  0.00     0.168 HD
HETATM   14  O   UNL     1     -40.054 -53.614  13.268  1.00  0.00    -0.266 OA
BRANCH   9  15
HETATM   15  C   UNL     1     -45.452 -54.685  14.113  1.00  0.00     0.418 C 
HETATM   16  F   UNL     1     -45.838 -55.917  13.686  1.00  0.00    -0.166 F 
HETATM   17  F   UNL     1     -45.777 -54.616  15.430  1.00  0.00    -0.166 F 
HETATM   18  F   UNL     1     -46.235 -53.781  13.471  1.00  0.00    -0.166 F 
ENDBRANCH   9  15
ENDBRANCH   4   7
BRANCH   1  19
HETATM   19  C   UNL     1     -41.276 -48.641  11.438  1.00  0.00     0.114 C 
HETATM   20  C   UNL     1     -41.876 -47.726  10.372  1.00  0.00     0.029 C 
HETATM   21  C   UNL     1     -41.625 -46.263  10.741  1.00  0.00     0.032 C 
HETATM   22  C   UNL     1     -40.140 -46.002  11.011  1.00  0.00     0.272 C 
HETATM   23  N   UNL     1     -39.551 -46.876  12.036  1.00  0.00     0.090 N 
HETATM   24  C   UNL     1     -39.787 -48.294  11.683  1.00  0.00     0.297 C 
BRANCH  23  25
HETATM   25  C   UNL     1     -40.010 -46.603  13.410  1.00  0.00     0.268 C 
HETATM   26  C   UNL     1     -39.290 -45.446  14.096  1.00  0.00     0.037 C 
ENDBRANCH  23  25
ENDBRANCH   1  19
TORSDOF 4
ENDMDL
MODEL 5
REMARK VINA RESULT:      -6.6      5.234      6.855
REMARK  4 active torsions:
REMARK  status: ('A' for Active; 'I' for Inactive)
REMARK    1  A    between atoms: C_2  and  N_3 
REMARK    2  A    between atoms: C_7  and  N_9 
REMARK       I    between atoms: N_9  and  C_10 
REMARK       I    between atoms: C_10  and  N_12 
REMARK    3  A    between atoms: N_12  and  C_13 
REMARK    4  A    between atoms: C_15  and  C_20 
ROOT
HETATM    1  N   UNL     1     -42.663 -52.158  12.065  1.00  0.00    -0.337 N 
HETATM    2  C   UNL     1     -42.124 -50.945  12.403  1.00  0.00     0.321 C 
HETATM    3  O   UNL     1     -42.247 -50.463  13.524  1.00  0.00    -0.247 OA
HETATM    4  N   UNL     1     -41.456 -50.331  11.367  1.00  0.00    -0.304 N 
HETATM    5  H   UNL     1     -42.544 -52.523  11.131  1.00  0.00     0.164 HD
HETATM    6  H   UNL     1     -41.921 -50.412  10.468  1.00  0.00     0.171 HD
ENDROOT
BRANCH   4   7
HETATM    7  C   UNL     1     -40.852 -49.103  11.574  1.00  0.00     0.105 A 
HETATM    8  C   UNL     1     -39.900 -48.881  12.496  1.00  0.00     0.052 A 
HETATM    9  C   UNL     1     -39.436 -47.541  12.813  1.00  0.00     0.065 A 
HETATM   10  C   UNL     1     -39.989 -46.502  12.162  1.00  0.00     0.107 A 
HETATM   11  N   UNL     1     -40.928 -46.701  11.178  1.00  0.00    -0.331 N 
HETATM   12  C   UNL     1     -41.385 -47.940  10.790  1.00  0.00     0.272 A 
HETATM   13  H   UNL     1     -41.339 -45.909  10.698  1.00  0.00     0.168 HD
HETATM   14  O   UNL     1     -42.211 -48.101   9.895  1.00  0.00    -0.266 OA
BRANCH   9  15
HETATM   15  C   UNL     1     -38.413 -47.357  13.898  1.00  0.00     0.418 C 
HETATM   16  F   UNL     1     -38.015 -46.066  14.052  1.00  0.00    -0.166 F 
HETATM   17  F   UNL     1     -38.895 -47.756  15.103  1.00  0.00    -0.166 F 
HETATM   18  F   UNL     1     -37.295 -48.090  13.664  1.00  0.00    -0.166 F 
ENDBRANCH   9  15
ENDBRANCH   4   7
BRANCH   1  19
HETATM   19  C   UNL     1     -43.513 -52.844  13.028  1.00  0.00     0.114 C 
HETATM   20  C   UNL     1     -42.924 -54.186  13.456  1.00  0.00     0.029 C 
HETATM   21  C   UNL     1     -43.868 -54.881  14.438  1.00  0.00     0.032 C 
HETATM   22  C   UNL     1     -45.286 -54.985  13.870  1.00  0.00     0.272 C 
HETATM   23  N   UNL     1     -45.866 -53.700  13.455  1.00  0.00     0.090 N 
HETATM   24  C   UNL     1     -44.958 -53.025  12.500  1.00  0.00     0.297 C 
BRANCH  23  25
HETATM   25  C   UNL     1     -46.210 -52.796  14.567  1.00  0.00     0.268 C 
HETATM   26  C   UNL     1     -46.724 -51.428  14.130  1.00  0.00     0.037 C 
ENDBRANCH  23  25
ENDBRANCH   1  19
TORSDOF 4
ENDMDL
MODEL 6
REMARK VINA RESULT:      -6.4      5.433      6.323
REMARK  4 active torsions:
REMARK  status: ('A' for Active; 'I' for Inactive)
REMARK    1  A    between atoms: C_2  and  N_3 
REMARK    2  A    between atoms: C_7  and  N_9 
REMARK       I    between atoms: N_9  and  C_10 
REMARK       I    between atoms: C_10  and  N_12 
REMARK    3  A    between atoms: N_12  and  C_13 
REMARK    4  A    between atoms: C_15  and  C_20 
ROOT
HETATM    1  N   UNL     1     -42.518 -49.923  12.307  1.00  0.00    -0.337 N 
HETATM    2  C   UNL     1     -43.281 -50.663  13.169  1.00  0.00     0.321 C 
HETATM    3  O   UNL     1     -42.837 -51.103  14.225  1.00  0.00    -0.247 OA
HETATM    4  N   UNL     1     -44.569 -50.870  12.728  1.00  0.00    -0.304 N 
HETATM    5  H   UNL     1     -42.916 -49.579  11.445  1.00  0.00     0.164 HD
HETATM    6  H   UNL     1     -44.640 -51.073  11.735  1.00  0.00     0.171 HD
ENDROOT
BRANCH   4   7
HETATM    7  C   UNL     1     -45.454 -51.594  13.509  1.00  0.00     0.105 A 
HETATM    8  C   UNL     1     -46.020 -51.123  14.632  1.00  0.00     0.052 A 
HETATM    9  C   UNL     1     -46.785 -51.978  15.524  1.00  0.00     0.065 A 
HETATM   10  C   UNL     1     -46.915 -53.279  15.206  1.00  0.00     0.107 A 
HETATM   11  N   UNL     1     -46.388 -53.779  14.039  1.00  0.00    -0.331 N 
HETATM   12  C   UNL     1     -45.693 -53.024  13.122  1.00  0.00     0.272 A 
HETATM   13  H   UNL     1     -46.490 -54.762  13.813  1.00  0.00     0.168 HD
HETATM   14  O   UNL     1     -45.246 -53.483  12.074  1.00  0.00    -0.266 OA
BRANCH   9  15
HETATM   15  C   UNL     1     -47.341 -51.403  16.795  1.00  0.00     0.418 C 
HETATM   16  F   UNL     1     -47.297 -52.266  17.844  1.00  0.00    -0.166 F 
HETATM   17  F   UNL     1     -46.653 -50.297  17.178  1.00  0.00    -0.166 F 
HETATM   18  F   UNL     1     -48.637 -51.023  16.650  1.00  0.00    -0.166 F 
ENDBRANCH   9  15
ENDBRANCH   4   7
BRANCH   1  19
HETATM   19  C   UNL     1     -41.100 -49.753  12.588  1.00  0.00     0.114 C 
HETATM   20  C   UNL     1     -40.596 -48.373  12.172  1.00  0.00     0.029 C 
HETATM   21  C   UNL     1     -39.098 -48.257  12.457  1.00  0.00     0.032 C 
HETATM   22  C   UNL     1     -38.318 -49.413  11.824  1.00  0.00     0.272 C 
HETATM   23  N   UNL     1     -38.792 -50.748  12.218  1.00  0.00     0.090 N 
HETATM   24  C   UNL     1     -40.241 -50.867  11.940  1.00  0.00     0.297 C 
BRANCH  23  25
HETATM   25  C   UNL     1     -38.503 -51.111  13.617  1.00  0.00     0.268 C 
HETATM   26  C   UNL     1     -39.118 -52.435  14.063  1.00  0.00     0.037 C 
ENDBRANCH  23  25
ENDBRANCH   1  19
TORSDOF 4
ENDMDL
MODEL 7
REMARK VINA RESULT:      -6.4      3.972      6.427
REMARK  4 active torsions:
REMARK  status: ('A' for Active; 'I' for Inactive)
REMARK    1  A    between atoms: C_2  and  N_3 
REMARK    2  A    between atoms: C_7  and  N_9 
REMARK       I    between atoms: N_9  and  C_10 
REMARK       I    between atoms: C_10  and  N_12 
REMARK    3  A    between atoms: N_12  and  C_13 
REMARK    4  A    between atoms: C_15  and  C_20 
ROOT
HETATM    1  N   UNL     1     -41.075 -47.647  12.562  1.00  0.00    -0.337 N 
HETATM    2  C   UNL     1     -42.023 -48.582  12.241  1.00  0.00     0.321 C 
HETATM    3  O   UNL     1     -42.813 -48.423  11.317  1.00  0.00    -0.247 OA
HETATM    4  N   UNL     1     -42.005 -49.689  13.059  1.00  0.00    -0.304 N 
HETATM    5  H   UNL     1     -40.442 -47.811  13.331  1.00  0.00     0.164 HD
HETATM    6  H   UNL     1     -41.858 -49.477  14.042  1.00  0.00     0.171 HD
ENDROOT
BRANCH   4   7
HETATM    7  C   UNL     1     -42.903 -50.719  12.840  1.00  0.00     0.105 A 
HETATM    8  C   UNL     1     -44.184 -50.696  13.245  1.00  0.00     0.052 A 
HETATM    9  C   UNL     1     -45.035 -51.872  13.170  1.00  0.00     0.065 A 
HETATM   10  C   UNL     1     -44.509 -53.011  12.683  1.00  0.00     0.107 A 
HETATM   11  N   UNL     1     -43.218 -53.051  12.214  1.00  0.00    -0.331 N 
HETATM   12  C   UNL     1     -42.366 -51.971  12.210  1.00  0.00     0.272 A 
HETATM   13  H   UNL     1     -42.833 -53.917  11.854  1.00  0.00     0.168 HD
HETATM   14  O   UNL     1     -41.221 -52.020  11.768  1.00  0.00    -0.266 OA
BRANCH   9  15
HETATM   15  C   UNL     1     -46.439 -51.796  13.697  1.00  0.00     0.418 C 
HETATM   16  F   UNL     1     -46.960 -53.008  14.023  1.00  0.00    -0.166 F 
HETATM   17  F   UNL     1     -46.504 -51.035  14.820  1.00  0.00    -0.166 F 
HETATM   18  F   UNL     1     -47.285 -51.233  12.796  1.00  0.00    -0.166 F 
ENDBRANCH   9  15
ENDBRANCH   4   7
BRANCH   1  19
HETATM   19  C   UNL     1     -41.081 -46.370  11.864  1.00  0.00     0.114 C 
HETATM   20  C   UNL     1     -39.827 -46.176  11.014  1.00  0.00     0.029 C 
HETATM   21  C   UNL     1     -39.865 -44.809  10.331  1.00  0.00     0.032 C 
HETATM   22  C   UNL     1     -40.101 -43.685  11.345  1.00  0.00     0.272 C 
HETATM   23  N   UNL     1     -41.306 -43.858  12.168  1.00  0.00     0.090 N 
HETATM   24  C   UNL     1     -41.272 -45.179  12.836  1.00  0.00     0.297 C 
BRANCH  23  25
HETATM   25  C   UNL     1     -42.575 -43.680  11.440  1.00  0.00     0.268 C 
HETATM   26  C   UNL     1     -42.895 -42.233  11.076  1.00  0.00     0.037 C 
ENDBRANCH  23  25
ENDBRANCH   1  19
TORSDOF 4
ENDMDL
MODEL 8
REMARK VINA RESULT:      -6.3      3.853      7.173
REMARK  4 active torsions:
REMARK  status: ('A' for Active; 'I' for Inactive)
REMARK    1  A    between atoms: C_2  and  N_3 
REMARK    2  A    between atoms: C_7  and  N_9 
REMARK       I    between atoms: N_9  and  C_10 
REMARK       I    between atoms: C_10  and  N_12 
REMARK    3  A    between atoms: N_12  and  C_13 
REMARK    4  A    between atoms: C_15  and  C_20 
ROOT
HETATM    1  N   UNL     1     -40.866 -50.093  10.796  1.00  0.00    -0.337 N 
HETATM    2  C   UNL     1     -41.346 -50.870  11.815  1.00  0.00     0.321 C 
HETATM    3  O   UNL     1     -41.875 -50.390  12.812  1.00  0.00    -0.247 OA
HETATM    4  N   UNL     1     -41.162 -52.220  11.614  1.00  0.00    -0.304 N 
HETATM    5  H   UNL     1     -40.433 -50.523   9.991  1.00  0.00     0.164 HD
HETATM    6  H   UNL     1     -40.259 -52.462  11.216  1.00  0.00     0.171 HD
ENDROOT
BRANCH   4   7
HETATM    7  C   UNL     1     -41.612 -53.123  12.562  1.00  0.00     0.105 A 
HETATM    8  C   UNL     1     -42.903 -53.454  12.729  1.00  0.00     0.052 A 
HETATM    9  C   UNL     1     -43.352 -54.250  13.859  1.00  0.00     0.065 A 
HETATM   10  C   UNL     1     -42.438 -54.655  14.759  1.00  0.00     0.107 A 
HETATM   11  N   UNL     1     -41.103 -54.374  14.588  1.00  0.00    -0.331 N 
HETATM   12  C   UNL     1     -40.596 -53.666  13.523  1.00  0.00     0.272 A 
HETATM   13  H   UNL     1     -40.426 -54.682  15.276  1.00  0.00     0.168 HD
HETATM   14  O   UNL     1     -39.397 -53.442  13.375  1.00  0.00    -0.266 OA
BRANCH   9  15
HETATM   15  C   UNL     1     -44.818 -54.533  14.020  1.00  0.00     0.418 C 
HETATM   16  F   UNL     1     -45.325 -54.104  15.206  1.00  0.00    -0.166 F 
HETATM   17  F   UNL     1     -45.548 -53.926  13.049  1.00  0.00    -0.166 F 
HETATM   18  F   UNL     1     -45.086 -55.861  13.934  1.00  0.00    -0.166 F 
ENDBRANCH   9  15
ENDBRANCH   4   7
BRANCH   1  19
HETATM   19  C   UNL     1     -40.871 -48.646  10.950  1.00  0.00     0.114 C 
HETATM   20  C   UNL     1     -39.867 -48.180  12.003  1.00  0.00     0.029 C 
HETATM   21  C   UNL     1     -39.935 -46.659  12.151  1.00  0.00     0.032 C 
HETATM   22  C   UNL     1     -41.368 -46.188  12.417  1.00  0.00     0.272 C 
HETATM   23  N   UNL     1     -42.344 -46.628  11.410  1.00  0.00     0.090 N 
HETATM   24  C   UNL     1     -42.286 -48.100  11.265  1.00  0.00     0.297 C 
BRANCH  23  25
HETATM   25  C   UNL     1     -42.205 -45.975  10.096  1.00  0.00     0.268 C 
HETATM   26  C   UNL     1     -43.252 -46.396   9.070  1.00  0.00     0.037 C 
ENDBRANCH  23  25
ENDBRANCH   1  19
TORSDOF 4
ENDMDL
MODEL 9
REMARK VINA RESULT:      -6.2      5.298      7.830
REMARK  4 active torsions:
REMARK  status: ('A' for Active; 'I' for Inactive)
REMARK    1  A    between atoms: C_2  and  N_3 
REMARK    2  A    between atoms: C_7  and  N_9 
REMARK       I    between atoms: N_9  and  C_10 
REMARK       I    between atoms: C_10  and  N_12 
REMARK    3  A    between atoms: N_12  and  C_13 
REMARK    4  A    between atoms: C_15  and  C_20 
ROOT
HETATM    1  N   UNL     1     -41.629 -50.492  11.428  1.00  0.00    -0.337 N 
HETATM    2  C   UNL     1     -42.235 -51.196  12.434  1.00  0.00     0.321 C 
HETATM    3  O   UNL     1     -42.640 -50.658  13.459  1.00  0.00    -0.247 OA
HETATM    4  N   UNL     1     -42.327 -52.547  12.184  1.00  0.00    -0.304 N 
HETATM    5  H   UNL     1     -41.306 -50.969  10.599  1.00  0.00     0.164 HD
HETATM    6  H   UNL     1     -41.497 -52.947  11.755  1.00  0.00     0.171 HD
ENDROOT
BRANCH   4   7
HETATM    7  C   UNL     1     -42.929 -53.377  13.114  1.00  0.00     0.105 A 
HETATM    8  C   UNL     1     -42.278 -53.950  14.140  1.00  0.00     0.052 A 
HETATM    9  C   UNL     1     -42.900 -54.966  14.972  1.00  0.00     0.065 A 
HETATM   10  C   UNL     1     -44.162 -55.338  14.691  1.00  0.00     0.107 A 
HETATM   11  N   UNL     1     -44.870 -54.735  13.680  1.00  0.00    -0.331 N 
HETATM   12  C   UNL     1     -44.367 -53.735  12.878  1.00  0.00     0.272 A 
HETATM   13  H   UNL     1     -45.818 -55.027  13.476  1.00  0.00     0.168 HD
HETATM   14  O   UNL     1     -45.021 -53.193  11.991  1.00  0.00    -0.266 OA
BRANCH   9  15
HETATM   15  C   UNL     1     -42.097 -55.611  16.066  1.00  0.00     0.418 C 
HETATM   16  F   UNL     1     -42.303 -55.054  17.289  1.00  0.00    -0.166 F 
HETATM   17  F   UNL     1     -42.400 -56.929  16.188  1.00  0.00    -0.166 F 
HETATM   18  F   UNL     1     -40.764 -55.540  15.819  1.00  0.00    -0.166 F 
ENDBRANCH   9  15
ENDBRANCH   4   7
BRANCH   1  19
HETATM   19  C   UNL     1     -41.344 -49.078  11.630  1.00  0.00     0.114 C 
HETATM   20  C   UNL     1     -41.905 -48.215  10.502  1.00  0.00     0.029 C 
HETATM   21  C   UNL     1     -41.550 -46.747  10.743  1.00  0.00     0.032 C 
HETATM   22  C   UNL     1     -40.046 -46.566  10.967  1.00  0.00     0.272 C 
HETATM   23  N   UNL     1     -39.493 -47.390  12.051  1.00  0.00     0.090 N 
HETATM   24  C   UNL     1     -39.830 -48.813  11.821  1.00  0.00     0.297 C 
BRANCH  23  25
HETATM   25  C   UNL     1     -39.904 -46.975  13.405  1.00  0.00     0.268 C 
HETATM   26  C   UNL     1     -39.561 -45.529  13.751  1.00  0.00     0.037 C 
ENDBRANCH  23  25
ENDBRANCH   1  19
TORSDOF 4
ENDMDL
