MODEL 1
REMARK VINA RESULT:      -6.1      0.000      0.000
REMARK  8 active torsions:
REMARK  status: ('A' for Active; 'I' for Inactive)
REMARK    1  A    between atoms: C_2  and  C_3 
REMARK    2  A    between atoms: C_3  and  O_4 
REMARK    3  A    between atoms: C_3  and  C_5 
REMARK    4  A    between atoms: C_5  and  N_6 
REMARK       I    between atoms: N_9  and  C_12 
REMARK    5  A    between atoms: C_12  and  C_14 
REMARK    6  A    between atoms: N_19  and  C_20 
REMARK    7  A    between atoms: C_20  and  C_21 
REMARK    8  A    between atoms: C_21  and  O_22 
ROOT
HETATM    1  N   UNL     1     -43.340 -51.840  14.096  1.00  0.00     0.094 N 
HETATM    2  C   UNL     1     -43.620 -50.408  13.922  1.00  0.00     0.292 C 
HETATM    3  C   UNL     1     -43.097 -49.785  12.617  1.00  0.00     0.156 C 
HETATM    4  N   UNL     1     -41.734 -50.157  12.231  1.00  0.00    -0.345 N 
HETATM    5  C   UNL     1     -41.384 -51.559  12.493  1.00  0.00     0.156 C 
HETATM    6  C   UNL     1     -41.895 -52.050  13.862  1.00  0.00     0.292 C 
HETATM    7  C   UNL     1     -40.885 -49.437  11.384  1.00  0.00     0.255 C 
HETATM    8  O   UNL     1     -39.820 -49.922  10.987  1.00  0.00    -0.267 OA
ENDROOT
BRANCH   7   9
HETATM    9  C   UNL     1     -41.172 -47.989  11.035  1.00  0.00     0.048 C 
HETATM   10  C   UNL     1     -40.435 -46.947  11.735  1.00  0.00     0.024 C 
HETATM   11  C   UNL     1     -40.707 -45.649  11.544  1.00  0.00     0.075 C 
HETATM   12  C   UNL     1     -41.839 -45.244  10.671  1.00  0.00     0.247 C 
HETATM   13  O   UNL     1     -42.141 -44.057  10.591  1.00  0.00    -0.268 OA
HETATM   14  N   UNL     1     -42.463 -46.284   9.980  1.00  0.00    -0.322 N 
HETATM   15  C   UNL     1     -42.036 -47.601  10.085  1.00  0.00     0.111 C 
BRANCH  14  16
HETATM   16  C   UNL     1     -43.727 -45.998   9.276  1.00  0.00     0.158 C 
BRANCH  16  17
HETATM   17  C   UNL     1     -44.486 -47.254   8.792  1.00  0.00     0.187 C 
BRANCH  17  18
HETATM   18  O   UNL     1     -45.877 -47.177   9.111  1.00  0.00    -0.394 OA
HETATM   19  C   UNL     1     -46.575 -48.369   8.772  1.00  0.00     0.201 C 
ENDBRANCH  17  18
ENDBRANCH  16  17
ENDBRANCH  14  16
ENDBRANCH   7   9
BRANCH   1  20
HETATM   20  C   UNL     1     -44.205 -52.668  13.240  1.00  0.00     0.303 C 
BRANCH  20  21
HETATM   21  C   UNL     1     -45.585 -53.021  13.845  1.00  0.00     0.146 C 
BRANCH  21  22
HETATM   22  C   UNL     1     -46.638 -51.935  13.588  1.00  0.00     0.029 C 
HETATM   23  C   UNL     1     -46.834 -51.673  12.101  1.00  0.00     0.007 C 
ENDBRANCH  21  22
BRANCH  21  24
HETATM   24  O   UNL     1     -46.026 -54.265  13.293  1.00  0.00    -0.394 OA
HETATM   25  H   UNL     1     -45.608 -54.983  13.798  1.00  0.00     0.210 HD
ENDBRANCH  21  24
ENDBRANCH  20  21
ENDBRANCH   1  20
TORSDOF 8
ENDMDL
MODEL 2
REMARK VINA RESULT:      -5.8      2.042      2.625
REMARK  8 active torsions:
REMARK  status: ('A' for Active; 'I' for Inactive)
REMARK    1  A    between atoms: C_2  and  C_3 
REMARK    2  A    between atoms: C_3  and  O_4 
REMARK    3  A    between atoms: C_3  and  C_5 
REMARK    4  A    between atoms: C_5  and  N_6 
REMARK       I    between atoms: N_9  and  C_12 
REMARK    5  A    between atoms: C_12  and  C_14 
REMARK    6  A    between atoms: N_19  and  C_20 
REMARK    7  A    between atoms: C_20  and  C_21 
REMARK    8  A    between atoms: C_21  and  O_22 
ROOT
HETATM    1  N   UNL     1     -42.766 -53.382  14.469  1.00  0.00     0.094 N 
HETATM    2  C   UNL     1     -42.753 -51.922  14.636  1.00  0.00     0.292 C 
HETATM    3  C   UNL     1     -41.903 -51.147  13.615  1.00  0.00     0.156 C 
HETATM    4  N   UNL     1     -40.580 -51.706  13.327  1.00  0.00    -0.345 N 
HETATM    5  C   UNL     1     -40.536 -53.172  13.262  1.00  0.00     0.156 C 
HETATM    6  C   UNL     1     -41.362 -53.839  14.380  1.00  0.00     0.292 C 
HETATM    7  C   UNL     1     -39.480 -51.012  12.812  1.00  0.00     0.255 C 
HETATM    8  O   UNL     1     -38.463 -51.612  12.446  1.00  0.00    -0.267 OA
ENDROOT
BRANCH   7   9
HETATM    9  C   UNL     1     -39.440 -49.496  12.814  1.00  0.00     0.048 C 
HETATM   10  C   UNL     1     -39.003 -48.814  14.024  1.00  0.00     0.024 C 
HETATM   11  C   UNL     1     -39.035 -47.479  14.125  1.00  0.00     0.075 C 
HETATM   12  C   UNL     1     -39.607 -46.660  13.025  1.00  0.00     0.247 C 
HETATM   13  O   UNL     1     -39.726 -45.448  13.177  1.00  0.00    -0.268 OA
HETATM   14  N   UNL     1     -39.948 -47.366  11.869  1.00  0.00    -0.322 N 
HETATM   15  C   UNL     1     -39.741 -48.734  11.752  1.00  0.00     0.111 C 
BRANCH  14  16
HETATM   16  C   UNL     1     -40.724 -46.670  10.827  1.00  0.00     0.158 C 
BRANCH  16  17
HETATM   17  C   UNL     1     -42.209 -47.090  10.749  1.00  0.00     0.187 C 
BRANCH  17  18
HETATM   18  O   UNL     1     -42.491 -47.785   9.532  1.00  0.00    -0.394 OA
HETATM   19  C   UNL     1     -43.689 -47.329   8.916  1.00  0.00     0.201 C 
ENDBRANCH  17  18
ENDBRANCH  16  17
ENDBRANCH  14  16
ENDBRANCH   7   9
BRANCH   1  20
HETATM   20  C   UNL     1     -43.595 -53.788  13.324  1.00  0.00     0.303 C 
BRANCH  20  21
HETATM   21  C   UNL     1     -45.123 -53.680  13.548  1.00  0.00     0.146 C 
BRANCH  21  22
HETATM   22  C   UNL     1     -45.780 -52.629  12.645  1.00  0.00     0.029 C 
HETATM   23  C   UNL     1     -46.450 -51.524  13.450  1.00  0.00     0.007 C 
ENDBRANCH  21  22
BRANCH  21  24
HETATM   24  O   UNL     1     -45.715 -54.962  13.311  1.00  0.00    -0.394 OA
HETATM   25  H   UNL     1     -45.010 -55.630  13.349  1.00  0.00     0.210 HD
ENDBRANCH  21  24
ENDBRANCH  20  21
ENDBRANCH   1  20
TORSDOF 8
ENDMDL
MODEL 3
REMARK VINA RESULT:      -5.7      3.347      5.393
REMARK  8 active torsions:
REMARK  status: ('A' for Active; 'I' for Inactive)
REMARK    1  A    between atoms: C_2  and  C_3 
REMARK    2  A    between atoms: C_3  and  O_4 
REMARK    3  A    between atoms: C_3  and  C_5 
REMARK    4  A    between atoms: C_5  and  N_6 
REMARK       I    between atoms: N_9  and  C_12 
REMARK    5  A    between atoms: C_12  and  C_14 
REMARK    6  A    between atoms: N_19  and  C_20 
REMARK    7  A    between atoms: C_20  and  C_21 
REMARK    8  A    between atoms: C_21  and  O_22 
ROOT
HETATM    1  N   UNL     1     -43.952 -53.349  14.303  1.00  0.00     0.094 N 
HETATM    2  C   UNL     1     -43.248 -52.266  15.004  1.00  0.00     0.292 C 
HETATM    3  C   UNL     1     -41.859 -51.910  14.448  1.00  0.00     0.156 C 
HETATM    4  N   UNL     1     -40.992 -53.043  14.119  1.00  0.00    -0.345 N 
HETATM    5  C   UNL     1     -41.683 -54.189  13.516  1.00  0.00     0.156 C 
HETATM    6  C   UNL     1     -43.027 -54.498  14.204  1.00  0.00     0.292 C 
HETATM    7  C   UNL     1     -39.596 -53.020  14.026  1.00  0.00     0.255 C 
HETATM    8  O   UNL     1     -38.972 -53.987  13.576  1.00  0.00    -0.267 OA
ENDROOT
BRANCH   7   9
HETATM    9  C   UNL     1     -38.792 -51.868  14.600  1.00  0.00     0.048 C 
HETATM   10  C   UNL     1     -38.498 -51.869  16.025  1.00  0.00     0.024 C 
HETATM   11  C   UNL     1     -37.876 -50.838  16.612  1.00  0.00     0.075 C 
HETATM   12  C   UNL     1     -37.550 -49.619  15.828  1.00  0.00     0.247 C 
HETATM   13  O   UNL     1     -37.077 -48.644  16.404  1.00  0.00    -0.268 OA
HETATM   14  N   UNL     1     -37.798 -49.705  14.457  1.00  0.00    -0.322 N 
HETATM   15  C   UNL     1     -38.292 -50.862  13.868  1.00  0.00     0.111 C 
BRANCH  14  16
HETATM   16  C   UNL     1     -37.716 -48.474  13.651  1.00  0.00     0.158 C 
BRANCH  16  17
HETATM   17  C   UNL     1     -39.070 -47.765  13.427  1.00  0.00     0.187 C 
BRANCH  17  18
HETATM   18  O   UNL     1     -39.600 -48.053  12.130  1.00  0.00    -0.394 OA
HETATM   19  C   UNL     1     -39.976 -46.874  11.429  1.00  0.00     0.201 C 
ENDBRANCH  17  18
ENDBRANCH  16  17
ENDBRANCH  14  16
ENDBRANCH   7   9
BRANCH   1  20
HETATM   20  C   UNL     1     -44.480 -52.899  13.005  1.00  0.00     0.303 C 
BRANCH  20  21
HETATM   21  C   UNL     1     -46.012 -52.683  12.957  1.00  0.00     0.146 C 
BRANCH  21  22
HETATM   22  C   UNL     1     -46.443 -51.365  13.612  1.00  0.00     0.029 C 
HETATM   23  C   UNL     1     -46.959 -51.574  15.029  1.00  0.00     0.007 C 
ENDBRANCH  21  22
BRANCH  21  24
HETATM   24  O   UNL     1     -46.438 -52.710  11.592  1.00  0.00    -0.394 OA
HETATM   25  H   UNL     1     -46.528 -53.640  11.323  1.00  0.00     0.210 HD
ENDBRANCH  21  24
ENDBRANCH  20  21
ENDBRANCH   1  20
TORSDOF 8
ENDMDL
MODEL 4
REMARK VINA RESULT:      -5.6      1.835      3.545
REMARK  8 active torsions:
REMARK  status: ('A' for Active; 'I' for Inactive)
REMARK    1  A    between atoms: C_2  and  C_3 
REMARK    2  A    between atoms: C_3  and  O_4 
REMARK    3  A    between atoms: C_3  and  C_5 
REMARK    4  A    between atoms: C_5  and  N_6 
REMARK       I    between atoms: N_9  and  C_12 
REMARK    5  A    between atoms: C_12  and  C_14 
REMARK    6  A    between atoms: N_19  and  C_20 
REMARK    7  A    between atoms: C_20  and  C_21 
REMARK    8  A    between atoms: C_21  and  O_22 
ROOT
HETATM    1  N   UNL     1     -43.039 -52.229  13.872  1.00  0.00     0.094 N 
HETATM    2  C   UNL     1     -43.281 -50.784  13.980  1.00  0.00     0.292 C 
HETATM    3  C   UNL     1     -42.880 -49.951  12.751  1.00  0.00     0.156 C 
HETATM    4  N   UNL     1     -41.582 -50.275  12.155  1.00  0.00    -0.345 N 
HETATM    5  C   UNL     1     -41.260 -51.707  12.130  1.00  0.00     0.156 C 
HETATM    6  C   UNL     1     -41.637 -52.421  13.443  1.00  0.00     0.292 C 
HETATM    7  C   UNL     1     -40.804 -49.433  11.353  1.00  0.00     0.255 C 
HETATM    8  O   UNL     1     -39.808 -49.860  10.760  1.00  0.00    -0.267 OA
ENDROOT
BRANCH   7   9
HETATM    9  C   UNL     1     -41.073 -47.941  11.294  1.00  0.00     0.048 C 
HETATM   10  C   UNL     1     -41.978 -47.438  10.271  1.00  0.00     0.024 C 
HETATM   11  C   UNL     1     -42.184 -46.125  10.103  1.00  0.00     0.075 C 
HETATM   12  C   UNL     1     -41.416 -45.140  10.908  1.00  0.00     0.247 C 
HETATM   13  O   UNL     1     -41.539 -43.942  10.668  1.00  0.00    -0.268 OA
HETATM   14  N   UNL     1     -40.614 -45.683  11.913  1.00  0.00    -0.322 N 
HETATM   15  C   UNL     1     -40.561 -47.050  12.156  1.00  0.00     0.111 C 
BRANCH  14  16
HETATM   16  C   UNL     1     -39.655 -44.799  12.599  1.00  0.00     0.158 C 
BRANCH  16  17
HETATM   17  C   UNL     1     -38.984 -45.427  13.842  1.00  0.00     0.187 C 
BRANCH  17  18
HETATM   18  O   UNL     1     -39.216 -44.640  15.013  1.00  0.00    -0.394 OA
HETATM   19  C   UNL     1     -40.461 -43.952  14.961  1.00  0.00     0.201 C 
ENDBRANCH  17  18
ENDBRANCH  16  17
ENDBRANCH  14  16
ENDBRANCH   7   9
BRANCH   1  20
HETATM   20  C   UNL     1     -44.023 -52.878  12.990  1.00  0.00     0.303 C 
BRANCH  20  21
HETATM   21  C   UNL     1     -45.379 -53.216  13.655  1.00  0.00     0.146 C 
BRANCH  21  22
HETATM   22  C   UNL     1     -46.449 -52.148  13.392  1.00  0.00     0.029 C 
HETATM   23  C   UNL     1     -46.865 -51.431  14.668  1.00  0.00     0.007 C 
ENDBRANCH  21  22
BRANCH  21  24
HETATM   24  O   UNL     1     -45.828 -54.484  13.168  1.00  0.00    -0.394 OA
HETATM   25  H   UNL     1     -45.127 -55.136  13.337  1.00  0.00     0.210 HD
ENDBRANCH  21  24
ENDBRANCH  20  21
ENDBRANCH   1  20
TORSDOF 8
ENDMDL
MODEL 5
REMARK VINA RESULT:      -5.4      4.945      7.409
REMARK  8 active torsions:
REMARK  status: ('A' for Active; 'I' for Inactive)
REMARK    1  A    between atoms: C_2  and  C_3 
REMARK    2  A    between atoms: C_3  and  O_4 
REMARK    3  A    between atoms: C_3  and  C_5 
REMARK    4  A    between atoms: C_5  and  N_6 
REMARK       I    between atoms: N_9  and  C_12 
REMARK    5  A    between atoms: C_12  and  C_14 
REMARK    6  A    between atoms: N_19  and  C_20 
REMARK    7  A    between atoms: C_20  and  C_21 
REMARK    8  A    between atoms: C_21  and  O_22 
ROOT
HETATM    1  N   UNL     1     -43.921 -53.332  14.397  1.00  0.00     0.094 N 
HETATM    2  C   UNL     1     -43.211 -52.238  15.074  1.00  0.00     0.292 C 
HETATM    3  C   UNL     1     -41.820 -51.903  14.510  1.00  0.00     0.156 C 
HETATM    4  N   UNL     1     -40.959 -53.048  14.207  1.00  0.00    -0.345 N 
HETATM    5  C   UNL     1     -41.657 -54.203  13.629  1.00  0.00     0.156 C 
HETATM    6  C   UNL     1     -43.003 -54.489  14.324  1.00  0.00     0.292 C 
HETATM    7  C   UNL     1     -39.563 -53.036  14.113  1.00  0.00     0.255 C 
HETATM    8  O   UNL     1     -38.945 -54.016  13.685  1.00  0.00    -0.267 OA
ENDROOT
BRANCH   7   9
HETATM    9  C   UNL     1     -38.753 -51.876  14.662  1.00  0.00     0.048 C 
HETATM   10  C   UNL     1     -38.182 -50.922  13.722  1.00  0.00     0.024 C 
HETATM   11  C   UNL     1     -37.379 -49.932  14.132  1.00  0.00     0.075 C 
HETATM   12  C   UNL     1     -36.976 -49.839  15.560  1.00  0.00     0.247 C 
HETATM   13  O   UNL     1     -36.156 -48.991  15.898  1.00  0.00    -0.268 OA
HETATM   14  N   UNL     1     -37.605 -50.742  16.418  1.00  0.00    -0.322 N 
HETATM   15  C   UNL     1     -38.560 -51.645  15.969  1.00  0.00     0.111 C 
BRANCH  14  16
HETATM   16  C   UNL     1     -37.099 -50.867  17.797  1.00  0.00     0.158 C 
BRANCH  16  17
HETATM   17  C   UNL     1     -36.555 -52.268  18.153  1.00  0.00     0.187 C 
BRANCH  17  18
HETATM   18  O   UNL     1     -35.164 -52.218  18.482  1.00  0.00    -0.394 OA
HETATM   19  C   UNL     1     -34.569 -53.510  18.502  1.00  0.00     0.201 C 
ENDBRANCH  17  18
ENDBRANCH  16  17
ENDBRANCH  14  16
ENDBRANCH   7   9
BRANCH   1  20
HETATM   20  C   UNL     1     -44.446 -52.909  13.089  1.00  0.00     0.303 C 
BRANCH  20  21
HETATM   21  C   UNL     1     -45.980 -52.707  13.030  1.00  0.00     0.146 C 
BRANCH  21  22
HETATM   22  C   UNL     1     -46.429 -51.397  13.688  1.00  0.00     0.029 C 
HETATM   23  C   UNL     1     -47.002 -51.626  15.080  1.00  0.00     0.007 C 
ENDBRANCH  21  22
BRANCH  21  24
HETATM   24  O   UNL     1     -46.395 -52.730  11.661  1.00  0.00    -0.394 OA
HETATM   25  H   UNL     1     -47.353 -52.893  11.640  1.00  0.00     0.210 HD
ENDBRANCH  21  24
ENDBRANCH  20  21
ENDBRANCH   1  20
TORSDOF 8
ENDMDL
MODEL 6
REMARK VINA RESULT:      -5.3      2.957      4.372
REMARK  8 active torsions:
REMARK  status: ('A' for Active; 'I' for Inactive)
REMARK    1  A    between atoms: C_2  and  C_3 
REMARK    2  A    between atoms: C_3  and  O_4 
REMARK    3  A    between atoms: C_3  and  C_5 
REMARK    4  A    between atoms: C_5  and  N_6 
REMARK       I    between atoms: N_9  and  C_12 
REMARK    5  A    between atoms: C_12  and  C_14 
REMARK    6  A    between atoms: N_19  and  C_20 
REMARK    7  A    between atoms: C_20  and  C_21 
REMARK    8  A    between atoms: C_21  and  O_22 
ROOT
HETATM    1  N   UNL     1     -43.779 -53.868  15.761  1.00  0.00     0.094 N 
HETATM    2  C   UNL     1     -43.175 -52.532  15.856  1.00  0.00     0.292 C 
HETATM    3  C   UNL     1     -42.164 -52.184  14.750  1.00  0.00     0.156 C 
HETATM    4  N   UNL     1     -41.198 -53.232  14.412  1.00  0.00    -0.345 N 
HETATM    5  C   UNL     1     -41.745 -54.593  14.416  1.00  0.00     0.156 C 
HETATM    6  C   UNL     1     -42.684 -54.850  15.612  1.00  0.00     0.292 C 
HETATM    7  C   UNL     1     -39.954 -53.047  13.800  1.00  0.00     0.255 C 
HETATM    8  O   UNL     1     -39.290 -54.011  13.404  1.00  0.00    -0.267 OA
ENDROOT
BRANCH   7   9
HETATM    9  C   UNL     1     -39.314 -51.674  13.726  1.00  0.00     0.048 C 
HETATM   10  C   UNL     1     -38.458 -51.246  14.824  1.00  0.00     0.024 C 
HETATM   11  C   UNL     1     -37.940 -50.012  14.867  1.00  0.00     0.075 C 
HETATM   12  C   UNL     1     -38.304 -49.012  13.829  1.00  0.00     0.247 C 
HETATM   13  O   UNL     1     -37.905 -47.857  13.942  1.00  0.00    -0.268 OA
HETATM   14  N   UNL     1     -39.073 -49.501  12.772  1.00  0.00    -0.322 N 
HETATM   15  C   UNL     1     -39.449 -50.836  12.688  1.00  0.00     0.111 C 
BRANCH  14  16
HETATM   16  C   UNL     1     -39.661 -48.534  11.827  1.00  0.00     0.158 C 
BRANCH  16  17
HETATM   17  C   UNL     1     -40.920 -49.045  11.091  1.00  0.00     0.187 C 
BRANCH  17  18
HETATM   18  O   UNL     1     -42.114 -48.689  11.793  1.00  0.00    -0.394 OA
HETATM   19  C   UNL     1     -42.172 -47.299  12.088  1.00  0.00     0.201 C 
ENDBRANCH  17  18
ENDBRANCH  16  17
ENDBRANCH  14  16
ENDBRANCH   7   9
BRANCH   1  20
HETATM   20  C   UNL     1     -44.784 -53.932  14.688  1.00  0.00     0.303 C 
BRANCH  20  21
HETATM   21  C   UNL     1     -46.251 -54.052  15.167  1.00  0.00     0.146 C 
BRANCH  21  22
HETATM   22  C   UNL     1     -47.085 -52.808  14.835  1.00  0.00     0.029 C 
HETATM   23  C   UNL     1     -46.307 -51.810  13.988  1.00  0.00     0.007 C 
ENDBRANCH  21  22
BRANCH  21  24
HETATM   24  O   UNL     1     -46.841 -55.207  14.562  1.00  0.00    -0.394 OA
HETATM   25  H   UNL     1     -46.243 -55.517  13.861  1.00  0.00     0.210 HD
ENDBRANCH  21  24
ENDBRANCH  20  21
ENDBRANCH   1  20
TORSDOF 8
ENDMDL
MODEL 7
REMARK VINA RESULT:      -5.3      3.077      8.297
REMARK  8 active torsions:
REMARK  status: ('A' for Active; 'I' for Inactive)
REMARK    1  A    between atoms: C_2  and  C_3 
REMARK    2  A    between atoms: C_3  and  O_4 
REMARK    3  A    between atoms: C_3  and  C_5 
REMARK    4  A    between atoms: C_5  and  N_6 
REMARK       I    between atoms: N_9  and  C_12 
REMARK    5  A    between atoms: C_12  and  C_14 
REMARK    6  A    between atoms: N_19  and  C_20 
REMARK    7  A    between atoms: C_20  and  C_21 
REMARK    8  A    between atoms: C_21  and  O_22 
ROOT
HETATM    1  N   UNL     1     -41.493 -48.260  11.853  1.00  0.00     0.094 N 
HETATM    2  C   UNL     1     -42.692 -48.898  12.411  1.00  0.00     0.292 C 
HETATM    3  C   UNL     1     -42.460 -50.247  13.112  1.00  0.00     0.156 C 
HETATM    4  N   UNL     1     -41.578 -51.186  12.415  1.00  0.00    -0.345 N 
HETATM    5  C   UNL     1     -40.424 -50.567  11.752  1.00  0.00     0.156 C 
HETATM    6  C   UNL     1     -40.794 -49.262  11.019  1.00  0.00     0.292 C 
HETATM    7  C   UNL     1     -41.545 -52.575  12.584  1.00  0.00     0.255 C 
HETATM    8  O   UNL     1     -40.649 -53.257  12.076  1.00  0.00    -0.267 OA
ENDROOT
BRANCH   7   9
HETATM    9  C   UNL     1     -42.680 -53.306  13.276  1.00  0.00     0.048 C 
HETATM   10  C   UNL     1     -43.849 -53.676  12.491  1.00  0.00     0.024 C 
HETATM   11  C   UNL     1     -44.924 -54.237  13.060  1.00  0.00     0.075 C 
HETATM   12  C   UNL     1     -44.983 -54.414  14.534  1.00  0.00     0.247 C 
HETATM   13  O   UNL     1     -46.016 -54.831  15.048  1.00  0.00    -0.268 OA
HETATM   14  N   UNL     1     -43.809 -54.100  15.221  1.00  0.00    -0.322 N 
HETATM   15  C   UNL     1     -42.660 -53.677  14.565  1.00  0.00     0.111 C 
BRANCH  14  16
HETATM   16  C   UNL     1     -43.856 -54.031  16.693  1.00  0.00     0.158 C 
BRANCH  16  17
HETATM   17  C   UNL     1     -42.670 -54.722  17.403  1.00  0.00     0.187 C 
BRANCH  17  18
HETATM   18  O   UNL     1     -42.675 -56.133  17.171  1.00  0.00    -0.394 OA
HETATM   19  C   UNL     1     -41.368 -56.647  16.945  1.00  0.00     0.201 C 
ENDBRANCH  17  18
ENDBRANCH  16  17
ENDBRANCH  14  16
ENDBRANCH   7   9
BRANCH   1  20
HETATM   20  C   UNL     1     -40.650 -47.676  12.909  1.00  0.00     0.303 C 
BRANCH  20  21
HETATM   21  C   UNL     1     -39.716 -46.531  12.447  1.00  0.00     0.146 C 
BRANCH  21  22
HETATM   22  C   UNL     1     -40.455 -45.451  11.648  1.00  0.00     0.029 C 
HETATM   23  C   UNL     1     -39.739 -45.113  10.348  1.00  0.00     0.007 C 
ENDBRANCH  21  22
BRANCH  21  24
HETATM   24  O   UNL     1     -39.099 -45.947  13.598  1.00  0.00    -0.394 OA
HETATM   25  H   UNL     1     -39.380 -45.018  13.651  1.00  0.00     0.210 HD
ENDBRANCH  21  24
ENDBRANCH  20  21
ENDBRANCH   1  20
TORSDOF 8
ENDMDL
MODEL 8
REMARK VINA RESULT:      -5.3      2.680      7.959
REMARK  8 active torsions:
REMARK  status: ('A' for Active; 'I' for Inactive)
REMARK    1  A    between atoms: C_2  and  C_3 
REMARK    2  A    between atoms: C_3  and  O_4 
REMARK    3  A    between atoms: C_3  and  C_5 
REMARK    4  A    between atoms: C_5  and  N_6 
REMARK       I    between atoms: N_9  and  C_12 
REMARK    5  A    between atoms: C_12  and  C_14 
REMARK    6  A    between atoms: N_19  and  C_20 
REMARK    7  A    between atoms: C_20  and  C_21 
REMARK    8  A    between atoms: C_21  and  O_22 
ROOT
HETATM    1  N   UNL     1     -40.401 -47.240  11.733  1.00  0.00     0.094 N 
HETATM    2  C   UNL     1     -40.713 -48.616  11.326  1.00  0.00     0.292 C 
HETATM    3  C   UNL     1     -42.040 -49.180  11.860  1.00  0.00     0.156 C 
HETATM    4  N   UNL     1     -42.325 -48.918  13.272  1.00  0.00    -0.345 N 
HETATM    5  C   UNL     1     -41.925 -47.586  13.741  1.00  0.00     0.156 C 
HETATM    6  C   UNL     1     -40.545 -47.160  13.202  1.00  0.00     0.292 C 
HETATM    7  C   UNL     1     -43.190 -49.649  14.094  1.00  0.00     0.255 C 
HETATM    8  O   UNL     1     -43.490 -49.245  15.222  1.00  0.00    -0.267 OA
ENDROOT
BRANCH   7   9
HETATM    9  C   UNL     1     -43.678 -51.027  13.688  1.00  0.00     0.048 C 
HETATM   10  C   UNL     1     -45.046 -51.167  13.212  1.00  0.00     0.024 C 
HETATM   11  C   UNL     1     -45.569 -52.367  12.928  1.00  0.00     0.075 C 
HETATM   12  C   UNL     1     -44.783 -53.603  13.181  1.00  0.00     0.247 C 
HETATM   13  O   UNL     1     -45.315 -54.697  13.015  1.00  0.00    -0.268 OA
HETATM   14  N   UNL     1     -43.460 -53.400  13.574  1.00  0.00    -0.322 N 
HETATM   15  C   UNL     1     -42.912 -52.129  13.696  1.00  0.00     0.111 C 
BRANCH  14  16
HETATM   16  C   UNL     1     -42.687 -54.558  14.059  1.00  0.00     0.158 C 
BRANCH  16  17
HETATM   17  C   UNL     1     -41.456 -54.190  14.918  1.00  0.00     0.187 C 
BRANCH  17  18
HETATM   18  O   UNL     1     -40.237 -54.496  14.237  1.00  0.00    -0.394 OA
HETATM   19  C   UNL     1     -39.363 -53.375  14.166  1.00  0.00     0.201 C 
ENDBRANCH  17  18
ENDBRANCH  16  17
ENDBRANCH  14  16
ENDBRANCH   7   9
BRANCH   1  20
HETATM   20  C   UNL     1     -41.222 -46.261  11.003  1.00  0.00     0.303 C 
BRANCH  20  21
HETATM   21  C   UNL     1     -40.439 -45.082  10.377  1.00  0.00     0.146 C 
BRANCH  21  22
HETATM   22  C   UNL     1     -40.044 -44.019  11.410  1.00  0.00     0.029 C 
HETATM   23  C   UNL     1     -40.913 -42.774  11.309  1.00  0.00     0.007 C 
ENDBRANCH  21  22
BRANCH  21  24
HETATM   24  O   UNL     1     -39.267 -45.596   9.737  1.00  0.00    -0.394 OA
HETATM   25  H   UNL     1     -38.813 -46.182  10.367  1.00  0.00     0.210 HD
ENDBRANCH  21  24
ENDBRANCH  20  21
ENDBRANCH   1  20
TORSDOF 8
ENDMDL
MODEL 9
REMARK VINA RESULT:      -5.3      2.482      7.182
REMARK  8 active torsions:
REMARK  status: ('A' for Active; 'I' for Inactive)
REMARK    1  A    between atoms: C_2  and  C_3 
REMARK    2  A    between atoms: C_3  and  O_4 
REMARK    3  A    between atoms: C_3  and  C_5 
REMARK    4  A    between atoms: C_5  and  N_6 
REMARK       I    between atoms: N_9  and  C_12 
REMARK    5  A    between atoms: C_12  and  C_14 
REMARK    6  A    between atoms: N_19  and  C_20 
REMARK    7  A    between atoms: C_20  and  C_21 
REMARK    8  A    between atoms: C_21  and  O_22 
ROOT
HETATM    1  N   UNL     1     -39.125 -48.726  11.924  1.00  0.00     0.094 N 
HETATM    2  C   UNL     1     -40.122 -49.689  11.437  1.00  0.00     0.292 C 
HETATM    3  C   UNL     1     -41.151 -50.161  12.478  1.00  0.00     0.156 C 
HETATM    4  N   UNL     1     -40.615 -50.504  13.797  1.00  0.00    -0.345 N 
HETATM    5  C   UNL     1     -39.539 -49.624  14.269  1.00  0.00     0.156 C 
HETATM    6  C   UNL     1     -38.527 -49.281  13.158  1.00  0.00     0.292 C 
HETATM    7  C   UNL     1     -41.215 -51.340  14.745  1.00  0.00     0.255 C 
HETATM    8  O   UNL     1     -40.765 -51.427  15.893  1.00  0.00    -0.267 OA
ENDROOT
BRANCH   7   9
HETATM    9  C   UNL     1     -42.350 -52.270  14.362  1.00  0.00     0.048 C 
HETATM   10  C   UNL     1     -42.021 -53.569  13.793  1.00  0.00     0.024 C 
HETATM   11  C   UNL     1     -42.973 -54.398  13.345  1.00  0.00     0.075 C 
HETATM   12  C   UNL     1     -44.396 -53.967  13.338  1.00  0.00     0.247 C 
HETATM   13  O   UNL     1     -45.241 -54.696  12.827  1.00  0.00    -0.268 OA
HETATM   14  N   UNL     1     -44.653 -52.741  13.954  1.00  0.00    -0.322 N 
HETATM   15  C   UNL     1     -43.648 -51.992  14.553  1.00  0.00     0.111 C 
BRANCH  14  16
HETATM   16  C   UNL     1     -45.989 -52.141  13.791  1.00  0.00     0.158 C 
BRANCH  16  17
HETATM   17  C   UNL     1     -46.463 -51.299  14.997  1.00  0.00     0.187 C 
BRANCH  17  18
HETATM   18  O   UNL     1     -47.447 -51.996  15.764  1.00  0.00    -0.394 OA
HETATM   19  C   UNL     1     -47.883 -51.246  16.891  1.00  0.00     0.201 C 
ENDBRANCH  17  18
ENDBRANCH  16  17
ENDBRANCH  14  16
ENDBRANCH   7   9
BRANCH   1  20
HETATM   20  C   UNL     1     -39.708 -47.386  12.099  1.00  0.00     0.303 C 
BRANCH  20  21
HETATM   21  C   UNL     1     -40.529 -46.865  10.895  1.00  0.00     0.146 C 
BRANCH  21  22
HETATM   22  C   UNL     1     -41.821 -46.157  11.323  1.00  0.00     0.029 C 
HETATM   23  C   UNL     1     -42.879 -46.191  10.229  1.00  0.00     0.007 C 
ENDBRANCH  21  22
BRANCH  21  24
HETATM   24  O   UNL     1     -39.713 -45.968  10.134  1.00  0.00    -0.394 OA
HETATM   25  H   UNL     1     -39.138 -45.488  10.753  1.00  0.00     0.210 HD
ENDBRANCH  21  24
ENDBRANCH  20  21
ENDBRANCH   1  20
TORSDOF 8
ENDMDL
