MODEL 1
REMARK VINA RESULT:      -6.4      0.000      0.000
REMARK  4 active torsions:
REMARK  status: ('A' for Active; 'I' for Inactive)
REMARK    1  A    between atoms: C_8  and  C_9 
REMARK    2  A    between atoms: C_9  and  C_10 
REMARK       I    between atoms: C_10  and  N_12 
REMARK    3  A    between atoms: N_12  and  C_13 
REMARK    4  A    between atoms: C_13  and  C_14 
ROOT
HETATM    1  C   UNL     1     -42.989 -48.552  12.152  1.00  0.00     0.222 C 
HETATM    2  O   UNL     1     -42.955 -47.750  13.083  1.00  0.00    -0.273 OA
HETATM    3  N   UNL     1     -43.487 -49.834  12.297  1.00  0.00    -0.360 N 
HETATM    4  H   UNL     1     -43.282 -50.507  11.566  1.00  0.00     0.162 HD
ENDROOT
BRANCH   1   5
HETATM    5  C   UNL     1     -42.532 -48.186  10.751  1.00  0.00     0.146 C 
BRANCH   5   6
HETATM    6  C   UNL     1     -43.124 -46.941  10.174  1.00  0.00     0.006 A 
HETATM    7  C   UNL     1     -44.315 -46.721   9.416  1.00  0.00     0.038 A 
HETATM    8  C   UNL     1     -45.363 -47.675   8.975  1.00  0.00     0.071 C 
HETATM    9  N   UNL     1     -44.440 -45.435   9.064  1.00  0.00    -0.265 N 
HETATM   10  O   UNL     1     -43.328 -44.794   9.553  1.00  0.00    -0.242 OA
ATOM     11  HN  UNL     1     -45.207 -45.015   8.539  1.00  0.00     0.194 HD
HETATM   12  C   UNL     1     -42.542 -45.684  10.206  1.00  0.00     0.081 A 
HETATM   13  C   UNL     1     -41.285 -45.144  10.759  1.00  0.00     0.079 C 
ENDBRANCH   5   6
ENDBRANCH   1   5
BRANCH   3  14
HETATM   14  C   UNL     1     -43.888 -50.350  13.596  1.00  0.00     0.128 C 
BRANCH  14  15
HETATM   15  C   UNL     1     -44.722 -51.638  13.566  1.00  0.00     0.018 C 
HETATM   16  C   UNL     1     -46.166 -51.474  14.072  1.00  0.00     0.022 C 
HETATM   17  C   UNL     1     -46.771 -52.866  14.309  1.00  0.00     0.141 C 
HETATM   18  S   UNL     1     -45.416 -54.023  14.339  1.00  0.00     0.144 S 
HETATM   19  O   UNL     1     -45.426 -54.732  15.599  1.00  0.00    -0.228 OA
HETATM   20  O   UNL     1     -45.381 -54.711  13.062  1.00  0.00    -0.228 OA
HETATM   21  C   UNL     1     -44.128 -52.800  14.359  1.00  0.00     0.146 C 
ENDBRANCH  14  15
ENDBRANCH   3  14
TORSDOF 4
ENDMDL
MODEL 2
REMARK VINA RESULT:      -6.0      4.192      7.649
REMARK  4 active torsions:
REMARK  status: ('A' for Active; 'I' for Inactive)
REMARK    1  A    between atoms: C_8  and  C_9 
REMARK    2  A    between atoms: C_9  and  C_10 
REMARK       I    between atoms: C_10  and  N_12 
REMARK    3  A    between atoms: N_12  and  C_13 
REMARK    4  A    between atoms: C_13  and  C_14 
ROOT
HETATM    1  C   UNL     1     -42.868 -51.704  12.863  1.00  0.00     0.222 C 
HETATM    2  O   UNL     1     -42.996 -51.249  13.998  1.00  0.00    -0.273 OA
HETATM    3  N   UNL     1     -42.093 -51.083  11.900  1.00  0.00    -0.360 N 
HETATM    4  H   UNL     1     -42.207 -51.379  10.938  1.00  0.00     0.162 HD
ENDROOT
BRANCH   1   5
HETATM    5  C   UNL     1     -43.509 -53.013  12.438  1.00  0.00     0.146 C 
BRANCH   5   6
HETATM    6  C   UNL     1     -44.726 -53.423  13.202  1.00  0.00     0.006 A 
HETATM    7  C   UNL     1     -46.069 -52.934  13.180  1.00  0.00     0.038 A 
HETATM    8  C   UNL     1     -46.687 -51.861  12.363  1.00  0.00     0.071 C 
HETATM    9  N   UNL     1     -46.837 -53.575  14.071  1.00  0.00    -0.265 N 
HETATM   10  O   UNL     1     -46.015 -54.469  14.712  1.00  0.00    -0.242 OA
ATOM     11  HN  UNL     1     -47.832 -53.429  14.239  1.00  0.00     0.194 HD
HETATM   12  C   UNL     1     -44.762 -54.379  14.204  1.00  0.00     0.081 A 
HETATM   13  C   UNL     1     -43.754 -55.261  14.824  1.00  0.00     0.079 C 
ENDBRANCH   5   6
ENDBRANCH   1   5
BRANCH   3  14
HETATM   14  C   UNL     1     -41.481 -49.785  12.139  1.00  0.00     0.128 C 
BRANCH  14  15
HETATM   15  C   UNL     1     -40.015 -49.818  12.590  1.00  0.00     0.018 C 
HETATM   16  C   UNL     1     -39.065 -48.962  11.734  1.00  0.00     0.022 C 
HETATM   17  C   UNL     1     -37.615 -49.342  12.069  1.00  0.00     0.141 C 
HETATM   18  S   UNL     1     -37.673 -50.895  12.940  1.00  0.00     0.144 S 
HETATM   19  O   UNL     1     -36.873 -51.867  12.231  1.00  0.00    -0.228 OA
HETATM   20  O   UNL     1     -37.493 -50.626  14.355  1.00  0.00    -0.228 OA
HETATM   21  C   UNL     1     -39.395 -51.212  12.640  1.00  0.00     0.146 C 
ENDBRANCH  14  15
ENDBRANCH   3  14
TORSDOF 4
ENDMDL
MODEL 3
REMARK VINA RESULT:      -6.0      2.955      7.221
REMARK  4 active torsions:
REMARK  status: ('A' for Active; 'I' for Inactive)
REMARK    1  A    between atoms: C_8  and  C_9 
REMARK    2  A    between atoms: C_9  and  C_10 
REMARK       I    between atoms: C_10  and  N_12 
REMARK    3  A    between atoms: N_12  and  C_13 
REMARK    4  A    between atoms: C_13  and  C_14 
ROOT
HETATM    1  C   UNL     1     -42.665 -50.044  13.701  1.00  0.00     0.222 C 
HETATM    2  O   UNL     1     -41.446 -50.129  13.834  1.00  0.00    -0.273 OA
HETATM    3  N   UNL     1     -43.257 -49.087  12.896  1.00  0.00    -0.360 N 
HETATM    4  H   UNL     1     -44.252 -48.928  13.004  1.00  0.00     0.162 HD
ENDROOT
BRANCH   1   5
HETATM    5  C   UNL     1     -43.622 -51.015  14.369  1.00  0.00     0.146 C 
BRANCH   5   6
HETATM    6  C   UNL     1     -44.032 -52.197  13.551  1.00  0.00     0.006 A 
HETATM    7  C   UNL     1     -43.303 -53.343  13.109  1.00  0.00     0.038 A 
HETATM    8  C   UNL     1     -41.891 -53.734  13.346  1.00  0.00     0.071 C 
HETATM    9  N   UNL     1     -44.064 -54.145  12.352  1.00  0.00    -0.265 N 
HETATM   10  O   UNL     1     -45.289 -53.532  12.257  1.00  0.00    -0.242 OA
ATOM     11  HN  UNL     1     -43.790 -55.033  11.932  1.00  0.00     0.194 HD
HETATM   12  C   UNL     1     -45.273 -52.374  12.961  1.00  0.00     0.081 A 
HETATM   13  C   UNL     1     -46.519 -51.583  12.922  1.00  0.00     0.079 C 
ENDBRANCH   5   6
ENDBRANCH   1   5
BRANCH   3  14
HETATM   14  C   UNL     1     -42.473 -48.043  12.256  1.00  0.00     0.128 C 
BRANCH  14  15
HETATM   15  C   UNL     1     -43.080 -47.451  10.977  1.00  0.00     0.018 C 
HETATM   16  C   UNL     1     -44.559 -47.809  10.749  1.00  0.00     0.022 C 
HETATM   17  C   UNL     1     -44.939 -47.451   9.304  1.00  0.00     0.141 C 
HETATM   18  S   UNL     1     -43.417 -47.218   8.408  1.00  0.00     0.144 S 
HETATM   19  O   UNL     1     -43.386 -48.123   7.282  1.00  0.00    -0.228 OA
HETATM   20  O   UNL     1     -43.193 -45.792   8.264  1.00  0.00    -0.228 OA
HETATM   21  C   UNL     1     -42.351 -47.831   9.691  1.00  0.00     0.146 C 
ENDBRANCH  14  15
ENDBRANCH   3  14
TORSDOF 4
ENDMDL
MODEL 4
REMARK VINA RESULT:      -6.0      1.002      1.892
REMARK  4 active torsions:
REMARK  status: ('A' for Active; 'I' for Inactive)
REMARK    1  A    between atoms: C_8  and  C_9 
REMARK    2  A    between atoms: C_9  and  C_10 
REMARK       I    between atoms: C_10  and  N_12 
REMARK    3  A    between atoms: N_12  and  C_13 
REMARK    4  A    between atoms: C_13  and  C_14 
ROOT
HETATM    1  C   UNL     1     -42.086 -48.809  12.032  1.00  0.00     0.222 C 
HETATM    2  O   UNL     1     -41.360 -48.574  12.995  1.00  0.00    -0.273 OA
HETATM    3  N   UNL     1     -43.267 -49.518  12.150  1.00  0.00    -0.360 N 
HETATM    4  H   UNL     1     -43.696 -49.867  11.300  1.00  0.00     0.162 HD
ENDROOT
BRANCH   1   5
HETATM    5  C   UNL     1     -41.771 -48.296  10.638  1.00  0.00     0.146 C 
BRANCH   5   6
HETATM    6  C   UNL     1     -42.436 -47.017  10.245  1.00  0.00     0.006 A 
HETATM    7  C   UNL     1     -42.523 -45.752  10.903  1.00  0.00     0.038 A 
HETATM    8  C   UNL     1     -41.952 -45.301  12.197  1.00  0.00     0.071 C 
HETATM    9  N   UNL     1     -43.263 -44.885  10.200  1.00  0.00    -0.265 N 
HETATM   10  O   UNL     1     -43.700 -45.565   9.090  1.00  0.00    -0.242 OA
ATOM     11  HN  UNL     1     -43.463 -43.914  10.441  1.00  0.00     0.194 HD
HETATM   12  C   UNL     1     -43.217 -46.831   9.115  1.00  0.00     0.081 A 
HETATM   13  C   UNL     1     -43.634 -47.698   7.996  1.00  0.00     0.079 C 
ENDBRANCH   5   6
ENDBRANCH   1   5
BRANCH   3  14
HETATM   14  C   UNL     1     -43.659 -50.136  13.406  1.00  0.00     0.128 C 
BRANCH  14  15
HETATM   15  C   UNL     1     -44.446 -51.448  13.281  1.00  0.00     0.018 C 
HETATM   16  C   UNL     1     -45.909 -51.360  13.750  1.00  0.00     0.022 C 
HETATM   17  C   UNL     1     -46.471 -52.782  13.892  1.00  0.00     0.141 C 
HETATM   18  S   UNL     1     -45.079 -53.893  13.901  1.00  0.00     0.144 S 
HETATM   19  O   UNL     1     -45.101 -54.671  15.119  1.00  0.00    -0.228 OA
HETATM   20  O   UNL     1     -44.983 -54.507  12.590  1.00  0.00    -0.228 OA
HETATM   21  C   UNL     1     -43.835 -52.631  14.027  1.00  0.00     0.146 C 
ENDBRANCH  14  15
ENDBRANCH   3  14
TORSDOF 4
ENDMDL
MODEL 5
REMARK VINA RESULT:      -5.8      3.794      4.977
REMARK  4 active torsions:
REMARK  status: ('A' for Active; 'I' for Inactive)
REMARK    1  A    between atoms: C_8  and  C_9 
REMARK    2  A    between atoms: C_9  and  C_10 
REMARK       I    between atoms: C_10  and  N_12 
REMARK    3  A    between atoms: N_12  and  C_13 
REMARK    4  A    between atoms: C_13  and  C_14 
ROOT
HETATM    1  C   UNL     1     -39.821 -52.637  14.128  1.00  0.00     0.222 C 
HETATM    2  O   UNL     1     -39.109 -53.503  13.624  1.00  0.00    -0.273 OA
HETATM    3  N   UNL     1     -40.969 -52.943  14.836  1.00  0.00    -0.360 N 
HETATM    4  H   UNL     1     -41.620 -52.190  15.028  1.00  0.00     0.162 HD
ENDROOT
BRANCH   1   5
HETATM    5  C   UNL     1     -39.471 -51.161  14.059  1.00  0.00     0.146 C 
BRANCH   5   6
HETATM    6  C   UNL     1     -39.858 -50.455  12.801  1.00  0.00     0.006 A 
HETATM    7  C   UNL     1     -39.078 -49.969  11.708  1.00  0.00     0.038 A 
HETATM    8  C   UNL     1     -37.615 -50.035  11.468  1.00  0.00     0.071 C 
HETATM    9  N   UNL     1     -39.843 -49.354  10.796  1.00  0.00    -0.265 N 
HETATM   10  O   UNL     1     -41.126 -49.394  11.282  1.00  0.00    -0.242 OA
ATOM     11  HN  UNL     1     -39.534 -48.938   9.917  1.00  0.00     0.194 HD
HETATM   12  C   UNL     1     -41.139 -50.041  12.473  1.00  0.00     0.081 A 
HETATM   13  C   UNL     1     -42.454 -50.133  13.138  1.00  0.00     0.079 C 
ENDBRANCH   5   6
ENDBRANCH   1   5
BRANCH   3  14
HETATM   14  C   UNL     1     -41.470 -54.305  14.919  1.00  0.00     0.128 C 
BRANCH  14  15
HETATM   15  C   UNL     1     -42.838 -54.548  14.267  1.00  0.00     0.018 C 
HETATM   16  C   UNL     1     -43.093 -53.721  12.995  1.00  0.00     0.022 C 
HETATM   17  C   UNL     1     -44.586 -53.798  12.644  1.00  0.00     0.141 C 
HETATM   18  S   UNL     1     -45.429 -54.410  14.089  1.00  0.00     0.144 S 
HETATM   19  O   UNL     1     -46.437 -53.455  14.491  1.00  0.00    -0.228 OA
HETATM   20  O   UNL     1     -45.731 -55.813  13.874  1.00  0.00    -0.228 OA
HETATM   21  C   UNL     1     -44.033 -54.293  15.182  1.00  0.00     0.146 C 
ENDBRANCH  14  15
ENDBRANCH   3  14
TORSDOF 4
ENDMDL
MODEL 6
REMARK VINA RESULT:      -5.7      3.196      7.608
REMARK  4 active torsions:
REMARK  status: ('A' for Active; 'I' for Inactive)
REMARK    1  A    between atoms: C_8  and  C_9 
REMARK    2  A    between atoms: C_9  and  C_10 
REMARK       I    between atoms: C_10  and  N_12 
REMARK    3  A    between atoms: N_12  and  C_13 
REMARK    4  A    between atoms: C_13  and  C_14 
ROOT
HETATM    1  C   UNL     1     -42.458 -50.246  13.648  1.00  0.00     0.222 C 
HETATM    2  O   UNL     1     -41.601 -49.662  14.308  1.00  0.00    -0.273 OA
HETATM    3  N   UNL     1     -42.461 -50.236  12.265  1.00  0.00    -0.360 N 
HETATM    4  H   UNL     1     -43.305 -50.540  11.792  1.00  0.00     0.162 HD
ENDROOT
BRANCH   1   5
HETATM    5  C   UNL     1     -43.556 -51.070  14.297  1.00  0.00     0.146 C 
BRANCH   5   6
HETATM    6  C   UNL     1     -44.013 -52.269  13.531  1.00  0.00     0.006 A 
HETATM    7  C   UNL     1     -43.331 -53.464  13.146  1.00  0.00     0.038 A 
HETATM    8  C   UNL     1     -41.938 -53.903  13.408  1.00  0.00     0.071 C 
HETATM    9  N   UNL     1     -44.123 -54.267  12.422  1.00  0.00    -0.265 N 
HETATM   10  O   UNL     1     -45.320 -53.609  12.292  1.00  0.00    -0.242 OA
ATOM     11  HN  UNL     1     -43.884 -55.184  12.044  1.00  0.00     0.194 HD
HETATM   12  C   UNL     1     -45.258 -52.422  12.943  1.00  0.00     0.081 A 
HETATM   13  C   UNL     1     -46.469 -51.582  12.861  1.00  0.00     0.079 C 
ENDBRANCH   5   6
ENDBRANCH   1   5
BRANCH   3  14
HETATM   14  C   UNL     1     -41.518 -49.427  11.510  1.00  0.00     0.128 C 
BRANCH  14  15
HETATM   15  C   UNL     1     -41.954 -47.980  11.242  1.00  0.00     0.018 C 
HETATM   16  C   UNL     1     -42.691 -47.773   9.908  1.00  0.00     0.022 C 
HETATM   17  C   UNL     1     -42.767 -46.268   9.610  1.00  0.00     0.141 C 
HETATM   18  S   UNL     1     -41.588 -45.468  10.678  1.00  0.00     0.144 S 
HETATM   19  O   UNL     1     -40.647 -44.722   9.873  1.00  0.00    -0.228 OA
HETATM   20  O   UNL     1     -42.314 -44.865  11.781  1.00  0.00    -0.228 OA
HETATM   21  C   UNL     1     -40.818 -46.961  11.258  1.00  0.00     0.146 C 
ENDBRANCH  14  15
ENDBRANCH   3  14
TORSDOF 4
ENDMDL
MODEL 7
REMARK VINA RESULT:      -5.7      5.076      7.609
REMARK  4 active torsions:
REMARK  status: ('A' for Active; 'I' for Inactive)
REMARK    1  A    between atoms: C_8  and  C_9 
REMARK    2  A    between atoms: C_9  and  C_10 
REMARK       I    between atoms: C_10  and  N_12 
REMARK    3  A    between atoms: N_12  and  C_13 
REMARK    4  A    between atoms: C_13  and  C_14 
ROOT
HETATM    1  C   UNL     1     -44.001 -54.938  14.342  1.00  0.00     0.222 C 
HETATM    2  O   UNL     1     -43.631 -55.795  15.142  1.00  0.00    -0.273 OA
HETATM    3  N   UNL     1     -43.110 -54.155  13.631  1.00  0.00    -0.360 N 
HETATM    4  H   UNL     1     -43.471 -53.330  13.166  1.00  0.00     0.162 HD
ENDROOT
BRANCH   1   5
HETATM    5  C   UNL     1     -45.468 -54.704  14.028  1.00  0.00     0.146 C 
BRANCH   5   6
HETATM    6  C   UNL     1     -46.052 -53.429  14.544  1.00  0.00     0.006 A 
HETATM    7  C   UNL     1     -46.496 -52.249  13.871  1.00  0.00     0.038 A 
HETATM    8  C   UNL     1     -46.533 -51.924  12.424  1.00  0.00     0.071 C 
HETATM    9  N   UNL     1     -46.917 -51.321  14.740  1.00  0.00    -0.265 N 
HETATM   10  O   UNL     1     -46.732 -51.855  15.991  1.00  0.00    -0.242 OA
ATOM     11  HN  UNL     1     -47.299 -50.401  14.517  1.00  0.00     0.194 HD
HETATM   12  C   UNL     1     -46.215 -53.102  15.880  1.00  0.00     0.081 A 
HETATM   13  C   UNL     1     -45.928 -53.793  17.152  1.00  0.00     0.079 C 
ENDBRANCH   5   6
ENDBRANCH   1   5
BRANCH   3  14
HETATM   14  C   UNL     1     -41.679 -54.214  13.884  1.00  0.00     0.128 C 
BRANCH  14  15
HETATM   15  C   UNL     1     -40.925 -52.887  13.730  1.00  0.00     0.018 C 
HETATM   16  C   UNL     1     -41.130 -52.191  12.373  1.00  0.00     0.022 C 
HETATM   17  C   UNL     1     -40.081 -51.080  12.220  1.00  0.00     0.141 C 
HETATM   18  S   UNL     1     -38.823 -51.381  13.445  1.00  0.00     0.144 S 
HETATM   19  O   UNL     1     -37.543 -51.518  12.787  1.00  0.00    -0.228 OA
HETATM   20  O   UNL     1     -39.035 -50.460  14.546  1.00  0.00    -0.228 OA
HETATM   21  C   UNL     1     -39.415 -52.985  13.928  1.00  0.00     0.146 C 
ENDBRANCH  14  15
ENDBRANCH   3  14
TORSDOF 4
ENDMDL
MODEL 8
REMARK VINA RESULT:      -5.6      3.023      3.331
REMARK  4 active torsions:
REMARK  status: ('A' for Active; 'I' for Inactive)
REMARK    1  A    between atoms: C_8  and  C_9 
REMARK    2  A    between atoms: C_9  and  C_10 
REMARK       I    between atoms: C_10  and  N_12 
REMARK    3  A    between atoms: N_12  and  C_13 
REMARK    4  A    between atoms: C_13  and  C_14 
ROOT
HETATM    1  C   UNL     1     -42.108 -48.493  12.068  1.00  0.00     0.222 C 
HETATM    2  O   UNL     1     -41.414 -48.157  13.025  1.00  0.00    -0.273 OA
HETATM    3  N   UNL     1     -41.745 -49.518  11.214  1.00  0.00    -0.360 N 
HETATM    4  H   UNL     1     -42.237 -49.595  10.330  1.00  0.00     0.162 HD
ENDROOT
BRANCH   1   5
HETATM    5  C   UNL     1     -43.448 -47.843  11.772  1.00  0.00     0.146 C 
BRANCH   5   6
HETATM    6  C   UNL     1     -43.547 -47.107  10.476  1.00  0.00     0.006 A 
HETATM    7  C   UNL     1     -44.521 -47.153   9.431  1.00  0.00     0.038 A 
HETATM    8  C   UNL     1     -45.771 -47.945   9.317  1.00  0.00     0.071 C 
HETATM    9  N   UNL     1     -44.189 -46.343   8.417  1.00  0.00    -0.265 N 
HETATM   10  O   UNL     1     -42.985 -45.778   8.757  1.00  0.00    -0.242 OA
ATOM     11  HN  UNL     1     -44.723 -46.180   7.563  1.00  0.00     0.194 HD
HETATM   12  C   UNL     1     -42.598 -46.232   9.974  1.00  0.00     0.081 A 
HETATM   13  C   UNL     1     -41.296 -45.734  10.459  1.00  0.00     0.079 C 
ENDBRANCH   5   6
ENDBRANCH   1   5
BRANCH   3  14
HETATM   14  C   UNL     1     -40.455 -50.180  11.327  1.00  0.00     0.128 C 
BRANCH  14  15
HETATM   15  C   UNL     1     -40.473 -51.549  12.021  1.00  0.00     0.018 C 
HETATM   16  C   UNL     1     -41.862 -52.206  12.097  1.00  0.00     0.022 C 
HETATM   17  C   UNL     1     -41.803 -53.378  13.089  1.00  0.00     0.141 C 
HETATM   18  S   UNL     1     -40.313 -53.176  14.043  1.00  0.00     0.144 S 
HETATM   19  O   UNL     1     -40.653 -53.108  15.447  1.00  0.00    -0.228 OA
HETATM   20  O   UNL     1     -39.320 -54.102  13.531  1.00  0.00    -0.228 OA
HETATM   21  C   UNL     1     -39.929 -51.547  13.447  1.00  0.00     0.146 C 
ENDBRANCH  14  15
ENDBRANCH   3  14
TORSDOF 4
ENDMDL
MODEL 9
REMARK VINA RESULT:      -5.6      3.319      7.597
REMARK  4 active torsions:
REMARK  status: ('A' for Active; 'I' for Inactive)
REMARK    1  A    between atoms: C_8  and  C_9 
REMARK    2  A    between atoms: C_9  and  C_10 
REMARK       I    between atoms: C_10  and  N_12 
REMARK    3  A    between atoms: N_12  and  C_13 
REMARK    4  A    between atoms: C_13  and  C_14 
ROOT
HETATM    1  C   UNL     1     -42.641 -52.020  12.685  1.00  0.00     0.222 C 
HETATM    2  O   UNL     1     -42.641 -51.669  13.863  1.00  0.00    -0.273 OA
HETATM    3  N   UNL     1     -41.751 -51.505  11.760  1.00  0.00    -0.360 N 
HETATM    4  H   UNL     1     -41.947 -51.664  10.777  1.00  0.00     0.162 HD
ENDROOT
BRANCH   1   5
HETATM    5  C   UNL     1     -43.585 -53.087  12.159  1.00  0.00     0.146 C 
BRANCH   5   6
HETATM    6  C   UNL     1     -44.774 -53.387  13.013  1.00  0.00     0.006 A 
HETATM    7  C   UNL     1     -46.080 -52.811  13.054  1.00  0.00     0.038 A 
HETATM    8  C   UNL     1     -46.680 -51.729  12.235  1.00  0.00     0.071 C 
HETATM    9  N   UNL     1     -46.829 -53.366  14.017  1.00  0.00    -0.265 N 
HETATM   10  O   UNL     1     -46.027 -54.289  14.642  1.00  0.00    -0.242 OA
ATOM     11  HN  UNL     1     -47.800 -53.148  14.240  1.00  0.00     0.194 HD
HETATM   12  C   UNL     1     -44.806 -54.300  14.054  1.00  0.00     0.081 A 
HETATM   13  C   UNL     1     -43.819 -55.225  14.645  1.00  0.00     0.079 C 
ENDBRANCH   5   6
ENDBRANCH   1   5
BRANCH   3  14
HETATM   14  C   UNL     1     -40.842 -50.423  12.100  1.00  0.00     0.128 C 
BRANCH  14  15
HETATM   15  C   UNL     1     -41.100 -49.092  11.382  1.00  0.00     0.018 C 
HETATM   16  C   UNL     1     -39.935 -48.089  11.460  1.00  0.00     0.022 C 
HETATM   17  C   UNL     1     -40.437 -46.709  11.011  1.00  0.00     0.141 C 
HETATM   18  S   UNL     1     -42.217 -46.767  11.040  1.00  0.00     0.144 S 
HETATM   19  O   UNL     1     -42.712 -45.727  11.914  1.00  0.00    -0.228 OA
HETATM   20  O   UNL     1     -42.686 -46.923   9.676  1.00  0.00    -0.228 OA
HETATM   21  C   UNL     1     -42.337 -48.338  11.863  1.00  0.00     0.146 C 
ENDBRANCH  14  15
ENDBRANCH   3  14
TORSDOF 4
ENDMDL
