MODEL 1
REMARK VINA RESULT:      -6.2      0.000      0.000
REMARK  6 active torsions:
REMARK  status: ('A' for Active; 'I' for Inactive)
REMARK    1  A    between atoms: C_2  and  O_3 
REMARK    2  A    between atoms: O_3  and  C_4 
REMARK    3  A    between atoms: C_4  and  C_5 
REMARK    4  A    between atoms: C_5  and  N_6 
REMARK    5  A    between atoms: C_7  and  C_8 
REMARK    6  A    between atoms: C_8  and  N_9 
ROOT
HETATM    1  N   UNL     1     -41.933 -50.742  13.111  1.00  0.00    -0.325 N 
HETATM    2  C   UNL     1     -42.836 -49.791  12.652  1.00  0.00     0.114 C 
HETATM    3  N   UNL     1     -44.055 -50.312  12.573  1.00  0.00    -0.328 N 
ATOM      4  HN  UNL     1     -44.921 -49.823  12.346  1.00  0.00     0.169 HD
HETATM    5  C   UNL     1     -43.904 -51.629  12.857  1.00  0.00     0.145 A 
HETATM    6  N   UNL     1     -44.897 -52.585  12.841  1.00  0.00    -0.288 N 
HETATM    7  C   UNL     1     -46.277 -52.262  12.559  1.00  0.00     0.163 C 
HETATM    8  C   UNL     1     -44.558 -53.903  13.122  1.00  0.00     0.330 A 
HETATM    9  O   UNL     1     -45.373 -54.826  13.144  1.00  0.00    -0.246 OA
HETATM   10  N   UNL     1     -43.232 -54.170  13.390  1.00  0.00    -0.273 N 
HETATM   11  C   UNL     1     -42.195 -53.272  13.433  1.00  0.00     0.280 A 
HETATM   12  O   UNL     1     -41.046 -53.617  13.690  1.00  0.00    -0.265 OA
HETATM   13  C   UNL     1     -42.609 -51.937  13.155  1.00  0.00     0.149 A 
HETATM   14  H   UNL     1     -43.005 -55.131  13.583  1.00  0.00     0.173 HD
ENDROOT
BRANCH   2  15
HETATM   15  C   UNL     1     -42.513 -48.368  12.265  1.00  0.00     0.349 C 
BRANCH  15  16
HETATM   16  N   UNL     1     -41.797 -48.255  10.977  1.00  0.00     0.099 N 
HETATM   17  C   UNL     1     -40.646 -47.323  11.090  1.00  0.00     0.299 C 
HETATM   18  C   UNL     1     -41.019 -45.826  11.107  1.00  0.00     0.198 C 
HETATM   19  O   UNL     1     -41.824 -45.469   9.978  1.00  0.00    -0.388 OA
HETATM   20  C   UNL     1     -43.007 -46.275   9.930  1.00  0.00     0.198 C 
HETATM   21  C   UNL     1     -42.650 -47.769   9.862  1.00  0.00     0.299 C 
ENDBRANCH  15  16
ENDBRANCH   2  15
BRANCH   1  22
HETATM   22  C   UNL     1     -40.528 -50.565  13.422  1.00  0.00     0.157 C 
BRANCH  22  23
HETATM   23  C   UNL     1     -39.583 -50.792  12.236  1.00  0.00     0.187 C 
BRANCH  23  24
HETATM   24  O   UNL     1     -38.475 -51.565  12.702  1.00  0.00    -0.390 OA
BRANCH  24  25
HETATM   25  C   UNL     1     -37.221 -50.921  12.485  1.00  0.00     0.163 C 
HETATM   26  C   UNL     1     -37.363 -50.039  11.259  1.00  0.00     0.033 C 
ENDBRANCH  24  25
ENDBRANCH  23  24
ENDBRANCH  22  23
ENDBRANCH   1  22
TORSDOF 6
ENDMDL
MODEL 2
REMARK VINA RESULT:      -6.0      1.778      6.120
REMARK  6 active torsions:
REMARK  status: ('A' for Active; 'I' for Inactive)
REMARK    1  A    between atoms: C_2  and  O_3 
REMARK    2  A    between atoms: O_3  and  C_4 
REMARK    3  A    between atoms: C_4  and  C_5 
REMARK    4  A    between atoms: C_5  and  N_6 
REMARK    5  A    between atoms: C_7  and  C_8 
REMARK    6  A    between atoms: C_8  and  N_9 
ROOT
HETATM    1  N   UNL     1     -40.681 -48.700  11.800  1.00  0.00    -0.325 N 
HETATM    2  C   UNL     1     -41.720 -49.593  12.033  1.00  0.00     0.114 C 
HETATM    3  N   UNL     1     -42.814 -49.209  11.386  1.00  0.00    -0.328 N 
ATOM      4  HN  UNL     1     -43.696 -49.715  11.311  1.00  0.00     0.169 HD
HETATM    5  C   UNL     1     -42.509 -48.004  10.844  1.00  0.00     0.145 A 
HETATM    6  N   UNL     1     -43.361 -47.195  10.125  1.00  0.00    -0.288 N 
HETATM    7  C   UNL     1     -44.717 -47.585   9.812  1.00  0.00     0.163 C 
HETATM    8  C   UNL     1     -42.894 -45.966   9.674  1.00  0.00     0.330 A 
HETATM    9  O   UNL     1     -43.573 -45.179   9.015  1.00  0.00    -0.246 OA
HETATM   10  N   UNL     1     -41.594 -45.632   9.990  1.00  0.00    -0.273 N 
HETATM   11  C   UNL     1     -40.687 -46.388  10.692  1.00  0.00     0.280 A 
HETATM   12  O   UNL     1     -39.546 -45.996  10.912  1.00  0.00    -0.265 OA
HETATM   13  C   UNL     1     -41.221 -47.641  11.110  1.00  0.00     0.149 A 
HETATM   14  H   UNL     1     -41.276 -44.736   9.662  1.00  0.00     0.173 HD
ENDROOT
BRANCH   2  15
HETATM   15  C   UNL     1     -41.661 -50.819  12.911  1.00  0.00     0.349 C 
BRANCH  15  16
HETATM   16  N   UNL     1     -41.880 -52.083  12.176  1.00  0.00     0.099 N 
HETATM   17  C   UNL     1     -43.172 -52.705  12.564  1.00  0.00     0.299 C 
HETATM   18  C   UNL     1     -43.170 -53.409  13.937  1.00  0.00     0.198 C 
HETATM   19  O   UNL     1     -42.118 -54.375  14.034  1.00  0.00    -0.388 OA
HETATM   20  C   UNL     1     -40.848 -53.760  13.789  1.00  0.00     0.198 C 
HETATM   21  C   UNL     1     -40.817 -53.096  12.402  1.00  0.00     0.299 C 
ENDBRANCH  15  16
ENDBRANCH   2  15
BRANCH   1  22
HETATM   22  C   UNL     1     -39.304 -48.794  12.243  1.00  0.00     0.157 C 
BRANCH  22  23
HETATM   23  C   UNL     1     -38.485 -49.883  11.539  1.00  0.00     0.187 C 
BRANCH  23  24
HETATM   24  O   UNL     1     -38.066 -50.823  12.531  1.00  0.00    -0.390 OA
BRANCH  24  25
HETATM   25  C   UNL     1     -37.888 -50.231  13.816  1.00  0.00     0.163 C 
HETATM   26  C   UNL     1     -38.391 -51.220  14.851  1.00  0.00     0.033 C 
ENDBRANCH  24  25
ENDBRANCH  23  24
ENDBRANCH  22  23
ENDBRANCH   1  22
TORSDOF 6
ENDMDL
MODEL 3
REMARK VINA RESULT:      -6.0      1.455      6.036
REMARK  6 active torsions:
REMARK  status: ('A' for Active; 'I' for Inactive)
REMARK    1  A    between atoms: C_2  and  O_3 
REMARK    2  A    between atoms: O_3  and  C_4 
REMARK    3  A    between atoms: C_4  and  C_5 
REMARK    4  A    between atoms: C_5  and  N_6 
REMARK    5  A    between atoms: C_7  and  C_8 
REMARK    6  A    between atoms: C_8  and  N_9 
ROOT
HETATM    1  N   UNL     1     -40.943 -49.812  13.175  1.00  0.00    -0.325 N 
HETATM    2  C   UNL     1     -42.169 -50.357  12.815  1.00  0.00     0.114 C 
HETATM    3  N   UNL     1     -42.701 -49.676  11.808  1.00  0.00    -0.328 N 
ATOM      4  HN  UNL     1     -43.551 -49.900  11.291  1.00  0.00     0.169 HD
HETATM    5  C   UNL     1     -41.874 -48.619  11.610  1.00  0.00     0.145 A 
HETATM    6  N   UNL     1     -42.055 -47.602  10.698  1.00  0.00    -0.288 N 
HETATM    7  C   UNL     1     -43.168 -47.580   9.776  1.00  0.00     0.163 C 
HETATM    8  C   UNL     1     -41.125 -46.571  10.655  1.00  0.00     0.330 A 
HETATM    9  O   UNL     1     -41.192 -45.625   9.869  1.00  0.00    -0.246 OA
HETATM   10  N   UNL     1     -40.076 -46.630  11.548  1.00  0.00    -0.273 N 
HETATM   11  C   UNL     1     -39.827 -47.612  12.475  1.00  0.00     0.280 A 
HETATM   12  O   UNL     1     -38.854 -47.570  13.221  1.00  0.00    -0.265 OA
HETATM   13  C   UNL     1     -40.805 -48.648  12.456  1.00  0.00     0.149 A 
HETATM   14  H   UNL     1     -39.418 -45.871  11.508  1.00  0.00     0.173 HD
ENDROOT
BRANCH   2  15
HETATM   15  C   UNL     1     -42.846 -51.538  13.469  1.00  0.00     0.349 C 
BRANCH  15  16
HETATM   16  N   UNL     1     -42.819 -52.764  12.645  1.00  0.00     0.099 N 
HETATM   17  C   UNL     1     -44.196 -53.241  12.358  1.00  0.00     0.299 C 
HETATM   18  C   UNL     1     -44.898 -53.950  13.535  1.00  0.00     0.198 C 
HETATM   19  O   UNL     1     -44.109 -55.027  14.051  1.00  0.00    -0.388 OA
HETATM   20  C   UNL     1     -42.818 -54.555  14.454  1.00  0.00     0.198 C 
HETATM   21  C   UNL     1     -42.085 -53.891  13.277  1.00  0.00     0.299 C 
ENDBRANCH  15  16
ENDBRANCH   2  15
BRANCH   1  22
HETATM   22  C   UNL     1     -40.000 -50.302  14.161  1.00  0.00     0.157 C 
BRANCH  22  23
HETATM   23  C   UNL     1     -39.249 -51.572  13.743  1.00  0.00     0.187 C 
BRANCH  23  24
HETATM   24  O   UNL     1     -38.759 -51.373  12.415  1.00  0.00    -0.390 OA
BRANCH  24  25
HETATM   25  C   UNL     1     -37.450 -50.806  12.387  1.00  0.00     0.163 C 
HETATM   26  C   UNL     1     -37.337 -49.976  11.122  1.00  0.00     0.033 C 
ENDBRANCH  24  25
ENDBRANCH  23  24
ENDBRANCH  22  23
ENDBRANCH   1  22
TORSDOF 6
ENDMDL
MODEL 4
REMARK VINA RESULT:      -5.8      3.660      7.092
REMARK  6 active torsions:
REMARK  status: ('A' for Active; 'I' for Inactive)
REMARK    1  A    between atoms: C_2  and  O_3 
REMARK    2  A    between atoms: O_3  and  C_4 
REMARK    3  A    between atoms: C_4  and  C_5 
REMARK    4  A    between atoms: C_5  and  N_6 
REMARK    5  A    between atoms: C_7  and  C_8 
REMARK    6  A    between atoms: C_8  and  N_9 
ROOT
HETATM    1  N   UNL     1     -40.777 -54.064  14.322  1.00  0.00    -0.325 N 
HETATM    2  C   UNL     1     -41.255 -54.636  15.494  1.00  0.00     0.114 C 
HETATM    3  N   UNL     1     -42.572 -54.787  15.432  1.00  0.00    -0.328 N 
ATOM      4  HN  UNL     1     -43.173 -55.252  16.112  1.00  0.00     0.169 HD
HETATM    5  C   UNL     1     -42.949 -54.192  14.274  1.00  0.00     0.145 A 
HETATM    6  N   UNL     1     -44.240 -54.052  13.812  1.00  0.00    -0.288 N 
HETATM    7  C   UNL     1     -45.377 -54.595  14.519  1.00  0.00     0.163 C 
HETATM    8  C   UNL     1     -44.452 -53.377  12.616  1.00  0.00     0.330 A 
HETATM    9  O   UNL     1     -45.564 -53.210  12.115  1.00  0.00    -0.246 OA
HETATM   10  N   UNL     1     -43.341 -52.877  11.969  1.00  0.00    -0.273 N 
HETATM   11  C   UNL     1     -42.030 -52.986  12.362  1.00  0.00     0.280 A 
HETATM   12  O   UNL     1     -41.112 -52.507  11.704  1.00  0.00    -0.265 OA
HETATM   13  C   UNL     1     -41.879 -53.703  13.584  1.00  0.00     0.149 A 
HETATM   14  H   UNL     1     -43.515 -52.384  11.109  1.00  0.00     0.173 HD
ENDROOT
BRANCH   2  15
HETATM   15  C   UNL     1     -40.430 -55.022  16.699  1.00  0.00     0.349 C 
BRANCH  15  16
HETATM   16  N   UNL     1     -39.611 -56.234  16.490  1.00  0.00     0.099 N 
HETATM   17  C   UNL     1     -40.196 -57.399  17.202  1.00  0.00     0.299 C 
HETATM   18  C   UNL     1     -39.970 -57.411  18.728  1.00  0.00     0.198 C 
HETATM   19  O   UNL     1     -38.582 -57.287  19.057  1.00  0.00    -0.388 OA
HETATM   20  C   UNL     1     -38.034 -56.095  18.483  1.00  0.00     0.198 C 
HETATM   21  C   UNL     1     -38.207 -56.092  16.955  1.00  0.00     0.299 C 
ENDBRANCH  15  16
ENDBRANCH   2  15
BRANCH   1  22
HETATM   22  C   UNL     1     -39.400 -53.811  13.946  1.00  0.00     0.157 C 
BRANCH  22  23
HETATM   23  C   UNL     1     -38.899 -52.402  14.285  1.00  0.00     0.187 C 
BRANCH  23  24
HETATM   24  O   UNL     1     -38.113 -51.941  13.184  1.00  0.00    -0.390 OA
BRANCH  24  25
HETATM   25  C   UNL     1     -38.299 -50.552  12.915  1.00  0.00     0.163 C 
HETATM   26  C   UNL     1     -37.559 -50.230  11.630  1.00  0.00     0.033 C 
ENDBRANCH  24  25
ENDBRANCH  23  24
ENDBRANCH  22  23
ENDBRANCH   1  22
TORSDOF 6
ENDMDL
MODEL 5
REMARK VINA RESULT:      -5.8      1.694      6.146
REMARK  6 active torsions:
REMARK  status: ('A' for Active; 'I' for Inactive)
REMARK    1  A    between atoms: C_2  and  O_3 
REMARK    2  A    between atoms: O_3  and  C_4 
REMARK    3  A    between atoms: C_4  and  C_5 
REMARK    4  A    between atoms: C_5  and  N_6 
REMARK    5  A    between atoms: C_7  and  C_8 
REMARK    6  A    between atoms: C_8  and  N_9 
ROOT
HETATM    1  N   UNL     1     -41.538 -51.246  12.383  1.00  0.00    -0.325 N 
HETATM    2  C   UNL     1     -42.830 -50.995  12.830  1.00  0.00     0.114 C 
HETATM    3  N   UNL     1     -43.193 -49.755  12.526  1.00  0.00    -0.328 N 
ATOM      4  HN  UNL     1     -44.110 -49.330  12.660  1.00  0.00     0.169 HD
HETATM    5  C   UNL     1     -42.086 -49.174  11.999  1.00  0.00     0.145 A 
HETATM    6  N   UNL     1     -41.971 -47.864  11.588  1.00  0.00    -0.288 N 
HETATM    7  C   UNL     1     -43.083 -46.941  11.626  1.00  0.00     0.163 C 
HETATM    8  C   UNL     1     -40.746 -47.421  11.106  1.00  0.00     0.330 A 
HETATM    9  O   UNL     1     -40.546 -46.274  10.704  1.00  0.00    -0.246 OA
HETATM   10  N   UNL     1     -39.711 -48.332  11.081  1.00  0.00    -0.273 N 
HETATM   11  C   UNL     1     -39.754 -49.650  11.465  1.00  0.00     0.280 A 
HETATM   12  O   UNL     1     -38.770 -50.380  11.395  1.00  0.00    -0.265 OA
HETATM   13  C   UNL     1     -41.040 -50.047  11.931  1.00  0.00     0.149 A 
HETATM   14  H   UNL     1     -38.830 -47.991  10.737  1.00  0.00     0.173 HD
ENDROOT
BRANCH   2  15
HETATM   15  C   UNL     1     -43.715 -51.960  13.582  1.00  0.00     0.349 C 
BRANCH  15  16
HETATM   16  N   UNL     1     -44.579 -52.775  12.702  1.00  0.00     0.099 N 
HETATM   17  C   UNL     1     -46.015 -52.540  13.002  1.00  0.00     0.299 C 
HETATM   18  C   UNL     1     -46.534 -53.224  14.283  1.00  0.00     0.198 C 
HETATM   19  O   UNL     1     -46.264 -54.630  14.277  1.00  0.00    -0.388 OA
HETATM   20  C   UNL     1     -44.861 -54.872  14.119  1.00  0.00     0.198 C 
HETATM   21  C   UNL     1     -44.339 -54.237  12.819  1.00  0.00     0.299 C 
ENDBRANCH  15  16
ENDBRANCH   2  15
BRANCH   1  22
HETATM   22  C   UNL     1     -40.800 -52.492  12.433  1.00  0.00     0.157 C 
BRANCH  22  23
HETATM   23  C   UNL     1     -40.028 -52.719  13.738  1.00  0.00     0.187 C 
BRANCH  23  24
HETATM   24  O   UNL     1     -39.157 -53.836  13.542  1.00  0.00    -0.390 OA
BRANCH  24  25
HETATM   25  C   UNL     1     -39.005 -54.631  14.716  1.00  0.00     0.163 C 
HETATM   26  C   UNL     1     -39.944 -54.077  15.772  1.00  0.00     0.033 C 
ENDBRANCH  24  25
ENDBRANCH  23  24
ENDBRANCH  22  23
ENDBRANCH   1  22
TORSDOF 6
ENDMDL
MODEL 6
REMARK VINA RESULT:      -5.7      2.319      6.228
REMARK  6 active torsions:
REMARK  status: ('A' for Active; 'I' for Inactive)
REMARK    1  A    between atoms: C_2  and  O_3 
REMARK    2  A    between atoms: O_3  and  C_4 
REMARK    3  A    between atoms: C_4  and  C_5 
REMARK    4  A    between atoms: C_5  and  N_6 
REMARK    5  A    between atoms: C_7  and  C_8 
REMARK    6  A    between atoms: C_8  and  N_9 
ROOT
HETATM    1  N   UNL     1     -40.474 -47.922  11.718  1.00  0.00    -0.325 N 
HETATM    2  C   UNL     1     -40.956 -49.127  11.222  1.00  0.00     0.114 C 
HETATM    3  N   UNL     1     -41.885 -48.909  10.300  1.00  0.00    -0.328 N 
ATOM      4  HN  UNL     1     -42.348 -49.604   9.714  1.00  0.00     0.169 HD
HETATM    5  C   UNL     1     -42.088 -47.569  10.300  1.00  0.00     0.145 A 
HETATM    6  N   UNL     1     -43.009 -46.883   9.538  1.00  0.00    -0.288 N 
HETATM    7  C   UNL     1     -43.860 -47.544   8.575  1.00  0.00     0.163 C 
HETATM    8  C   UNL     1     -43.111 -45.506   9.693  1.00  0.00     0.330 A 
HETATM    9  O   UNL     1     -43.894 -44.805   9.052  1.00  0.00    -0.246 OA
HETATM   10  N   UNL     1     -42.279 -44.912  10.619  1.00  0.00    -0.273 N 
HETATM   11  C   UNL     1     -41.335 -45.527  11.404  1.00  0.00     0.280 A 
HETATM   12  O   UNL     1     -40.639 -44.899  12.195  1.00  0.00    -0.265 OA
HETATM   13  C   UNL     1     -41.267 -46.933  11.185  1.00  0.00     0.149 A 
HETATM   14  H   UNL     1     -42.374 -43.916  10.723  1.00  0.00     0.173 HD
ENDROOT
BRANCH   2  15
HETATM   15  C   UNL     1     -40.528 -50.506  11.662  1.00  0.00     0.349 C 
BRANCH  15  16
HETATM   16  N   UNL     1     -41.033 -50.883  12.999  1.00  0.00     0.099 N 
HETATM   17  C   UNL     1     -40.303 -52.063  13.529  1.00  0.00     0.299 C 
HETATM   18  C   UNL     1     -40.709 -53.414  12.905  1.00  0.00     0.198 C 
HETATM   19  O   UNL     1     -42.121 -53.636  12.996  1.00  0.00    -0.388 OA
HETATM   20  C   UNL     1     -42.838 -52.564  12.371  1.00  0.00     0.198 C 
HETATM   21  C   UNL     1     -42.481 -51.215  13.016  1.00  0.00     0.299 C 
ENDBRANCH  15  16
ENDBRANCH   2  15
BRANCH   1  22
HETATM   22  C   UNL     1     -39.400 -47.710  12.667  1.00  0.00     0.157 C 
BRANCH  22  23
HETATM   23  C   UNL     1     -39.831 -47.772  14.137  1.00  0.00     0.187 C 
BRANCH  23  24
HETATM   24  O   UNL     1     -38.746 -48.320  14.889  1.00  0.00    -0.390 OA
BRANCH  24  25
HETATM   25  C   UNL     1     -37.903 -49.165  14.108  1.00  0.00     0.163 C 
HETATM   26  C   UNL     1     -37.361 -50.247  15.024  1.00  0.00     0.033 C 
ENDBRANCH  24  25
ENDBRANCH  23  24
ENDBRANCH  22  23
ENDBRANCH   1  22
TORSDOF 6
ENDMDL
MODEL 7
REMARK VINA RESULT:      -5.6      1.844      2.343
REMARK  6 active torsions:
REMARK  status: ('A' for Active; 'I' for Inactive)
REMARK    1  A    between atoms: C_2  and  O_3 
REMARK    2  A    between atoms: O_3  and  C_4 
REMARK    3  A    between atoms: C_4  and  C_5 
REMARK    4  A    between atoms: C_5  and  N_6 
REMARK    5  A    between atoms: C_7  and  C_8 
REMARK    6  A    between atoms: C_8  and  N_9 
ROOT
HETATM    1  N   UNL     1     -40.486 -50.311  12.166  1.00  0.00    -0.325 N 
HETATM    2  C   UNL     1     -41.654 -49.715  11.709  1.00  0.00     0.114 C 
HETATM    3  N   UNL     1     -42.712 -50.426  12.081  1.00  0.00    -0.328 N 
ATOM      4  HN  UNL     1     -43.695 -50.183  11.954  1.00  0.00     0.169 HD
HETATM    5  C   UNL     1     -42.211 -51.543  12.663  1.00  0.00     0.145 A 
HETATM    6  N   UNL     1     -42.940 -52.603  13.155  1.00  0.00    -0.288 N 
HETATM    7  C   UNL     1     -44.385 -52.616  13.150  1.00  0.00     0.163 C 
HETATM    8  C   UNL     1     -42.260 -53.692  13.687  1.00  0.00     0.330 A 
HETATM    9  O   UNL     1     -42.820 -54.680  14.161  1.00  0.00    -0.246 OA
HETATM   10  N   UNL     1     -40.881 -53.640  13.678  1.00  0.00    -0.273 N 
HETATM   11  C   UNL     1     -40.091 -52.617  13.215  1.00  0.00     0.280 A 
HETATM   12  O   UNL     1     -38.866 -52.671  13.260  1.00  0.00    -0.265 OA
HETATM   13  C   UNL     1     -40.847 -51.525  12.699  1.00  0.00     0.149 A 
HETATM   14  H   UNL     1     -40.406 -54.440  14.059  1.00  0.00     0.173 HD
ENDROOT
BRANCH   2  15
HETATM   15  C   UNL     1     -41.748 -48.454  10.884  1.00  0.00     0.349 C 
BRANCH  15  16
HETATM   16  N   UNL     1     -42.909 -47.608  11.229  1.00  0.00     0.099 N 
HETATM   17  C   UNL     1     -43.803 -47.428  10.056  1.00  0.00     0.299 C 
HETATM   18  C   UNL     1     -43.291 -46.434   8.993  1.00  0.00     0.198 C 
HETATM   19  O   UNL     1     -42.981 -45.159   9.567  1.00  0.00    -0.388 OA
HETATM   20  C   UNL     1     -42.018 -45.303  10.618  1.00  0.00     0.198 C 
HETATM   21  C   UNL     1     -42.536 -46.253  11.711  1.00  0.00     0.299 C 
ENDBRANCH  15  16
ENDBRANCH   2  15
BRANCH   1  22
HETATM   22  C   UNL     1     -39.127 -49.818  12.056  1.00  0.00     0.157 C 
BRANCH  22  23
HETATM   23  C   UNL     1     -38.659 -48.979  13.251  1.00  0.00     0.187 C 
BRANCH  23  24
HETATM   24  O   UNL     1     -37.584 -49.679  13.882  1.00  0.00    -0.390 OA
BRANCH  24  25
HETATM   25  C   UNL     1     -37.230 -49.125  15.148  1.00  0.00     0.163 C 
HETATM   26  C   UNL     1     -36.887 -47.663  14.929  1.00  0.00     0.033 C 
ENDBRANCH  24  25
ENDBRANCH  23  24
ENDBRANCH  22  23
ENDBRANCH   1  22
TORSDOF 6
ENDMDL
MODEL 8
REMARK VINA RESULT:      -5.5      2.698      6.677
REMARK  6 active torsions:
REMARK  status: ('A' for Active; 'I' for Inactive)
REMARK    1  A    between atoms: C_2  and  O_3 
REMARK    2  A    between atoms: O_3  and  C_4 
REMARK    3  A    between atoms: C_4  and  C_5 
REMARK    4  A    between atoms: C_5  and  N_6 
REMARK    5  A    between atoms: C_7  and  C_8 
REMARK    6  A    between atoms: C_8  and  N_9 
ROOT
HETATM    1  N   UNL     1     -41.297 -46.894  10.665  1.00  0.00    -0.325 N 
HETATM    2  C   UNL     1     -41.536 -48.258  10.568  1.00  0.00     0.114 C 
HETATM    3  N   UNL     1     -42.685 -48.483   9.941  1.00  0.00    -0.328 N 
ATOM      4  HN  UNL     1     -43.069 -49.385   9.660  1.00  0.00     0.169 HD
HETATM    5  C   UNL     1     -43.239 -47.259   9.754  1.00  0.00     0.145 A 
HETATM    6  N   UNL     1     -44.469 -46.999   9.188  1.00  0.00    -0.288 N 
HETATM    7  C   UNL     1     -45.315 -48.046   8.663  1.00  0.00     0.163 C 
HETATM    8  C   UNL     1     -44.902 -45.681   9.109  1.00  0.00     0.330 A 
HETATM    9  O   UNL     1     -45.977 -45.346   8.612  1.00  0.00    -0.246 OA
HETATM   10  N   UNL     1     -44.064 -44.711   9.618  1.00  0.00    -0.273 N 
HETATM   11  C   UNL     1     -42.827 -44.893  10.185  1.00  0.00     0.280 A 
HETATM   12  O   UNL     1     -42.158 -43.953  10.602  1.00  0.00    -0.265 OA
HETATM   13  C   UNL     1     -42.433 -46.262  10.220  1.00  0.00     0.149 A 
HETATM   14  H   UNL     1     -44.398 -43.764   9.559  1.00  0.00     0.173 HD
ENDROOT
BRANCH   2  15
HETATM   15  C   UNL     1     -40.655 -49.359  11.107  1.00  0.00     0.349 C 
BRANCH  15  16
HETATM   16  N   UNL     1     -41.103 -49.887  12.413  1.00  0.00     0.099 N 
HETATM   17  C   UNL     1     -39.952 -50.079  13.332  1.00  0.00     0.299 C 
HETATM   18  C   UNL     1     -39.082 -51.318  13.037  1.00  0.00     0.198 C 
HETATM   19  O   UNL     1     -39.866 -52.515  12.986  1.00  0.00    -0.388 OA
HETATM   20  C   UNL     1     -40.905 -52.393  12.007  1.00  0.00     0.198 C 
HETATM   21  C   UNL     1     -41.812 -51.190  12.317  1.00  0.00     0.299 C 
ENDBRANCH  15  16
ENDBRANCH   2  15
BRANCH   1  22
HETATM   22  C   UNL     1     -40.123 -46.227  11.194  1.00  0.00     0.157 C 
BRANCH  22  23
HETATM   23  C   UNL     1     -40.165 -45.977  12.706  1.00  0.00     0.187 C 
BRANCH  23  24
HETATM   24  O   UNL     1     -39.090 -45.092  13.033  1.00  0.00    -0.390 OA
BRANCH  24  25
HETATM   25  C   UNL     1     -39.501 -43.729  13.115  1.00  0.00     0.163 C 
HETATM   26  C   UNL     1     -40.803 -43.687  13.895  1.00  0.00     0.033 C 
ENDBRANCH  24  25
ENDBRANCH  23  24
ENDBRANCH  22  23
ENDBRANCH   1  22
TORSDOF 6
ENDMDL
MODEL 9
REMARK VINA RESULT:      -5.4      3.715      7.084
REMARK  6 active torsions:
REMARK  status: ('A' for Active; 'I' for Inactive)
REMARK    1  A    between atoms: C_2  and  O_3 
REMARK    2  A    between atoms: O_3  and  C_4 
REMARK    3  A    between atoms: C_4  and  C_5 
REMARK    4  A    between atoms: C_5  and  N_6 
REMARK    5  A    between atoms: C_7  and  C_8 
REMARK    6  A    between atoms: C_8  and  N_9 
ROOT
HETATM    1  N   UNL     1     -40.196 -46.142  12.149  1.00  0.00    -0.325 N 
HETATM    2  C   UNL     1     -40.081 -47.464  11.739  1.00  0.00     0.114 C 
HETATM    3  N   UNL     1     -40.914 -47.711  10.736  1.00  0.00    -0.328 N 
ATOM      4  HN  UNL     1     -40.984 -48.569  10.189  1.00  0.00     0.169 HD
HETATM    5  C   UNL     1     -41.652 -46.583  10.592  1.00  0.00     0.145 A 
HETATM    6  N   UNL     1     -42.689 -46.394   9.704  1.00  0.00    -0.288 N 
HETATM    7  C   UNL     1     -43.084 -47.406   8.751  1.00  0.00     0.163 C 
HETATM    8  C   UNL     1     -43.367 -45.182   9.718  1.00  0.00     0.330 A 
HETATM    9  O   UNL     1     -44.297 -44.913   8.957  1.00  0.00    -0.246 OA
HETATM   10  N   UNL     1     -42.958 -44.241  10.639  1.00  0.00    -0.273 N 
HETATM   11  C   UNL     1     -41.932 -44.354  11.545  1.00  0.00     0.280 A 
HETATM   12  O   UNL     1     -41.646 -43.447  12.320  1.00  0.00    -0.265 OA
HETATM   13  C   UNL     1     -41.266 -45.611  11.469  1.00  0.00     0.149 A 
HETATM   14  H   UNL     1     -43.466 -43.373  10.640  1.00  0.00     0.173 HD
ENDROOT
BRANCH   2  15
HETATM   15  C   UNL     1     -39.169 -48.507  12.339  1.00  0.00     0.349 C 
BRANCH  15  16
HETATM   16  N   UNL     1     -39.069 -49.740  11.530  1.00  0.00     0.099 N 
HETATM   17  C   UNL     1     -39.958 -50.802  12.069  1.00  0.00     0.299 C 
HETATM   18  C   UNL     1     -39.440 -51.499  13.343  1.00  0.00     0.198 C 
HETATM   19  O   UNL     1     -38.118 -52.018  13.162  1.00  0.00    -0.388 OA
HETATM   20  C   UNL     1     -37.219 -50.975  12.767  1.00  0.00     0.198 C 
HETATM   21  C   UNL     1     -37.696 -50.303  11.469  1.00  0.00     0.299 C 
ENDBRANCH  15  16
ENDBRANCH   2  15
BRANCH   1  22
HETATM   22  C   UNL     1     -39.412 -45.443  13.148  1.00  0.00     0.157 C 
BRANCH  22  23
HETATM   23  C   UNL     1     -39.957 -45.560  14.577  1.00  0.00     0.187 C 
BRANCH  23  24
HETATM   24  O   UNL     1     -39.188 -44.690  15.411  1.00  0.00    -0.390 OA
BRANCH  24  25
HETATM   25  C   UNL     1     -39.309 -45.002  16.797  1.00  0.00     0.163 C 
HETATM   26  C   UNL     1     -39.789 -46.437  16.905  1.00  0.00     0.033 C 
ENDBRANCH  24  25
ENDBRANCH  23  24
ENDBRANCH  22  23
ENDBRANCH   1  22
TORSDOF 6
ENDMDL
