MODEL 1
REMARK VINA RESULT:      -5.4      0.000      0.000
REMARK  6 active torsions:
REMARK  status: ('A' for Active; 'I' for Inactive)
REMARK    1  A    between atoms: C_2  and  C_3 
REMARK    2  A    between atoms: C_3  and  C_5 
REMARK    3  A    between atoms: C_3  and  N_17 
REMARK    4  A    between atoms: C_5  and  N_6 
REMARK       I    between atoms: N_6  and  C_7 
REMARK    5  A    between atoms: C_7  and  C_9 
REMARK    6  A    between atoms: C_9  and  N_10 
ROOT
HETATM    1  N   UNL     1     -42.168 -54.368  14.239  1.00  0.00    -0.357 N 
HETATM    2  C   UNL     1     -43.273 -55.025  14.702  1.00  0.00     0.235 C 
HETATM    3  O   UNL     1     -43.162 -55.834  15.622  1.00  0.00    -0.272 OA
HETATM    4  H   UNL     1     -41.353 -54.522  14.822  1.00  0.00     0.162 HD
ENDROOT
BRANCH   1   5
HETATM    5  C   UNL     1     -42.076 -53.315  13.224  1.00  0.00     0.153 C 
BRANCH   5   6
HETATM    6  C   UNL     1     -41.800 -51.823  13.700  1.00  0.00     0.040 C 
HETATM    7  C   UNL     1     -41.709 -51.958  15.249  1.00  0.00     0.040 C 
BRANCH   6   8
HETATM    8  C   UNL     1     -42.933 -50.787  13.370  1.00  0.00     0.027 C 
HETATM    9  C   UNL     1     -43.451 -49.762  14.392  1.00  0.00     0.007 C 
ENDBRANCH   6   8
BRANCH   6  10
HETATM   10  N   UNL     1     -40.446 -51.392  13.192  1.00  0.00    -0.398 N 
HETATM   11  C   UNL     1     -39.543 -50.676  14.119  1.00  0.00     0.144 C 
HETATM   12  C   UNL     1     -39.654 -49.132  14.120  1.00  0.00     0.187 C 
HETATM   13  O   UNL     1     -39.637 -48.566  12.806  1.00  0.00    -0.388 OA
HETATM   14  C   UNL     1     -40.590 -49.196  11.945  1.00  0.00     0.187 C 
HETATM   15  C   UNL     1     -40.345 -50.707  11.889  1.00  0.00     0.144 C 
ENDBRANCH   6  10
ENDBRANCH   5   6
ENDBRANCH   1   5
BRANCH   2  16
HETATM   16  C   UNL     1     -44.587 -54.746  14.010  1.00  0.00     0.234 C 
BRANCH  16  17
HETATM   17  N   UNL     1     -45.230 -53.491  14.316  1.00  0.00    -0.316 N 
HETATM   18  C   UNL     1     -45.406 -53.134  15.637  1.00  0.00     0.095 A 
HETATM   19  C   UNL     1     -46.174 -52.089  15.971  1.00  0.00     0.017 A 
HETATM   20  C   UNL     1     -46.826 -51.326  14.933  1.00  0.00     0.007 A 
HETATM   21  C   UNL     1     -46.667 -51.638  13.643  1.00  0.00     0.074 A 
HETATM   22  C   UNL     1     -45.816 -52.794  13.258  1.00  0.00     0.247 A 
HETATM   23  O   UNL     1     -45.716 -53.093  12.071  1.00  0.00    -0.268 OA
ENDBRANCH  16  17
ENDBRANCH   2  16
TORSDOF 6
ENDMDL
MODEL 2
REMARK VINA RESULT:      -5.3      4.263      7.147
REMARK  6 active torsions:
REMARK  status: ('A' for Active; 'I' for Inactive)
REMARK    1  A    between atoms: C_2  and  C_3 
REMARK    2  A    between atoms: C_3  and  C_5 
REMARK    3  A    between atoms: C_3  and  N_17 
REMARK    4  A    between atoms: C_5  and  N_6 
REMARK       I    between atoms: N_6  and  C_7 
REMARK    5  A    between atoms: C_7  and  C_9 
REMARK    6  A    between atoms: C_9  and  N_10 
ROOT
HETATM    1  N   UNL     1     -39.683 -47.127  10.990  1.00  0.00    -0.357 N 
HETATM    2  C   UNL     1     -40.361 -45.960  10.779  1.00  0.00     0.235 C 
HETATM    3  O   UNL     1     -39.870 -45.088  10.064  1.00  0.00    -0.272 OA
HETATM    4  H   UNL     1     -38.867 -47.213  10.394  1.00  0.00     0.162 HD
ENDROOT
BRANCH   1   5
HETATM    5  C   UNL     1     -40.105 -48.322  11.724  1.00  0.00     0.153 C 
BRANCH   5   6
HETATM    6  C   UNL     1     -39.204 -48.831  12.932  1.00  0.00     0.040 C 
HETATM    7  C   UNL     1     -39.062 -47.563  13.824  1.00  0.00     0.040 C 
BRANCH   6   8
HETATM    8  C   UNL     1     -37.761 -49.314  12.543  1.00  0.00     0.027 C 
HETATM    9  C   UNL     1     -37.433 -49.957  11.186  1.00  0.00     0.007 C 
ENDBRANCH   6   8
BRANCH   6  10
HETATM   10  N   UNL     1     -39.976 -49.864  13.714  1.00  0.00    -0.398 N 
HETATM   11  C   UNL     1     -39.222 -50.808  14.568  1.00  0.00     0.144 C 
HETATM   12  C   UNL     1     -38.790 -52.135  13.899  1.00  0.00     0.187 C 
HETATM   13  O   UNL     1     -39.853 -52.781  13.192  1.00  0.00    -0.388 OA
HETATM   14  C   UNL     1     -40.509 -51.885  12.288  1.00  0.00     0.187 C 
HETATM   15  C   UNL     1     -41.025 -50.652  13.037  1.00  0.00     0.144 C 
ENDBRANCH   6  10
ENDBRANCH   5   6
ENDBRANCH   1   5
BRANCH   2  16
HETATM   16  C   UNL     1     -41.684 -45.788  11.490  1.00  0.00     0.234 C 
BRANCH  16  17
HETATM   17  N   UNL     1     -42.876 -46.037  10.716  1.00  0.00    -0.316 N 
HETATM   18  C   UNL     1     -43.317 -47.335  10.566  1.00  0.00     0.095 A 
HETATM   19  C   UNL     1     -44.289 -47.635   9.694  1.00  0.00     0.017 A 
HETATM   20  C   UNL     1     -44.882 -46.584   8.902  1.00  0.00     0.007 A 
HETATM   21  C   UNL     1     -44.484 -45.313   9.031  1.00  0.00     0.074 A 
HETATM   22  C   UNL     1     -43.408 -44.966   9.995  1.00  0.00     0.247 A 
HETATM   23  O   UNL     1     -43.025 -43.802  10.070  1.00  0.00    -0.268 OA
ENDBRANCH  16  17
ENDBRANCH   2  16
TORSDOF 6
ENDMDL
MODEL 3
REMARK VINA RESULT:      -5.3      1.799      6.686
REMARK  6 active torsions:
REMARK  status: ('A' for Active; 'I' for Inactive)
REMARK    1  A    between atoms: C_2  and  C_3 
REMARK    2  A    between atoms: C_3  and  C_5 
REMARK    3  A    between atoms: C_3  and  N_17 
REMARK    4  A    between atoms: C_5  and  N_6 
REMARK       I    between atoms: N_6  and  C_7 
REMARK    5  A    between atoms: C_7  and  C_9 
REMARK    6  A    between atoms: C_9  and  N_10 
ROOT
HETATM    1  N   UNL     1     -43.589 -49.799  12.512  1.00  0.00    -0.357 N 
HETATM    2  C   UNL     1     -42.523 -49.049  12.103  1.00  0.00     0.235 C 
HETATM    3  O   UNL     1     -42.498 -48.593  10.960  1.00  0.00    -0.272 OA
HETATM    4  H   UNL     1     -44.351 -49.787  11.843  1.00  0.00     0.162 HD
ENDROOT
BRANCH   1   5
HETATM    5  C   UNL     1     -43.869 -50.364  13.834  1.00  0.00     0.153 C 
BRANCH   5   6
HETATM    6  C   UNL     1     -44.822 -51.633  13.933  1.00  0.00     0.040 C 
HETATM    7  C   UNL     1     -45.899 -51.351  12.845  1.00  0.00     0.040 C 
BRANCH   6   8
HETATM    8  C   UNL     1     -45.559 -51.821  15.307  1.00  0.00     0.027 C 
HETATM    9  C   UNL     1     -47.078 -51.648  15.470  1.00  0.00     0.007 C 
ENDBRANCH   6   8
BRANCH   6  10
HETATM   10  N   UNL     1     -44.048 -52.858  13.511  1.00  0.00    -0.398 N 
HETATM   11  C   UNL     1     -44.785 -53.969  12.870  1.00  0.00     0.144 C 
HETATM   12  C   UNL     1     -45.331 -55.061  13.821  1.00  0.00     0.187 C 
HETATM   13  O   UNL     1     -44.357 -55.531  14.758  1.00  0.00    -0.388 OA
HETATM   14  C   UNL     1     -43.723 -54.451  15.451  1.00  0.00     0.187 C 
HETATM   15  C   UNL     1     -43.093 -53.472  14.455  1.00  0.00     0.144 C 
ENDBRANCH   6  10
ENDBRANCH   5   6
ENDBRANCH   1   5
BRANCH   2  16
HETATM   16  C   UNL     1     -41.391 -48.858  13.086  1.00  0.00     0.234 C 
BRANCH  16  17
HETATM   17  N   UNL     1     -40.164 -49.563  12.810  1.00  0.00    -0.316 N 
HETATM   18  C   UNL     1     -39.946 -50.787  13.409  1.00  0.00     0.095 A 
HETATM   19  C   UNL     1     -38.746 -51.379  13.349  1.00  0.00     0.017 A 
HETATM   20  C   UNL     1     -37.666 -50.726  12.647  1.00  0.00     0.007 A 
HETATM   21  C   UNL     1     -37.847 -49.544  12.046  1.00  0.00     0.074 A 
HETATM   22  C   UNL     1     -39.173 -48.877  12.104  1.00  0.00     0.247 A 
HETATM   23  O   UNL     1     -39.310 -47.773  11.585  1.00  0.00    -0.268 OA
ENDBRANCH  16  17
ENDBRANCH   2  16
TORSDOF 6
ENDMDL
MODEL 4
REMARK VINA RESULT:      -5.2      1.574      2.251
REMARK  6 active torsions:
REMARK  status: ('A' for Active; 'I' for Inactive)
REMARK    1  A    between atoms: C_2  and  C_3 
REMARK    2  A    between atoms: C_3  and  C_5 
REMARK    3  A    between atoms: C_3  and  N_17 
REMARK    4  A    between atoms: C_5  and  N_6 
REMARK       I    between atoms: N_6  and  C_7 
REMARK    5  A    between atoms: C_7  and  C_9 
REMARK    6  A    between atoms: C_9  and  N_10 
ROOT
HETATM    1  N   UNL     1     -41.517 -53.054  13.013  1.00  0.00    -0.357 N 
HETATM    2  C   UNL     1     -42.532 -53.870  13.427  1.00  0.00     0.235 C 
HETATM    3  O   UNL     1     -42.367 -54.606  14.399  1.00  0.00    -0.272 OA
HETATM    4  H   UNL     1     -40.742 -53.039  13.666  1.00  0.00     0.162 HD
ENDROOT
BRANCH   1   5
HETATM    5  C   UNL     1     -41.516 -52.047  11.949  1.00  0.00     0.153 C 
BRANCH   5   6
HETATM    6  C   UNL     1     -41.025 -50.574  12.296  1.00  0.00     0.040 C 
HETATM    7  C   UNL     1     -42.239 -49.969  13.060  1.00  0.00     0.040 C 
BRANCH   6   8
HETATM    8  C   UNL     1     -40.721 -49.654  11.061  1.00  0.00     0.027 C 
HETATM    9  C   UNL     1     -41.286 -48.230  10.923  1.00  0.00     0.007 C 
ENDBRANCH   6   8
BRANCH   6  10
HETATM   10  N   UNL     1     -39.868 -50.661  13.261  1.00  0.00    -0.398 N 
HETATM   11  C   UNL     1     -39.762 -49.640  14.326  1.00  0.00     0.144 C 
HETATM   12  C   UNL     1     -38.935 -48.379  13.980  1.00  0.00     0.187 C 
HETATM   13  O   UNL     1     -37.665 -48.681  13.397  1.00  0.00    -0.388 OA
HETATM   14  C   UNL     1     -37.788 -49.588  12.297  1.00  0.00     0.187 C 
HETATM   15  C   UNL     1     -38.503 -50.869  12.738  1.00  0.00     0.144 C 
ENDBRANCH   6  10
ENDBRANCH   5   6
ENDBRANCH   1   5
BRANCH   2  16
HETATM   16  C   UNL     1     -43.810 -53.851  12.620  1.00  0.00     0.234 C 
BRANCH  16  17
HETATM   17  N   UNL     1     -44.986 -53.337  13.277  1.00  0.00    -0.316 N 
HETATM   18  C   UNL     1     -45.184 -51.972  13.325  1.00  0.00     0.095 A 
HETATM   19  C   UNL     1     -46.143 -51.442  14.095  1.00  0.00     0.017 A 
HETATM   20  C   UNL     1     -46.981 -52.312  14.886  1.00  0.00     0.007 A 
HETATM   21  C   UNL     1     -46.823 -53.640  14.855  1.00  0.00     0.074 A 
HETATM   22  C   UNL     1     -45.764 -54.242  14.003  1.00  0.00     0.247 A 
HETATM   23  O   UNL     1     -45.604 -55.459  14.019  1.00  0.00    -0.268 OA
ENDBRANCH  16  17
ENDBRANCH   2  16
TORSDOF 6
ENDMDL
MODEL 5
REMARK VINA RESULT:      -5.2      1.598      1.916
REMARK  6 active torsions:
REMARK  status: ('A' for Active; 'I' for Inactive)
REMARK    1  A    between atoms: C_2  and  C_3 
REMARK    2  A    between atoms: C_3  and  C_5 
REMARK    3  A    between atoms: C_3  and  N_17 
REMARK    4  A    between atoms: C_5  and  N_6 
REMARK       I    between atoms: N_6  and  C_7 
REMARK    5  A    between atoms: C_7  and  C_9 
REMARK    6  A    between atoms: C_9  and  N_10 
ROOT
HETATM    1  N   UNL     1     -41.517 -53.162  13.083  1.00  0.00    -0.357 N 
HETATM    2  C   UNL     1     -42.535 -53.996  13.451  1.00  0.00     0.235 C 
HETATM    3  O   UNL     1     -42.371 -54.787  14.379  1.00  0.00    -0.272 OA
HETATM    4  H   UNL     1     -40.741 -53.188  13.734  1.00  0.00     0.162 HD
ENDROOT
BRANCH   1   5
HETATM    5  C   UNL     1     -41.513 -52.096  12.078  1.00  0.00     0.153 C 
BRANCH   5   6
HETATM    6  C   UNL     1     -41.203 -50.609  12.548  1.00  0.00     0.040 C 
HETATM    7  C   UNL     1     -40.991 -50.761  14.083  1.00  0.00     0.040 C 
BRANCH   6   8
HETATM    8  C   UNL     1     -42.360 -49.572  12.320  1.00  0.00     0.027 C 
HETATM    9  C   UNL     1     -42.994 -48.764  13.464  1.00  0.00     0.007 C 
ENDBRANCH   6   8
BRANCH   6  10
HETATM   10  N   UNL     1     -39.894 -50.168  11.941  1.00  0.00    -0.398 N 
HETATM   11  C   UNL     1     -38.645 -50.788  12.437  1.00  0.00     0.144 C 
HETATM   12  C   UNL     1     -37.949 -50.066  13.615  1.00  0.00     0.187 C 
HETATM   13  O   UNL     1     -37.805 -48.658  13.408  1.00  0.00    -0.388 OA
HETATM   14  C   UNL     1     -39.044 -48.048  13.031  1.00  0.00     0.187 C 
HETATM   15  C   UNL     1     -39.617 -48.727  11.783  1.00  0.00     0.144 C 
ENDBRANCH   6  10
ENDBRANCH   5   6
ENDBRANCH   1   5
BRANCH   2  16
HETATM   16  C   UNL     1     -43.813 -53.927  12.648  1.00  0.00     0.234 C 
BRANCH  16  17
HETATM   17  N   UNL     1     -44.952 -53.317  13.290  1.00  0.00    -0.316 N 
HETATM   18  C   UNL     1     -45.045 -51.940  13.320  1.00  0.00     0.095 A 
HETATM   19  C   UNL     1     -45.966 -51.330  14.077  1.00  0.00     0.017 A 
HETATM   20  C   UNL     1     -46.874 -52.124  14.872  1.00  0.00     0.007 A 
HETATM   21  C   UNL     1     -46.817 -53.460  14.857  1.00  0.00     0.074 A 
HETATM   22  C   UNL     1     -45.801 -54.151  14.020  1.00  0.00     0.247 A 
HETATM   23  O   UNL     1     -45.735 -55.376  14.052  1.00  0.00    -0.268 OA
ENDBRANCH  16  17
ENDBRANCH   2  16
TORSDOF 6
ENDMDL
MODEL 6
REMARK VINA RESULT:      -5.1      1.949      6.743
REMARK  6 active torsions:
REMARK  status: ('A' for Active; 'I' for Inactive)
REMARK    1  A    between atoms: C_2  and  C_3 
REMARK    2  A    between atoms: C_3  and  C_5 
REMARK    3  A    between atoms: C_3  and  N_17 
REMARK    4  A    between atoms: C_5  and  N_6 
REMARK       I    between atoms: N_6  and  C_7 
REMARK    5  A    between atoms: C_7  and  C_9 
REMARK    6  A    between atoms: C_9  and  N_10 
ROOT
HETATM    1  N   UNL     1     -41.488 -50.756  11.465  1.00  0.00    -0.357 N 
HETATM    2  C   UNL     1     -40.662 -49.685  11.268  1.00  0.00     0.235 C 
HETATM    3  O   UNL     1     -41.132 -48.609  10.902  1.00  0.00    -0.272 OA
HETATM    4  H   UNL     1     -42.468 -50.502  11.419  1.00  0.00     0.162 HD
ENDROOT
BRANCH   1   5
HETATM    5  C   UNL     1     -41.165 -52.091  11.973  1.00  0.00     0.153 C 
BRANCH   5   6
HETATM    6  C   UNL     1     -41.936 -52.622  13.259  1.00  0.00     0.040 C 
HETATM    7  C   UNL     1     -41.366 -51.733  14.403  1.00  0.00     0.040 C 
BRANCH   6   8
HETATM    8  C   UNL     1     -41.671 -54.124  13.634  1.00  0.00     0.027 C 
HETATM    9  C   UNL     1     -41.482 -54.601  15.083  1.00  0.00     0.007 C 
ENDBRANCH   6   8
BRANCH   6  10
HETATM   10  N   UNL     1     -43.404 -52.305  13.113  1.00  0.00    -0.398 N 
HETATM   11  C   UNL     1     -44.139 -51.816  14.300  1.00  0.00     0.144 C 
HETATM   12  C   UNL     1     -44.811 -52.899  15.177  1.00  0.00     0.187 C 
HETATM   13  O   UNL     1     -45.576 -53.842  14.421  1.00  0.00    -0.388 OA
HETATM   14  C   UNL     1     -44.820 -54.390  13.336  1.00  0.00     0.187 C 
HETATM   15  C   UNL     1     -44.290 -53.271  12.434  1.00  0.00     0.144 C 
ENDBRANCH   6  10
ENDBRANCH   5   6
ENDBRANCH   1   5
BRANCH   2  16
HETATM   16  C   UNL     1     -39.180 -49.905  11.472  1.00  0.00     0.234 C 
BRANCH  16  17
HETATM   17  N   UNL     1     -38.656 -49.621  12.786  1.00  0.00    -0.316 N 
HETATM   18  C   UNL     1     -38.692 -48.324  13.255  1.00  0.00     0.095 A 
HETATM   19  C   UNL     1     -38.036 -47.978  14.371  1.00  0.00     0.017 A 
HETATM   20  C   UNL     1     -37.282 -48.976  15.091  1.00  0.00     0.007 A 
HETATM   21  C   UNL     1     -37.236 -50.245  14.669  1.00  0.00     0.074 A 
HETATM   22  C   UNL     1     -37.960 -50.644  13.434  1.00  0.00     0.247 A 
HETATM   23  O   UNL     1     -37.871 -51.802  13.037  1.00  0.00    -0.268 OA
ENDBRANCH  16  17
ENDBRANCH   2  16
TORSDOF 6
ENDMDL
MODEL 7
REMARK VINA RESULT:      -5.0      2.326      6.869
REMARK  6 active torsions:
REMARK  status: ('A' for Active; 'I' for Inactive)
REMARK    1  A    between atoms: C_2  and  C_3 
REMARK    2  A    between atoms: C_3  and  C_5 
REMARK    3  A    between atoms: C_3  and  N_17 
REMARK    4  A    between atoms: C_5  and  N_6 
REMARK       I    between atoms: N_6  and  C_7 
REMARK    5  A    between atoms: C_7  and  C_9 
REMARK    6  A    between atoms: C_9  and  N_10 
ROOT
HETATM    1  N   UNL     1     -42.673 -50.629  12.220  1.00  0.00    -0.357 N 
HETATM    2  C   UNL     1     -41.511 -49.934  12.039  1.00  0.00     0.235 C 
HETATM    3  O   UNL     1     -40.662 -50.354  11.253  1.00  0.00    -0.272 OA
HETATM    4  H   UNL     1     -42.780 -51.384  11.552  1.00  0.00     0.162 HD
ENDROOT
BRANCH   1   5
HETATM    5  C   UNL     1     -43.843 -50.279  13.028  1.00  0.00     0.153 C 
BRANCH   5   6
HETATM    6  C   UNL     1     -44.731 -51.453  13.630  1.00  0.00     0.040 C 
HETATM    7  C   UNL     1     -45.934 -51.527  12.645  1.00  0.00     0.040 C 
BRANCH   6   8
HETATM    8  C   UNL     1     -45.300 -51.200  15.072  1.00  0.00     0.027 C 
HETATM    9  C   UNL     1     -46.781 -51.402  15.431  1.00  0.00     0.007 C 
ENDBRANCH   6   8
BRANCH   6  10
HETATM   10  N   UNL     1     -43.964 -52.748  13.523  1.00  0.00    -0.398 N 
HETATM   11  C   UNL     1     -44.619 -53.901  12.866  1.00  0.00     0.144 C 
HETATM   12  C   UNL     1     -45.418 -54.848  13.793  1.00  0.00     0.187 C 
HETATM   13  O   UNL     1     -44.691 -55.236  14.962  1.00  0.00    -0.388 OA
HETATM   14  C   UNL     1     -44.150 -54.104  15.651  1.00  0.00     0.187 C 
HETATM   15  C   UNL     1     -43.266 -53.278  14.711  1.00  0.00     0.144 C 
ENDBRANCH   6  10
ENDBRANCH   5   6
ENDBRANCH   1   5
BRANCH   2  16
HETATM   16  C   UNL     1     -41.313 -48.685  12.868  1.00  0.00     0.234 C 
BRANCH  16  17
HETATM   17  N   UNL     1     -41.210 -47.438  12.150  1.00  0.00    -0.316 N 
HETATM   18  C   UNL     1     -42.140 -47.149  11.173  1.00  0.00     0.095 A 
HETATM   19  C   UNL     1     -41.968 -46.110  10.345  1.00  0.00     0.017 A 
HETATM   20  C   UNL     1     -40.792 -45.282  10.478  1.00  0.00     0.007 A 
HETATM   21  C   UNL     1     -39.877 -45.528  11.422  1.00  0.00     0.074 A 
HETATM   22  C   UNL     1     -40.056 -46.676  12.348  1.00  0.00     0.247 A 
HETATM   23  O   UNL     1     -39.185 -46.914  13.180  1.00  0.00    -0.268 OA
ENDBRANCH  16  17
ENDBRANCH   2  16
TORSDOF 6
ENDMDL
MODEL 8
REMARK VINA RESULT:      -5.0      2.401      4.038
REMARK  6 active torsions:
REMARK  status: ('A' for Active; 'I' for Inactive)
REMARK    1  A    between atoms: C_2  and  C_3 
REMARK    2  A    between atoms: C_3  and  C_5 
REMARK    3  A    between atoms: C_3  and  N_17 
REMARK    4  A    between atoms: C_5  and  N_6 
REMARK       I    between atoms: N_6  and  C_7 
REMARK    5  A    between atoms: C_7  and  C_9 
REMARK    6  A    between atoms: C_9  and  N_10 
ROOT
HETATM    1  N   UNL     1     -40.614 -51.401  11.812  1.00  0.00    -0.357 N 
HETATM    2  C   UNL     1     -40.779 -52.448  12.674  1.00  0.00     0.235 C 
HETATM    3  O   UNL     1     -40.089 -53.459  12.548  1.00  0.00    -0.272 OA
HETATM    4  H   UNL     1     -39.804 -51.517  11.214  1.00  0.00     0.162 HD
ENDROOT
BRANCH   1   5
HETATM    5  C   UNL     1     -41.256 -50.085  11.823  1.00  0.00     0.153 C 
BRANCH   5   6
HETATM    6  C   UNL     1     -40.343 -48.794  11.999  1.00  0.00     0.040 C 
HETATM    7  C   UNL     1     -38.908 -49.340  11.739  1.00  0.00     0.040 C 
BRANCH   6   8
HETATM    8  C   UNL     1     -40.362 -48.141  13.426  1.00  0.00     0.027 C 
HETATM    9  C   UNL     1     -40.433 -48.966  14.721  1.00  0.00     0.007 C 
ENDBRANCH   6   8
BRANCH   6  10
HETATM   10  N   UNL     1     -40.670 -47.813  10.901  1.00  0.00    -0.398 N 
HETATM   11  C   UNL     1     -40.285 -46.396  11.085  1.00  0.00     0.144 C 
HETATM   12  C   UNL     1     -41.343 -45.484  11.749  1.00  0.00     0.187 C 
HETATM   13  O   UNL     1     -42.644 -45.616  11.168  1.00  0.00    -0.388 OA
HETATM   14  C   UNL     1     -43.054 -46.985  11.091  1.00  0.00     0.187 C 
HETATM   15  C   UNL     1     -42.024 -47.809  10.312  1.00  0.00     0.144 C 
ENDBRANCH   6  10
ENDBRANCH   5   6
ENDBRANCH   1   5
BRANCH   2  16
HETATM   16  C   UNL     1     -41.858 -52.318  13.725  1.00  0.00     0.234 C 
BRANCH  16  17
HETATM   17  N   UNL     1     -43.010 -53.174  13.585  1.00  0.00    -0.316 N 
HETATM   18  C   UNL     1     -44.102 -52.716  12.876  1.00  0.00     0.095 A 
HETATM   19  C   UNL     1     -45.263 -53.383  12.893  1.00  0.00     0.017 A 
HETATM   20  C   UNL     1     -45.372 -54.599  13.664  1.00  0.00     0.007 A 
HETATM   21  C   UNL     1     -44.330 -55.077  14.353  1.00  0.00     0.074 A 
HETATM   22  C   UNL     1     -43.035 -54.347  14.342  1.00  0.00     0.247 A 
HETATM   23  O   UNL     1     -42.102 -54.775  15.015  1.00  0.00    -0.268 OA
ENDBRANCH  16  17
ENDBRANCH   2  16
TORSDOF 6
ENDMDL
MODEL 9
REMARK VINA RESULT:      -5.0      2.496      5.762
REMARK  6 active torsions:
REMARK  status: ('A' for Active; 'I' for Inactive)
REMARK    1  A    between atoms: C_2  and  C_3 
REMARK    2  A    between atoms: C_3  and  C_5 
REMARK    3  A    between atoms: C_3  and  N_17 
REMARK    4  A    between atoms: C_5  and  N_6 
REMARK       I    between atoms: N_6  and  C_7 
REMARK    5  A    between atoms: C_7  and  C_9 
REMARK    6  A    between atoms: C_9  and  N_10 
ROOT
HETATM    1  N   UNL     1     -43.185 -52.098  12.369  1.00  0.00    -0.357 N 
HETATM    2  C   UNL     1     -41.821 -52.052  12.418  1.00  0.00     0.235 C 
HETATM    3  O   UNL     1     -41.244 -50.966  12.395  1.00  0.00    -0.272 OA
HETATM    4  H   UNL     1     -43.607 -51.180  12.462  1.00  0.00     0.162 HD
ENDROOT
BRANCH   1   5
HETATM    5  C   UNL     1     -44.076 -53.257  12.468  1.00  0.00     0.153 C 
BRANCH   5   6
HETATM    6  C   UNL     1     -45.159 -53.287  13.632  1.00  0.00     0.040 C 
HETATM    7  C   UNL     1     -45.474 -54.805  13.780  1.00  0.00     0.040 C 
BRANCH   6   8
HETATM    8  C   UNL     1     -46.505 -52.540  13.324  1.00  0.00     0.027 C 
HETATM    9  C   UNL     1     -46.739 -51.741  12.032  1.00  0.00     0.007 C 
ENDBRANCH   6   8
BRANCH   6  10
HETATM   10  N   UNL     1     -44.510 -52.822  14.913  1.00  0.00    -0.398 N 
HETATM   11  C   UNL     1     -44.710 -53.631  16.136  1.00  0.00     0.144 C 
HETATM   12  C   UNL     1     -45.925 -53.249  17.013  1.00  0.00     0.187 C 
HETATM   13  O   UNL     1     -46.011 -51.845  17.276  1.00  0.00    -0.388 OA
HETATM   14  C   UNL     1     -45.924 -51.074  16.074  1.00  0.00     0.187 C 
HETATM   15  C   UNL     1     -44.635 -51.408  15.316  1.00  0.00     0.144 C 
ENDBRANCH   6  10
ENDBRANCH   5   6
ENDBRANCH   1   5
BRANCH   2  16
HETATM   16  C   UNL     1     -41.083 -53.371  12.453  1.00  0.00     0.234 C 
BRANCH  16  17
HETATM   17  N   UNL     1     -40.600 -53.813  13.738  1.00  0.00    -0.316 N 
HETATM   18  C   UNL     1     -41.454 -54.507  14.571  1.00  0.00     0.095 A 
HETATM   19  C   UNL     1     -41.121 -54.755  15.845  1.00  0.00     0.017 A 
HETATM   20  C   UNL     1     -39.853 -54.288  16.352  1.00  0.00     0.007 A 
HETATM   21  C   UNL     1     -38.998 -53.622  15.568  1.00  0.00     0.074 A 
HETATM   22  C   UNL     1     -39.353 -53.342  14.153  1.00  0.00     0.247 A 
HETATM   23  O   UNL     1     -38.576 -52.691  13.460  1.00  0.00    -0.268 OA
ENDBRANCH  16  17
ENDBRANCH   2  16
TORSDOF 6
ENDMDL
