MODEL 1
REMARK VINA RESULT:      -5.7      0.000      0.000
REMARK  5 active torsions:
REMARK  status: ('A' for Active; 'I' for Inactive)
REMARK    1  A    between atoms: C_2  and  N_3 
REMARK    2  A    between atoms: C_7  and  C_8 
REMARK    3  A    between atoms: C_8  and  N_9 
REMARK       I    between atoms: N_9  and  C_10 
REMARK    4  A    between atoms: C_10  and  C_12 
REMARK    5  A    between atoms: C_12  and  N_14 
ROOT
HETATM    1  N   UNL     1     -41.752 -48.262   9.849  1.00  0.00    -0.357 N 
HETATM    2  C   UNL     1     -43.034 -47.770  10.001  1.00  0.00     0.242 C 
HETATM    3  O   UNL     1     -43.600 -47.729  11.092  1.00  0.00    -0.271 OA
HETATM    4  H   UNL     1     -41.318 -48.253   8.932  1.00  0.00     0.162 HD
ENDROOT
BRANCH   2   5
HETATM    5  C   UNL     1     -43.698 -47.290   8.714  1.00  0.00     0.196 C 
HETATM    6  C   UNL     1     -43.164 -48.034   7.493  1.00  0.00     0.044 C 
BRANCH   5   7
HETATM    7  N   UNL     1     -45.142 -47.402   8.819  1.00  0.00    -0.273 N 
HETATM    8  C   UNL     1     -46.067 -46.410   8.929  1.00  0.00     0.202 A 
HETATM    9  N   UNL     1     -47.262 -46.936   9.055  1.00  0.00    -0.346 N 
HETATM   10  C   UNL     1     -47.015 -48.277   9.019  1.00  0.00     0.198 A 
ATOM     11  HN  UNL     1     -48.158 -46.459   9.156  1.00  0.00     0.167 HD
HETATM   12  N   UNL     1     -45.732 -48.616   8.867  1.00  0.00    -0.292 N 
ATOM     13  HN  UNL     1     -45.310 -49.543   8.803  1.00  0.00     0.188 HD
ENDBRANCH   5   7
ENDBRANCH   2   5
BRANCH   1  14
HETATM   14  C   UNL     1     -41.027 -48.897  10.948  1.00  0.00     0.158 C 
BRANCH  14  15
HETATM   15  C   UNL     1     -39.873 -48.012  11.492  1.00  0.00     0.240 C 
HETATM   16  N   UNL     1     -38.925 -48.627  12.441  1.00  0.00     0.094 N 
HETATM   17  C   UNL     1     -39.465 -48.498  13.798  1.00  0.00     0.273 C 
HETATM   18  C   UNL     1     -40.496 -47.380  13.733  1.00  0.00     0.032 C 
HETATM   19  C   UNL     1     -40.395 -46.834  12.321  1.00  0.00     0.039 C 
BRANCH  16  20
HETATM   20  C   UNL     1     -38.472 -49.974  12.107  1.00  0.00     0.268 C 
HETATM   21  C   UNL     1     -37.329 -49.964  11.094  1.00  0.00     0.037 C 
ENDBRANCH  16  20
ENDBRANCH  14  15
ENDBRANCH   1  14
TORSDOF 5
ENDMDL
MODEL 2
REMARK VINA RESULT:      -5.6      4.248      5.096
REMARK  5 active torsions:
REMARK  status: ('A' for Active; 'I' for Inactive)
REMARK    1  A    between atoms: C_2  and  N_3 
REMARK    2  A    between atoms: C_7  and  C_8 
REMARK    3  A    between atoms: C_8  and  N_9 
REMARK       I    between atoms: N_9  and  C_10 
REMARK    4  A    between atoms: C_10  and  C_12 
REMARK    5  A    between atoms: C_12  and  N_14 
ROOT
HETATM    1  N   UNL     1     -43.480 -49.770  12.504  1.00  0.00    -0.357 N 
HETATM    2  C   UNL     1     -42.624 -48.974  11.767  1.00  0.00     0.242 C 
HETATM    3  O   UNL     1     -41.494 -49.339  11.448  1.00  0.00    -0.271 OA
HETATM    4  H   UNL     1     -44.412 -49.434  12.722  1.00  0.00     0.162 HD
ENDROOT
BRANCH   2   5
HETATM    5  C   UNL     1     -43.182 -47.607  11.385  1.00  0.00     0.196 C 
HETATM    6  C   UNL     1     -42.180 -46.491  11.667  1.00  0.00     0.044 C 
BRANCH   5   7
HETATM    7  N   UNL     1     -43.607 -47.604   9.996  1.00  0.00    -0.273 N 
HETATM    8  C   UNL     1     -44.855 -47.407   9.489  1.00  0.00     0.202 A 
HETATM    9  N   UNL     1     -44.823 -47.540   8.184  1.00  0.00    -0.346 N 
HETATM   10  C   UNL     1     -43.513 -47.825   7.933  1.00  0.00     0.198 A 
ATOM     11  HN  UNL     1     -45.591 -47.452   7.518  1.00  0.00     0.167 HD
HETATM   12  N   UNL     1     -42.723 -47.867   9.010  1.00  0.00    -0.292 N 
ATOM     13  HN  UNL     1     -41.721 -48.049   9.072  1.00  0.00     0.188 HD
ENDBRANCH   5   7
ENDBRANCH   2   5
BRANCH   1  14
HETATM   14  C   UNL     1     -43.056 -51.046  13.077  1.00  0.00     0.158 C 
BRANCH  14  15
HETATM   15  C   UNL     1     -44.122 -51.658  14.025  1.00  0.00     0.240 C 
HETATM   16  N   UNL     1     -44.205 -53.129  14.106  1.00  0.00     0.094 N 
HETATM   17  C   UNL     1     -45.090 -53.611  13.042  1.00  0.00     0.273 C 
HETATM   18  C   UNL     1     -45.930 -52.413  12.621  1.00  0.00     0.032 C 
HETATM   19  C   UNL     1     -45.548 -51.308  13.588  1.00  0.00     0.039 C 
BRANCH  16  20
HETATM   20  C   UNL     1     -42.930 -53.836  14.185  1.00  0.00     0.268 C 
HETATM   21  C   UNL     1     -43.027 -55.109  15.025  1.00  0.00     0.037 C 
ENDBRANCH  16  20
ENDBRANCH  14  15
ENDBRANCH   1  14
TORSDOF 5
ENDMDL
MODEL 3
REMARK VINA RESULT:      -5.5      3.699      4.758
REMARK  5 active torsions:
REMARK  status: ('A' for Active; 'I' for Inactive)
REMARK    1  A    between atoms: C_2  and  N_3 
REMARK    2  A    between atoms: C_7  and  C_8 
REMARK    3  A    between atoms: C_8  and  N_9 
REMARK       I    between atoms: N_9  and  C_10 
REMARK    4  A    between atoms: C_10  and  C_12 
REMARK    5  A    between atoms: C_12  and  N_14 
ROOT
HETATM    1  N   UNL     1     -43.088 -49.689  12.492  1.00  0.00    -0.357 N 
HETATM    2  C   UNL     1     -42.440 -48.764  11.697  1.00  0.00     0.242 C 
HETATM    3  O   UNL     1     -41.270 -48.900  11.346  1.00  0.00    -0.271 OA
HETATM    4  H   UNL     1     -44.063 -49.544  12.736  1.00  0.00     0.162 HD
ENDROOT
BRANCH   2   5
HETATM    5  C   UNL     1     -43.281 -47.556  11.295  1.00  0.00     0.196 C 
HETATM    6  C   UNL     1     -42.570 -46.243  11.615  1.00  0.00     0.044 C 
BRANCH   5   7
HETATM    7  N   UNL     1     -43.644 -47.638   9.891  1.00  0.00    -0.273 N 
HETATM    8  C   UNL     1     -44.879 -47.552   9.325  1.00  0.00     0.202 A 
HETATM    9  N   UNL     1     -44.782 -47.733   8.030  1.00  0.00    -0.346 N 
HETATM   10  C   UNL     1     -43.444 -47.932   7.845  1.00  0.00     0.198 A 
ATOM     11  HN  UNL     1     -45.524 -47.727   7.330  1.00  0.00     0.167 HD
HETATM   12  N   UNL     1     -42.702 -47.875   8.954  1.00  0.00    -0.292 N 
ATOM     13  HN  UNL     1     -41.693 -47.981   9.063  1.00  0.00     0.188 HD
ENDBRANCH   5   7
ENDBRANCH   2   5
BRANCH   1  14
HETATM   14  C   UNL     1     -42.391 -50.827  13.088  1.00  0.00     0.158 C 
BRANCH  14  15
HETATM   15  C   UNL     1     -42.347 -52.060  12.145  1.00  0.00     0.240 C 
HETATM   16  N   UNL     1     -43.184 -53.223  12.498  1.00  0.00     0.094 N 
HETATM   17  C   UNL     1     -42.433 -54.085  13.416  1.00  0.00     0.273 C 
HETATM   18  C   UNL     1     -40.969 -53.707  13.241  1.00  0.00     0.032 C 
HETATM   19  C   UNL     1     -40.956 -52.701  12.105  1.00  0.00     0.039 C 
BRANCH  16  20
HETATM   20  C   UNL     1     -44.542 -52.921  12.941  1.00  0.00     0.268 C 
HETATM   21  C   UNL     1     -45.242 -54.143  13.534  1.00  0.00     0.037 C 
ENDBRANCH  16  20
ENDBRANCH  14  15
ENDBRANCH   1  14
TORSDOF 5
ENDMDL
MODEL 4
REMARK VINA RESULT:      -5.5      2.450      3.432
REMARK  5 active torsions:
REMARK  status: ('A' for Active; 'I' for Inactive)
REMARK    1  A    between atoms: C_2  and  N_3 
REMARK    2  A    between atoms: C_7  and  C_8 
REMARK    3  A    between atoms: C_8  and  N_9 
REMARK       I    between atoms: N_9  and  C_10 
REMARK    4  A    between atoms: C_10  and  C_12 
REMARK    5  A    between atoms: C_12  and  N_14 
ROOT
HETATM    1  N   UNL     1     -42.189 -50.004  11.785  1.00  0.00    -0.357 N 
HETATM    2  C   UNL     1     -41.860 -48.734  11.351  1.00  0.00     0.242 C 
HETATM    3  O   UNL     1     -40.708 -48.412  11.065  1.00  0.00    -0.271 OA
HETATM    4  H   UNL     1     -43.158 -50.228  11.986  1.00  0.00     0.162 HD
ENDROOT
BRANCH   2   5
HETATM    5  C   UNL     1     -43.029 -47.758  11.262  1.00  0.00     0.196 C 
HETATM    6  C   UNL     1     -42.654 -46.378  11.794  1.00  0.00     0.044 C 
BRANCH   5   7
HETATM    7  N   UNL     1     -43.526 -47.688   9.899  1.00  0.00    -0.273 N 
HETATM    8  C   UNL     1     -44.793 -47.446   9.466  1.00  0.00     0.202 A 
HETATM    9  N   UNL     1     -44.832 -47.523   8.157  1.00  0.00    -0.346 N 
HETATM   10  C   UNL     1     -43.542 -47.822   7.826  1.00  0.00     0.198 A 
ATOM     11  HN  UNL     1     -45.631 -47.391   7.537  1.00  0.00     0.167 HD
HETATM   12  N   UNL     1     -42.700 -47.925   8.857  1.00  0.00    -0.292 N 
ATOM     13  HN  UNL     1     -41.700 -48.129   8.859  1.00  0.00     0.188 HD
ENDBRANCH   5   7
ENDBRANCH   2   5
BRANCH   1  14
HETATM   14  C   UNL     1     -41.174 -51.016  12.068  1.00  0.00     0.158 C 
BRANCH  14  15
HETATM   15  C   UNL     1     -40.896 -51.173  13.587  1.00  0.00     0.240 C 
HETATM   16  N   UNL     1     -39.488 -51.197  14.028  1.00  0.00     0.094 N 
HETATM   17  C   UNL     1     -38.990 -52.573  13.946  1.00  0.00     0.273 C 
HETATM   18  C   UNL     1     -40.224 -53.464  13.924  1.00  0.00     0.032 C 
HETATM   19  C   UNL     1     -41.394 -52.518  14.126  1.00  0.00     0.039 C 
BRANCH  16  20
HETATM   20  C   UNL     1     -38.610 -50.208  13.410  1.00  0.00     0.268 C 
HETATM   21  C   UNL     1     -37.461 -50.857  12.639  1.00  0.00     0.037 C 
ENDBRANCH  16  20
ENDBRANCH  14  15
ENDBRANCH   1  14
TORSDOF 5
ENDMDL
MODEL 5
REMARK VINA RESULT:      -5.4      4.804      7.294
REMARK  5 active torsions:
REMARK  status: ('A' for Active; 'I' for Inactive)
REMARK    1  A    between atoms: C_2  and  N_3 
REMARK    2  A    between atoms: C_7  and  C_8 
REMARK    3  A    between atoms: C_8  and  N_9 
REMARK       I    between atoms: N_9  and  C_10 
REMARK    4  A    between atoms: C_10  and  C_12 
REMARK    5  A    between atoms: C_12  and  N_14 
ROOT
HETATM    1  N   UNL     1     -42.642 -51.516  12.158  1.00  0.00    -0.357 N 
HETATM    2  C   UNL     1     -41.289 -51.460  11.884  1.00  0.00     0.242 C 
HETATM    3  O   UNL     1     -40.533 -52.406  12.096  1.00  0.00    -0.271 OA
HETATM    4  H   UNL     1     -43.230 -50.717  11.944  1.00  0.00     0.162 HD
ENDROOT
BRANCH   2   5
HETATM    5  C   UNL     1     -40.802 -50.134  11.307  1.00  0.00     0.196 C 
HETATM    6  C   UNL     1     -41.718 -48.978  11.700  1.00  0.00     0.044 C 
BRANCH   5   7
HETATM    7  N   UNL     1     -39.427 -49.885  11.705  1.00  0.00    -0.273 N 
HETATM    8  C   UNL     1     -38.965 -49.251  12.817  1.00  0.00     0.202 A 
HETATM    9  N   UNL     1     -37.655 -49.187  12.772  1.00  0.00    -0.346 N 
HETATM   10  C   UNL     1     -37.355 -49.805  11.593  1.00  0.00     0.198 A 
ATOM     11  HN  UNL     1     -37.016 -48.776  13.453  1.00  0.00     0.167 HD
HETATM   12  N   UNL     1     -38.406 -50.260  10.905  1.00  0.00    -0.292 N 
ATOM     13  HN  UNL     1     -38.431 -50.756  10.014  1.00  0.00     0.188 HD
ENDBRANCH   5   7
ENDBRANCH   2   5
BRANCH   1  14
HETATM   14  C   UNL     1     -43.249 -52.653  12.848  1.00  0.00     0.158 C 
BRANCH  14  15
HETATM   15  C   UNL     1     -43.952 -52.242  14.170  1.00  0.00     0.240 C 
HETATM   16  N   UNL     1     -44.969 -53.159  14.720  1.00  0.00     0.094 N 
HETATM   17  C   UNL     1     -46.264 -52.850  14.110  1.00  0.00     0.273 C 
HETATM   18  C   UNL     1     -46.140 -51.437  13.558  1.00  0.00     0.032 C 
HETATM   19  C   UNL     1     -44.773 -50.959  14.009  1.00  0.00     0.039 C 
BRANCH  16  20
HETATM   20  C   UNL     1     -44.625 -54.579  14.701  1.00  0.00     0.268 C 
HETATM   21  C   UNL     1     -45.564 -55.389  13.809  1.00  0.00     0.037 C 
ENDBRANCH  16  20
ENDBRANCH  14  15
ENDBRANCH   1  14
TORSDOF 5
ENDMDL
MODEL 6
REMARK VINA RESULT:      -5.4      4.643      7.491
REMARK  5 active torsions:
REMARK  status: ('A' for Active; 'I' for Inactive)
REMARK    1  A    between atoms: C_2  and  N_3 
REMARK    2  A    between atoms: C_7  and  C_8 
REMARK    3  A    between atoms: C_8  and  N_9 
REMARK       I    between atoms: N_9  and  C_10 
REMARK    4  A    between atoms: C_10  and  C_12 
REMARK    5  A    between atoms: C_12  and  N_14 
ROOT
HETATM    1  N   UNL     1     -42.864 -50.899  12.583  1.00  0.00    -0.357 N 
HETATM    2  C   UNL     1     -41.602 -51.140  12.075  1.00  0.00     0.242 C 
HETATM    3  O   UNL     1     -41.018 -52.210  12.237  1.00  0.00    -0.271 OA
HETATM    4  H   UNL     1     -43.314 -50.008  12.403  1.00  0.00     0.162 HD
ENDROOT
BRANCH   2   5
HETATM    5  C   UNL     1     -40.981 -49.976  11.308  1.00  0.00     0.196 C 
HETATM    6  C   UNL     1     -41.787 -48.692  11.485  1.00  0.00     0.044 C 
BRANCH   5   7
HETATM    7  N   UNL     1     -39.595 -49.796  11.699  1.00  0.00    -0.273 N 
HETATM    8  C   UNL     1     -39.097 -49.309  12.869  1.00  0.00     0.202 A 
HETATM    9  N   UNL     1     -37.788 -49.257  12.800  1.00  0.00    -0.346 N 
HETATM   10  C   UNL     1     -37.524 -49.728  11.547  1.00  0.00     0.198 A 
ATOM     11  HN  UNL     1     -37.127 -48.941  13.510  1.00  0.00     0.167 HD
HETATM   12  N   UNL     1     -38.598 -50.080  10.834  1.00  0.00    -0.292 N 
ATOM     13  HN  UNL     1     -38.651 -50.463   9.890  1.00  0.00     0.188 HD
ENDBRANCH   5   7
ENDBRANCH   2   5
BRANCH   1  14
HETATM   14  C   UNL     1     -43.542 -51.847  13.465  1.00  0.00     0.158 C 
BRANCH  14  15
HETATM   15  C   UNL     1     -44.542 -52.760  12.705  1.00  0.00     0.240 C 
HETATM   16  N   UNL     1     -45.933 -52.810  13.195  1.00  0.00     0.094 N 
HETATM   17  C   UNL     1     -46.029 -53.829  14.243  1.00  0.00     0.273 C 
HETATM   18  C   UNL     1     -44.822 -54.737  14.056  1.00  0.00     0.032 C 
HETATM   19  C   UNL     1     -44.148 -54.238  12.790  1.00  0.00     0.039 C 
BRANCH  16  20
HETATM   20  C   UNL     1     -46.528 -51.526  13.557  1.00  0.00     0.268 C 
HETATM   21  C   UNL     1     -46.912 -51.463  15.034  1.00  0.00     0.037 C 
ENDBRANCH  16  20
ENDBRANCH  14  15
ENDBRANCH   1  14
TORSDOF 5
ENDMDL
MODEL 7
REMARK VINA RESULT:      -5.2      4.265      6.025
REMARK  5 active torsions:
REMARK  status: ('A' for Active; 'I' for Inactive)
REMARK    1  A    between atoms: C_2  and  N_3 
REMARK    2  A    between atoms: C_7  and  C_8 
REMARK    3  A    between atoms: C_8  and  N_9 
REMARK       I    between atoms: N_9  and  C_10 
REMARK    4  A    between atoms: C_10  and  C_12 
REMARK    5  A    between atoms: C_12  and  N_14 
ROOT
HETATM    1  N   UNL     1     -41.981 -50.858  13.156  1.00  0.00    -0.357 N 
HETATM    2  C   UNL     1     -42.160 -49.523  12.850  1.00  0.00     0.242 C 
HETATM    3  O   UNL     1     -43.151 -48.890  13.212  1.00  0.00    -0.271 OA
HETATM    4  H   UNL     1     -41.135 -51.331  12.855  1.00  0.00     0.162 HD
ENDROOT
BRANCH   2   5
HETATM    5  C   UNL     1     -41.043 -48.894  12.024  1.00  0.00     0.196 C 
HETATM    6  C   UNL     1     -40.120 -49.952  11.426  1.00  0.00     0.044 C 
BRANCH   5   7
HETATM    7  N   UNL     1     -41.599 -48.029  10.998  1.00  0.00    -0.273 N 
HETATM    8  C   UNL     1     -41.215 -46.772  10.644  1.00  0.00     0.202 A 
HETATM    9  N   UNL     1     -42.013 -46.317   9.707  1.00  0.00    -0.346 N 
HETATM   10  C   UNL     1     -42.887 -47.347   9.518  1.00  0.00     0.198 A 
ATOM     11  HN  UNL     1     -41.986 -45.413   9.235  1.00  0.00     0.167 HD
HETATM   12  N   UNL     1     -42.671 -48.424  10.279  1.00  0.00    -0.292 N 
ATOM     13  HN  UNL     1     -43.180 -49.308  10.308  1.00  0.00     0.188 HD
ENDBRANCH   5   7
ENDBRANCH   2   5
BRANCH   1  14
HETATM   14  C   UNL     1     -43.018 -51.652  13.811  1.00  0.00     0.158 C 
BRANCH  14  15
HETATM   15  C   UNL     1     -43.706 -52.651  12.842  1.00  0.00     0.240 C 
HETATM   16  N   UNL     1     -45.175 -52.779  12.917  1.00  0.00     0.094 N 
HETATM   17  C   UNL     1     -45.511 -53.772  13.941  1.00  0.00     0.273 C 
HETATM   18  C   UNL     1     -44.252 -54.602  14.148  1.00  0.00     0.032 C 
HETATM   19  C   UNL     1     -43.273 -54.097  13.105  1.00  0.00     0.039 C 
BRANCH  16  20
HETATM   20  C   UNL     1     -45.919 -51.528  13.033  1.00  0.00     0.268 C 
HETATM   21  C   UNL     1     -46.727 -51.455  14.327  1.00  0.00     0.037 C 
ENDBRANCH  16  20
ENDBRANCH  14  15
ENDBRANCH   1  14
TORSDOF 5
ENDMDL
MODEL 8
REMARK VINA RESULT:      -5.2      3.810      5.471
REMARK  5 active torsions:
REMARK  status: ('A' for Active; 'I' for Inactive)
REMARK    1  A    between atoms: C_2  and  N_3 
REMARK    2  A    between atoms: C_7  and  C_8 
REMARK    3  A    between atoms: C_8  and  N_9 
REMARK       I    between atoms: N_9  and  C_10 
REMARK    4  A    between atoms: C_10  and  C_12 
REMARK    5  A    between atoms: C_12  and  N_14 
ROOT
HETATM    1  N   UNL     1     -42.562 -49.752  11.731  1.00  0.00    -0.357 N 
HETATM    2  C   UNL     1     -41.571 -48.917  11.251  1.00  0.00     0.242 C 
HETATM    3  O   UNL     1     -40.387 -49.058  11.552  1.00  0.00    -0.271 OA
HETATM    4  H   UNL     1     -43.523 -49.609  11.435  1.00  0.00     0.162 HD
ENDROOT
BRANCH   2   5
HETATM    5  C   UNL     1     -42.055 -47.803  10.329  1.00  0.00     0.196 C 
HETATM    6  C   UNL     1     -43.570 -47.633  10.398  1.00  0.00     0.044 C 
BRANCH   5   7
HETATM    7  N   UNL     1     -41.364 -46.562  10.631  1.00  0.00    -0.273 N 
HETATM    8  C   UNL     1     -41.877 -45.399  11.118  1.00  0.00     0.202 A 
HETATM    9  N   UNL     1     -40.925 -44.499  11.197  1.00  0.00    -0.346 N 
HETATM   10  C   UNL     1     -39.828 -45.167  10.736  1.00  0.00     0.198 A 
ATOM     11  HN  UNL     1     -40.989 -43.534  11.523  1.00  0.00     0.167 HD
HETATM   12  N   UNL     1     -40.042 -46.438  10.385  1.00  0.00    -0.292 N 
ATOM     13  HN  UNL     1     -39.384 -47.130  10.026  1.00  0.00     0.188 HD
ENDBRANCH   5   7
ENDBRANCH   2   5
BRANCH   1  14
HETATM   14  C   UNL     1     -42.296 -50.777  12.738  1.00  0.00     0.158 C 
BRANCH  14  15
HETATM   15  C   UNL     1     -42.069 -52.181  12.116  1.00  0.00     0.240 C 
HETATM   16  N   UNL     1     -42.921 -53.288  12.592  1.00  0.00     0.094 N 
HETATM   17  C   UNL     1     -42.305 -53.880  13.783  1.00  0.00     0.273 C 
HETATM   18  C   UNL     1     -40.842 -53.460  13.749  1.00  0.00     0.032 C 
HETATM   19  C   UNL     1     -40.674 -52.729  12.430  1.00  0.00     0.039 C 
BRANCH  16  20
HETATM   20  C   UNL     1     -44.340 -52.980  12.747  1.00  0.00     0.268 C 
HETATM   21  C   UNL     1     -45.117 -54.135  13.376  1.00  0.00     0.037 C 
ENDBRANCH  16  20
ENDBRANCH  14  15
ENDBRANCH   1  14
TORSDOF 5
ENDMDL
MODEL 9
REMARK VINA RESULT:      -4.9      1.965      2.882
REMARK  5 active torsions:
REMARK  status: ('A' for Active; 'I' for Inactive)
REMARK    1  A    between atoms: C_2  and  N_3 
REMARK    2  A    between atoms: C_7  and  C_8 
REMARK    3  A    between atoms: C_8  and  N_9 
REMARK       I    between atoms: N_9  and  C_10 
REMARK    4  A    between atoms: C_10  and  C_12 
REMARK    5  A    between atoms: C_12  and  N_14 
ROOT
HETATM    1  N   UNL     1     -41.104 -47.698  12.332  1.00  0.00    -0.357 N 
HETATM    2  C   UNL     1     -42.358 -47.857  11.775  1.00  0.00     0.242 C 
HETATM    3  O   UNL     1     -43.037 -48.866  11.957  1.00  0.00    -0.271 OA
HETATM    4  H   UNL     1     -40.591 -46.836  12.172  1.00  0.00     0.162 HD
ENDROOT
BRANCH   2   5
HETATM    5  C   UNL     1     -42.834 -46.693  10.911  1.00  0.00     0.196 C 
HETATM    6  C   UNL     1     -41.662 -45.890  10.353  1.00  0.00     0.044 C 
BRANCH   5   7
HETATM    7  N   UNL     1     -43.706 -47.173   9.854  1.00  0.00    -0.273 N 
HETATM    8  C   UNL     1     -43.379 -47.557   8.589  1.00  0.00     0.202 A 
HETATM    9  N   UNL     1     -44.469 -47.871   7.931  1.00  0.00    -0.346 N 
HETATM   10  C   UNL     1     -45.457 -47.658   8.847  1.00  0.00     0.198 A 
ATOM     11  HN  UNL     1     -44.557 -48.196   6.968  1.00  0.00     0.167 HD
HETATM   12  N   UNL     1     -45.041 -47.238  10.045  1.00  0.00    -0.292 N 
ATOM     13  HN  UNL     1     -45.585 -47.024  10.881  1.00  0.00     0.188 HD
ENDBRANCH   5   7
ENDBRANCH   2   5
BRANCH   1  14
HETATM   14  C   UNL     1     -40.435 -48.772  13.063  1.00  0.00     0.158 C 
BRANCH  14  15
HETATM   15  C   UNL     1     -39.548 -49.656  12.145  1.00  0.00     0.240 C 
HETATM   16  N   UNL     1     -39.575 -51.115  12.364  1.00  0.00     0.094 N 
HETATM   17  C   UNL     1     -38.591 -51.457  13.394  1.00  0.00     0.273 C 
HETATM   18  C   UNL     1     -37.624 -50.283  13.454  1.00  0.00     0.032 C 
HETATM   19  C   UNL     1     -38.056 -49.360  12.330  1.00  0.00     0.039 C 
BRANCH  16  20
HETATM   20  C   UNL     1     -40.894 -51.703  12.582  1.00  0.00     0.268 C 
HETATM   21  C   UNL     1     -40.862 -53.229  12.532  1.00  0.00     0.037 C 
ENDBRANCH  16  20
ENDBRANCH  14  15
ENDBRANCH   1  14
TORSDOF 5
ENDMDL
