MODEL 1
REMARK VINA RESULT:      -5.8      0.000      0.000
REMARK  4 active torsions:
REMARK  status: ('A' for Active; 'I' for Inactive)
REMARK    1  A    between atoms: C_2  and  N_3 
REMARK    2  A    between atoms: C_2  and  C_15 
REMARK       I    between atoms: N_3  and  C_4 
REMARK    3  A    between atoms: C_4  and  C_6 
REMARK    4  A    between atoms: C_6  and  N_7 
ROOT
HETATM    1  N   UNL     1     -41.461 -48.064  11.972  1.00  0.00    -0.353 N 
HETATM    2  C   UNL     1     -40.971 -49.344  11.809  1.00  0.00     0.236 C 
HETATM    3  O   UNL     1     -40.376 -49.711  10.796  1.00  0.00    -0.272 OA
HETATM    4  H   UNL     1     -41.659 -47.735  12.916  1.00  0.00     0.163 HD
ENDROOT
BRANCH   2   5
HETATM    5  C   UNL     1     -41.197 -50.288  12.989  1.00  0.00     0.235 C 
BRANCH   5   6
HETATM    6  N   UNL     1     -42.384 -51.121  12.820  1.00  0.00    -0.301 N 
HETATM    7  C   UNL     1     -43.611 -50.671  13.267  1.00  0.00     0.102 A 
HETATM    8  C   UNL     1     -44.710 -51.424  13.184  1.00  0.00     0.092 A 
HETATM    9  C   UNL     1     -44.604 -52.771  12.599  1.00  0.00     0.250 A 
HETATM   10  O   UNL     1     -45.577 -53.511  12.537  1.00  0.00    -0.268 OA
HETATM   11  N   UNL     1     -43.369 -53.125  12.141  1.00  0.00    -0.275 N 
HETATM   12  C   UNL     1     -42.234 -52.359  12.215  1.00  0.00     0.329 A 
HETATM   13  H   UNL     1     -43.274 -54.041  11.735  1.00  0.00     0.173 HD
HETATM   14  O   UNL     1     -41.165 -52.774  11.772  1.00  0.00    -0.246 OA
ENDBRANCH   5   6
ENDBRANCH   2   5
BRANCH   1  15
HETATM   15  C   UNL     1     -41.330 -47.046  10.923  1.00  0.00     0.109 C 
HETATM   16  C   UNL     1     -40.299 -45.996  11.339  1.00  0.00     0.035 C 
BRANCH  15  17
HETATM   17  C   UNL     1     -42.710 -46.440  10.584  1.00  0.00     0.143 C 
HETATM   18  C   UNL     1     -43.863 -47.442  10.534  1.00  0.00     0.036 C 
HETATM   19  C   UNL     1     -44.604 -47.125   9.253  1.00  0.00     0.029 C 
HETATM   20  C   UNL     1     -44.035 -45.797   8.813  1.00  0.00     0.168 C 
HETATM   21  O   UNL     1     -42.692 -45.778   9.305  1.00  0.00    -0.384 OA
ENDBRANCH  15  17
ENDBRANCH   1  15
TORSDOF 4
ENDMDL
MODEL 2
REMARK VINA RESULT:      -5.5      4.853      6.990
REMARK  4 active torsions:
REMARK  status: ('A' for Active; 'I' for Inactive)
REMARK    1  A    between atoms: C_2  and  N_3 
REMARK    2  A    between atoms: C_2  and  C_15 
REMARK       I    between atoms: N_3  and  C_4 
REMARK    3  A    between atoms: C_4  and  C_6 
REMARK    4  A    between atoms: C_6  and  N_7 
ROOT
HETATM    1  N   UNL     1     -46.474 -52.701  15.711  1.00  0.00    -0.353 N 
HETATM    2  C   UNL     1     -46.026 -54.006  15.700  1.00  0.00     0.236 C 
HETATM    3  O   UNL     1     -45.832 -54.658  16.725  1.00  0.00    -0.272 OA
HETATM    4  H   UNL     1     -46.902 -52.326  14.866  1.00  0.00     0.163 HD
ENDROOT
BRANCH   2   5
HETATM    5  C   UNL     1     -45.801 -54.611  14.315  1.00  0.00     0.235 C 
BRANCH   5   6
HETATM    6  N   UNL     1     -44.558 -54.155  13.699  1.00  0.00    -0.301 N 
HETATM    7  C   UNL     1     -43.343 -54.526  14.243  1.00  0.00     0.102 A 
HETATM    8  C   UNL     1     -42.186 -54.085  13.747  1.00  0.00     0.092 A 
HETATM    9  C   UNL     1     -42.211 -53.177  12.587  1.00  0.00     0.250 A 
HETATM   10  O   UNL     1     -41.176 -52.718  12.122  1.00  0.00    -0.268 OA
HETATM   11  N   UNL     1     -43.446 -52.893  12.082  1.00  0.00    -0.275 N 
HETATM   12  C   UNL     1     -44.641 -53.344  12.578  1.00  0.00     0.329 A 
HETATM   13  H   UNL     1     -43.486 -52.276  11.287  1.00  0.00     0.173 HD
HETATM   14  O   UNL     1     -45.703 -53.026  12.047  1.00  0.00    -0.246 OA
ENDBRANCH   5   6
ENDBRANCH   2   5
BRANCH   1  15
HETATM   15  C   UNL     1     -46.726 -51.980  16.964  1.00  0.00     0.109 C 
HETATM   16  C   UNL     1     -47.993 -51.133  16.834  1.00  0.00     0.035 C 
BRANCH  15  17
HETATM   17  C   UNL     1     -45.484 -51.156  17.373  1.00  0.00     0.143 C 
HETATM   18  C   UNL     1     -45.770 -49.961  18.282  1.00  0.00     0.036 C 
HETATM   19  C   UNL     1     -45.005 -48.808  17.668  1.00  0.00     0.029 C 
HETATM   20  C   UNL     1     -44.100 -49.463  16.650  1.00  0.00     0.168 C 
HETATM   21  O   UNL     1     -44.800 -50.634  16.218  1.00  0.00    -0.384 OA
ENDBRANCH  15  17
ENDBRANCH   1  15
TORSDOF 4
ENDMDL
MODEL 3
REMARK VINA RESULT:      -5.5      2.004      2.985
REMARK  4 active torsions:
REMARK  status: ('A' for Active; 'I' for Inactive)
REMARK    1  A    between atoms: C_2  and  N_3 
REMARK    2  A    between atoms: C_2  and  C_15 
REMARK       I    between atoms: N_3  and  C_4 
REMARK    3  A    between atoms: C_4  and  C_6 
REMARK    4  A    between atoms: C_6  and  N_7 
ROOT
HETATM    1  N   UNL     1     -41.885 -49.666  11.335  1.00  0.00    -0.353 N 
HETATM    2  C   UNL     1     -41.291 -50.543  12.219  1.00  0.00     0.236 C 
HETATM    3  O   UNL     1     -40.902 -50.210  13.338  1.00  0.00    -0.272 OA
HETATM    4  H   UNL     1     -42.451 -50.046  10.578  1.00  0.00     0.163 HD
ENDROOT
BRANCH   2   5
HETATM    5  C   UNL     1     -41.162 -51.984  11.725  1.00  0.00     0.235 C 
BRANCH   5   6
HETATM    6  N   UNL     1     -41.812 -52.942  12.615  1.00  0.00    -0.301 N 
HETATM    7  C   UNL     1     -43.191 -53.007  12.668  1.00  0.00     0.102 A 
HETATM    8  C   UNL     1     -43.825 -53.827  13.508  1.00  0.00     0.092 A 
HETATM    9  C   UNL     1     -43.025 -54.684  14.401  1.00  0.00     0.250 A 
HETATM   10  O   UNL     1     -43.564 -55.423  15.215  1.00  0.00    -0.268 OA
HETATM   11  N   UNL     1     -41.672 -54.593  14.258  1.00  0.00    -0.275 N 
HETATM   12  C   UNL     1     -41.009 -53.760  13.395  1.00  0.00     0.329 A 
HETATM   13  H   UNL     1     -41.107 -55.172  14.857  1.00  0.00     0.173 HD
HETATM   14  O   UNL     1     -39.781 -53.754  13.345  1.00  0.00    -0.246 OA
ENDBRANCH   5   6
ENDBRANCH   2   5
BRANCH   1  15
HETATM   15  C   UNL     1     -42.071 -48.247  11.661  1.00  0.00     0.109 C 
HETATM   16  C   UNL     1     -43.402 -47.750  11.095  1.00  0.00     0.035 C 
BRANCH  15  17
HETATM   17  C   UNL     1     -40.859 -47.418  11.179  1.00  0.00     0.143 C 
HETATM   18  C   UNL     1     -39.989 -46.834  12.292  1.00  0.00     0.036 C 
HETATM   19  C   UNL     1     -39.772 -45.388  11.902  1.00  0.00     0.029 C 
HETATM   20  C   UNL     1     -40.254 -45.312  10.473  1.00  0.00     0.168 C 
HETATM   21  O   UNL     1     -41.276 -46.307  10.363  1.00  0.00    -0.384 OA
ENDBRANCH  15  17
ENDBRANCH   1  15
TORSDOF 4
ENDMDL
MODEL 4
REMARK VINA RESULT:      -5.5      4.031      5.162
REMARK  4 active torsions:
REMARK  status: ('A' for Active; 'I' for Inactive)
REMARK    1  A    between atoms: C_2  and  N_3 
REMARK    2  A    between atoms: C_2  and  C_15 
REMARK       I    between atoms: N_3  and  C_4 
REMARK    3  A    between atoms: C_4  and  C_6 
REMARK    4  A    between atoms: C_6  and  N_7 
ROOT
HETATM    1  N   UNL     1     -40.411 -51.758  13.809  1.00  0.00    -0.353 N 
HETATM    2  C   UNL     1     -41.063 -52.398  12.775  1.00  0.00     0.236 C 
HETATM    3  O   UNL     1     -40.536 -53.271  12.086  1.00  0.00    -0.272 OA
HETATM    4  H   UNL     1     -40.969 -51.288  14.520  1.00  0.00     0.163 HD
ENDROOT
BRANCH   2   5
HETATM    5  C   UNL     1     -42.511 -51.966  12.546  1.00  0.00     0.235 C 
BRANCH   5   6
HETATM    6  N   UNL     1     -43.460 -52.747  13.335  1.00  0.00    -0.301 N 
HETATM    7  C   UNL     1     -44.006 -53.902  12.810  1.00  0.00     0.102 A 
HETATM    8  C   UNL     1     -44.920 -54.613  13.473  1.00  0.00     0.092 A 
HETATM    9  C   UNL     1     -45.353 -54.148  14.802  1.00  0.00     0.250 A 
HETATM   10  O   UNL     1     -46.216 -54.747  15.430  1.00  0.00    -0.268 OA
HETATM   11  N   UNL     1     -44.735 -53.025  15.269  1.00  0.00    -0.275 N 
HETATM   12  C   UNL     1     -43.792 -52.289  14.600  1.00  0.00     0.329 A 
HETATM   13  H   UNL     1     -45.015 -52.691  16.177  1.00  0.00     0.173 HD
HETATM   14  O   UNL     1     -43.297 -51.287  15.112  1.00  0.00    -0.246 OA
ENDBRANCH   5   6
ENDBRANCH   2   5
BRANCH   1  15
HETATM   15  C   UNL     1     -39.013 -52.057  14.145  1.00  0.00     0.109 C 
HETATM   16  C   UNL     1     -38.848 -52.140  15.663  1.00  0.00     0.035 C 
BRANCH  15  17
HETATM   17  C   UNL     1     -38.067 -51.028  13.487  1.00  0.00     0.143 C 
HETATM   18  C   UNL     1     -38.645 -49.621  13.336  1.00  0.00     0.036 C 
HETATM   19  C   UNL     1     -38.331 -49.219  11.912  1.00  0.00     0.029 C 
HETATM   20  C   UNL     1     -37.347 -50.262  11.439  1.00  0.00     0.168 C 
HETATM   21  O   UNL     1     -37.672 -51.449  12.168  1.00  0.00    -0.384 OA
ENDBRANCH  15  17
ENDBRANCH   1  15
TORSDOF 4
ENDMDL
MODEL 5
REMARK VINA RESULT:      -5.4      1.836      6.537
REMARK  4 active torsions:
REMARK  status: ('A' for Active; 'I' for Inactive)
REMARK    1  A    between atoms: C_2  and  N_3 
REMARK    2  A    between atoms: C_2  and  C_15 
REMARK       I    between atoms: N_3  and  C_4 
REMARK    3  A    between atoms: C_4  and  C_6 
REMARK    4  A    between atoms: C_6  and  N_7 
ROOT
HETATM    1  N   UNL     1     -42.309 -51.165  12.769  1.00  0.00    -0.353 N 
HETATM    2  C   UNL     1     -41.427 -50.278  12.186  1.00  0.00     0.236 C 
HETATM    3  O   UNL     1     -40.593 -50.614  11.346  1.00  0.00    -0.272 OA
HETATM    4  H   UNL     1     -43.153 -50.796  13.206  1.00  0.00     0.163 HD
ENDROOT
BRANCH   2   5
HETATM    5  C   UNL     1     -41.563 -48.825  12.639  1.00  0.00     0.235 C 
BRANCH   5   6
HETATM    6  N   UNL     1     -42.039 -47.948  11.572  1.00  0.00    -0.301 N 
HETATM    7  C   UNL     1     -43.372 -47.963  11.211  1.00  0.00     0.102 A 
HETATM    8  C   UNL     1     -43.837 -47.220  10.205  1.00  0.00     0.092 A 
HETATM    9  C   UNL     1     -42.896 -46.363   9.463  1.00  0.00     0.250 A 
HETATM   10  O   UNL     1     -43.271 -45.694   8.508  1.00  0.00    -0.268 OA
HETATM   11  N   UNL     1     -41.607 -46.371   9.908  1.00  0.00    -0.275 N 
HETATM   12  C   UNL     1     -41.118 -47.124  10.944  1.00  0.00     0.329 A 
HETATM   13  H   UNL     1     -40.948 -45.791   9.415  1.00  0.00     0.173 HD
HETATM   14  O   UNL     1     -39.934 -47.058  11.265  1.00  0.00    -0.246 OA
ENDBRANCH   5   6
ENDBRANCH   2   5
BRANCH   1  15
HETATM   15  C   UNL     1     -42.295 -52.596  12.444  1.00  0.00     0.109 C 
HETATM   16  C   UNL     1     -43.726 -53.132  12.381  1.00  0.00     0.035 C 
BRANCH  15  17
HETATM   17  C   UNL     1     -41.402 -53.368  13.441  1.00  0.00     0.143 C 
HETATM   18  C   UNL     1     -41.303 -52.748  14.835  1.00  0.00     0.036 C 
HETATM   19  C   UNL     1     -39.826 -52.752  15.163  1.00  0.00     0.029 C 
HETATM   20  C   UNL     1     -39.212 -53.634  14.101  1.00  0.00     0.168 C 
HETATM   21  O   UNL     1     -40.053 -53.486  12.953  1.00  0.00    -0.384 OA
ENDBRANCH  15  17
ENDBRANCH   1  15
TORSDOF 4
ENDMDL
MODEL 6
REMARK VINA RESULT:      -5.4      4.903      7.542
REMARK  4 active torsions:
REMARK  status: ('A' for Active; 'I' for Inactive)
REMARK    1  A    between atoms: C_2  and  N_3 
REMARK    2  A    between atoms: C_2  and  C_15 
REMARK       I    between atoms: N_3  and  C_4 
REMARK    3  A    between atoms: C_4  and  C_6 
REMARK    4  A    between atoms: C_6  and  N_7 
ROOT
HETATM    1  N   UNL     1     -42.036 -54.216  14.029  1.00  0.00    -0.353 N 
HETATM    2  C   UNL     1     -42.539 -53.275  13.154  1.00  0.00     0.236 C 
HETATM    3  O   UNL     1     -41.932 -52.249  12.848  1.00  0.00    -0.272 OA
HETATM    4  H   UNL     1     -42.422 -55.158  14.005  1.00  0.00     0.163 HD
ENDROOT
BRANCH   2   5
HETATM    5  C   UNL     1     -43.910 -53.598  12.561  1.00  0.00     0.235 C 
BRANCH   5   6
HETATM    6  N   UNL     1     -45.008 -53.195  13.435  1.00  0.00    -0.301 N 
HETATM    7  C   UNL     1     -45.516 -51.913  13.358  1.00  0.00     0.102 A 
HETATM    8  C   UNL     1     -46.479 -51.487  14.178  1.00  0.00     0.092 A 
HETATM    9  C   UNL     1     -47.011 -52.415  15.190  1.00  0.00     0.250 A 
HETATM   10  O   UNL     1     -47.868 -52.056  15.987  1.00  0.00    -0.268 OA
HETATM   11  N   UNL     1     -46.489 -53.675  15.173  1.00  0.00    -0.275 N 
HETATM   12  C   UNL     1     -45.505 -54.127  14.333  1.00  0.00     0.329 A 
HETATM   13  H   UNL     1     -46.841 -54.327  15.856  1.00  0.00     0.173 HD
HETATM   14  O   UNL     1     -45.103 -55.287  14.402  1.00  0.00    -0.246 OA
ENDBRANCH   5   6
ENDBRANCH   2   5
BRANCH   1  15
HETATM   15  C   UNL     1     -40.736 -54.043  14.688  1.00  0.00     0.109 C 
HETATM   16  C   UNL     1     -39.620 -54.578  13.790  1.00  0.00     0.035 C 
BRANCH  15  17
HETATM   17  C   UNL     1     -40.750 -54.691  16.090  1.00  0.00     0.143 C 
HETATM   18  C   UNL     1     -39.703 -55.783  16.309  1.00  0.00     0.036 C 
HETATM   19  C   UNL     1     -40.459 -56.929  16.948  1.00  0.00     0.029 C 
HETATM   20  C   UNL     1     -41.790 -56.327  17.332  1.00  0.00     0.168 C 
HETATM   21  O   UNL     1     -42.028 -55.290  16.377  1.00  0.00    -0.384 OA
ENDBRANCH  15  17
ENDBRANCH   1  15
TORSDOF 4
ENDMDL
MODEL 7
REMARK VINA RESULT:      -5.3      3.428      5.907
REMARK  4 active torsions:
REMARK  status: ('A' for Active; 'I' for Inactive)
REMARK    1  A    between atoms: C_2  and  N_3 
REMARK    2  A    between atoms: C_2  and  C_15 
REMARK       I    between atoms: N_3  and  C_4 
REMARK    3  A    between atoms: C_4  and  C_6 
REMARK    4  A    between atoms: C_6  and  N_7 
ROOT
HETATM    1  N   UNL     1     -43.225 -53.818  13.958  1.00  0.00    -0.353 N 
HETATM    2  C   UNL     1     -44.413 -54.208  13.374  1.00  0.00     0.236 C 
HETATM    3  O   UNL     1     -44.600 -54.193  12.158  1.00  0.00    -0.272 OA
HETATM    4  H   UNL     1     -43.022 -54.135  14.905  1.00  0.00     0.163 HD
ENDROOT
BRANCH   2   5
HETATM    5  C   UNL     1     -45.494 -54.687  14.342  1.00  0.00     0.235 C 
BRANCH   5   6
HETATM    6  N   UNL     1     -46.041 -53.602  15.152  1.00  0.00    -0.301 N 
HETATM    7  C   UNL     1     -46.606 -52.501  14.537  1.00  0.00     0.102 A 
HETATM    8  C   UNL     1     -47.065 -51.462  15.238  1.00  0.00     0.092 A 
HETATM    9  C   UNL     1     -46.965 -51.498  16.707  1.00  0.00     0.250 A 
HETATM   10  O   UNL     1     -47.338 -50.552  17.388  1.00  0.00    -0.268 OA
HETATM   11  N   UNL     1     -46.436 -52.637  17.239  1.00  0.00    -0.275 N 
HETATM   12  C   UNL     1     -45.966 -53.713  16.531  1.00  0.00     0.329 A 
HETATM   13  H   UNL     1     -46.360 -52.683  18.242  1.00  0.00     0.173 HD
HETATM   14  O   UNL     1     -45.506 -54.694  17.111  1.00  0.00    -0.246 OA
ENDBRANCH   5   6
ENDBRANCH   2   5
BRANCH   1  15
HETATM   15  C   UNL     1     -42.096 -53.324  13.161  1.00  0.00     0.109 C 
HETATM   16  C   UNL     1     -40.839 -54.136  13.477  1.00  0.00     0.035 C 
BRANCH  15  17
HETATM   17  C   UNL     1     -41.907 -51.806  13.374  1.00  0.00     0.143 C 
HETATM   18  C   UNL     1     -43.000 -51.127  14.200  1.00  0.00     0.036 C 
HETATM   19  C   UNL     1     -43.369 -49.885  13.417  1.00  0.00     0.029 C 
HETATM   20  C   UNL     1     -42.279 -49.763  12.378  1.00  0.00     0.168 C 
HETATM   21  O   UNL     1     -41.851 -51.103  12.118  1.00  0.00    -0.384 OA
ENDBRANCH  15  17
ENDBRANCH   1  15
TORSDOF 4
ENDMDL
MODEL 8
REMARK VINA RESULT:      -5.3      2.227      2.939
REMARK  4 active torsions:
REMARK  status: ('A' for Active; 'I' for Inactive)
REMARK    1  A    between atoms: C_2  and  N_3 
REMARK    2  A    between atoms: C_2  and  C_15 
REMARK       I    between atoms: N_3  and  C_4 
REMARK    3  A    between atoms: C_4  and  C_6 
REMARK    4  A    between atoms: C_6  and  N_7 
ROOT
HETATM    1  N   UNL     1     -41.957 -50.361  11.763  1.00  0.00    -0.353 N 
HETATM    2  C   UNL     1     -40.945 -51.227  12.124  1.00  0.00     0.236 C 
HETATM    3  O   UNL     1     -39.907 -50.857  12.672  1.00  0.00    -0.272 OA
HETATM    4  H   UNL     1     -42.889 -50.740  11.606  1.00  0.00     0.163 HD
ENDROOT
BRANCH   2   5
HETATM    5  C   UNL     1     -41.204 -52.702  11.817  1.00  0.00     0.235 C 
BRANCH   5   6
HETATM    6  N   UNL     1     -41.798 -53.413  12.946  1.00  0.00    -0.301 N 
HETATM    7  C   UNL     1     -40.987 -53.934  13.936  1.00  0.00     0.102 A 
HETATM    8  C   UNL     1     -41.484 -54.639  14.954  1.00  0.00     0.092 A 
HETATM    9  C   UNL     1     -42.939 -54.864  15.017  1.00  0.00     0.250 A 
HETATM   10  O   UNL     1     -43.435 -55.537  15.912  1.00  0.00    -0.268 OA
HETATM   11  N   UNL     1     -43.674 -54.281  14.028  1.00  0.00    -0.275 N 
HETATM   12  C   UNL     1     -43.177 -53.549  12.981  1.00  0.00     0.329 A 
HETATM   13  H   UNL     1     -44.671 -54.421  14.054  1.00  0.00     0.173 HD
HETATM   14  O   UNL     1     -43.930 -53.066  12.138  1.00  0.00    -0.246 OA
ENDBRANCH   5   6
ENDBRANCH   2   5
BRANCH   1  15
HETATM   15  C   UNL     1     -41.851 -48.913  11.983  1.00  0.00     0.109 C 
HETATM   16  C   UNL     1     -42.905 -48.461  12.996  1.00  0.00     0.035 C 
BRANCH  15  17
HETATM   17  C   UNL     1     -41.936 -48.155  10.640  1.00  0.00     0.143 C 
HETATM   18  C   UNL     1     -41.296 -46.766  10.638  1.00  0.00     0.036 C 
HETATM   19  C   UNL     1     -42.320 -45.863   9.985  1.00  0.00     0.029 C 
HETATM   20  C   UNL     1     -43.328 -46.815   9.386  1.00  0.00     0.168 C 
HETATM   21  O   UNL     1     -43.304 -47.972  10.227  1.00  0.00    -0.384 OA
ENDBRANCH  15  17
ENDBRANCH   1  15
TORSDOF 4
ENDMDL
MODEL 9
REMARK VINA RESULT:      -5.3      4.433      6.343
REMARK  4 active torsions:
REMARK  status: ('A' for Active; 'I' for Inactive)
REMARK    1  A    between atoms: C_2  and  N_3 
REMARK    2  A    between atoms: C_2  and  C_15 
REMARK       I    between atoms: N_3  and  C_4 
REMARK    3  A    between atoms: C_4  and  C_6 
REMARK    4  A    between atoms: C_6  and  N_7 
ROOT
HETATM    1  N   UNL     1     -44.793 -52.004  12.682  1.00  0.00    -0.353 N 
HETATM    2  C   UNL     1     -43.968 -53.078  12.420  1.00  0.00     0.236 C 
HETATM    3  O   UNL     1     -44.372 -54.239  12.369  1.00  0.00    -0.272 OA
HETATM    4  H   UNL     1     -44.480 -51.072  12.413  1.00  0.00     0.163 HD
ENDROOT
BRANCH   2   5
HETATM    5  C   UNL     1     -42.499 -52.732  12.173  1.00  0.00     0.235 C 
BRANCH   5   6
HETATM    6  N   UNL     1     -41.670 -52.929  13.358  1.00  0.00    -0.301 N 
HETATM    7  C   UNL     1     -41.028 -54.136  13.556  1.00  0.00     0.102 A 
HETATM    8  C   UNL     1     -40.307 -54.377  14.654  1.00  0.00     0.092 A 
HETATM    9  C   UNL     1     -40.198 -53.323  15.677  1.00  0.00     0.250 A 
HETATM   10  O   UNL     1     -39.579 -53.514  16.716  1.00  0.00    -0.268 OA
HETATM   11  N   UNL     1     -40.823 -52.147  15.387  1.00  0.00    -0.275 N 
HETATM   12  C   UNL     1     -41.561 -51.884  14.262  1.00  0.00     0.329 A 
HETATM   13  H   UNL     1     -40.759 -51.412  16.072  1.00  0.00     0.173 HD
HETATM   14  O   UNL     1     -42.087 -50.785  14.097  1.00  0.00    -0.246 OA
ENDBRANCH   5   6
ENDBRANCH   2   5
BRANCH   1  15
HETATM   15  C   UNL     1     -46.226 -52.176  12.951  1.00  0.00     0.109 C 
HETATM   16  C   UNL     1     -47.043 -51.704  11.748  1.00  0.00     0.035 C 
BRANCH  15  17
HETATM   17  C   UNL     1     -46.618 -51.467  14.267  1.00  0.00     0.143 C 
HETATM   18  C   UNL     1     -45.446 -50.921  15.082  1.00  0.00     0.036 C 
HETATM   19  C   UNL     1     -45.709 -51.375  16.501  1.00  0.00     0.029 C 
HETATM   20  C   UNL     1     -47.135 -51.873  16.473  1.00  0.00     0.168 C 
HETATM   21  O   UNL     1     -47.344 -52.351  15.141  1.00  0.00    -0.384 OA
ENDBRANCH  15  17
ENDBRANCH   1  15
TORSDOF 4
ENDMDL
