MODEL 1
REMARK VINA RESULT:      -6.7      0.000      0.000
REMARK  5 active torsions:
REMARK  status: ('A' for Active; 'I' for Inactive)
REMARK       I    between atoms: C_2  and  N_3 
REMARK       I    between atoms: C_2  and  N_18 
REMARK    1  A    between atoms: N_3  and  C_4 
REMARK    2  A    between atoms: C_4  and  C_5 
REMARK    3  A    between atoms: C_5  and  C_6 
REMARK    4  A    between atoms: C_6  and  N_7 
REMARK    5  A    between atoms: N_18  and  C_19 
ROOT
HETATM    1  C   UNL     1     -41.516 -52.790  12.550  1.00  0.00     0.126 C 
ENDROOT
BRANCH   1   2
HETATM    2  N   UNL     1     -42.260 -51.656  12.032  1.00  0.00    -0.343 N 
HETATM    3  C   UNL     1     -41.722 -50.390  12.105  1.00  0.00     0.320 C 
HETATM    4  O   UNL     1     -40.648 -50.179  12.649  1.00  0.00    -0.247 OA
HETATM    5  N   UNL     1     -42.558 -49.447  11.547  1.00  0.00    -0.308 N 
HETATM    6  H   UNL     1     -43.500 -49.750  11.351  1.00  0.00     0.170 HD
HETATM    7  H   UNL     1     -42.967 -51.838  11.337  1.00  0.00     0.164 HD
BRANCH   5   8
HETATM    8  C   UNL     1     -42.302 -48.061  11.483  1.00  0.00     0.051 A 
HETATM    9  C   UNL     1     -42.704 -47.151  12.458  1.00  0.00     0.032 A 
HETATM   10  C   UNL     1     -42.464 -45.789  12.284  1.00  0.00     0.019 A 
HETATM   11  C   UNL     1     -41.809 -45.377  11.137  1.00  0.00     0.088 A 
HETATM   12  N   UNL     1     -41.366 -46.224  10.184  1.00  0.00    -0.373 N 
HETATM   13  C   UNL     1     -41.619 -47.541  10.383  1.00  0.00     0.117 A 
ATOM     14  HN  UNL     1     -40.868 -45.892   9.358  1.00  0.00     0.164 HD
ENDBRANCH   5   8
ENDBRANCH   1   2
BRANCH   1  15
HETATM   15  C   UNL     1     -42.436 -53.911  13.027  1.00  0.00     0.040 C 
BRANCH  15  16
HETATM   16  C   UNL     1     -43.885 -53.618  12.651  1.00  0.00     0.138 C 
BRANCH  16  17
HETATM   17  N   UNL     1     -44.747 -53.536  13.812  1.00  0.00    -0.268 N 
HETATM   18  C   UNL     1     -45.500 -54.565  14.289  1.00  0.00     0.326 C 
HETATM   19  O   UNL     1     -45.564 -55.702  13.853  1.00  0.00    -0.247 OA
HETATM   20  N   UNL     1     -46.192 -54.124  15.393  1.00  0.00    -0.324 N 
HETATM   21  C   UNL     1     -45.957 -52.729  15.666  1.00  0.00     0.116 C 
HETATM   22  H   UNL     1     -46.836 -54.731  15.883  1.00  0.00     0.165 HD
HETATM   23  C   UNL     1     -45.542 -52.463  17.109  1.00  0.00     0.041 C 
HETATM   24  C   UNL     1     -47.176 -51.843  15.375  1.00  0.00     0.041 C 
HETATM   25  C   UNL     1     -44.849 -52.447  14.636  1.00  0.00     0.256 C 
HETATM   26  C   UNL     1     -46.144 -51.102  17.429  1.00  0.00     0.003 C 
HETATM   27  C   UNL     1     -47.465 -51.104  16.678  1.00  0.00     0.003 C 
HETATM   28  O   UNL     1     -44.222 -51.402  14.542  1.00  0.00    -0.270 OA
ENDBRANCH  16  17
ENDBRANCH  15  16
ENDBRANCH   1  15
TORSDOF 5
ENDMDL
MODEL 2
REMARK VINA RESULT:      -6.5      2.810      3.537
REMARK  5 active torsions:
REMARK  status: ('A' for Active; 'I' for Inactive)
REMARK       I    between atoms: C_2  and  N_3 
REMARK       I    between atoms: C_2  and  N_18 
REMARK    1  A    between atoms: N_3  and  C_4 
REMARK    2  A    between atoms: C_4  and  C_5 
REMARK    3  A    between atoms: C_5  and  C_6 
REMARK    4  A    between atoms: C_6  and  N_7 
REMARK    5  A    between atoms: N_18  and  C_19 
ROOT
HETATM    1  C   UNL     1     -43.161 -54.458  14.109  1.00  0.00     0.126 C 
ENDROOT
BRANCH   1   2
HETATM    2  N   UNL     1     -42.488 -53.171  14.134  1.00  0.00    -0.343 N 
HETATM    3  C   UNL     1     -41.391 -52.954  13.330  1.00  0.00     0.320 C 
HETATM    4  O   UNL     1     -40.925 -53.838  12.626  1.00  0.00    -0.247 OA
HETATM    5  N   UNL     1     -40.900 -51.674  13.472  1.00  0.00    -0.308 N 
HETATM    6  H   UNL     1     -41.254 -51.147  14.255  1.00  0.00     0.170 HD
HETATM    7  H   UNL     1     -43.015 -52.374  14.454  1.00  0.00     0.164 HD
BRANCH   5   8
HETATM    8  C   UNL     1     -39.775 -51.149  12.799  1.00  0.00     0.051 A 
HETATM    9  C   UNL     1     -38.462 -51.314  13.237  1.00  0.00     0.032 A 
HETATM   10  C   UNL     1     -37.415 -50.708  12.546  1.00  0.00     0.019 A 
HETATM   11  C   UNL     1     -37.714 -49.962  11.419  1.00  0.00     0.088 A 
HETATM   12  N   UNL     1     -38.964 -49.807  10.935  1.00  0.00    -0.373 N 
HETATM   13  C   UNL     1     -39.959 -50.407  11.633  1.00  0.00     0.117 A 
ATOM     14  HN  UNL     1     -39.151 -49.268  10.089  1.00  0.00     0.164 HD
ENDBRANCH   5   8
ENDBRANCH   1   2
BRANCH   1  15
HETATM   15  C   UNL     1     -44.299 -54.490  13.091  1.00  0.00     0.040 C 
BRANCH  15  16
HETATM   16  C   UNL     1     -45.649 -54.594  13.794  1.00  0.00     0.138 C 
BRANCH  16  17
HETATM   17  N   UNL     1     -46.094 -53.319  14.315  1.00  0.00    -0.268 N 
HETATM   18  C   UNL     1     -46.502 -52.271  13.548  1.00  0.00     0.326 C 
HETATM   19  O   UNL     1     -46.583 -52.228  12.332  1.00  0.00    -0.247 OA
HETATM   20  N   UNL     1     -46.846 -51.230  14.379  1.00  0.00    -0.324 N 
HETATM   21  C   UNL     1     -46.620 -51.539  15.768  1.00  0.00     0.116 C 
HETATM   22  H   UNL     1     -47.150 -50.341  14.004  1.00  0.00     0.165 HD
HETATM   23  C   UNL     1     -47.838 -51.274  16.646  1.00  0.00     0.041 C 
HETATM   24  C   UNL     1     -45.445 -50.762  16.377  1.00  0.00     0.041 C 
HETATM   25  C   UNL     1     -46.253 -53.028  15.644  1.00  0.00     0.256 C 
HETATM   26  C   UNL     1     -47.252 -50.829  17.978  1.00  0.00     0.003 C 
HETATM   27  C   UNL     1     -46.022 -50.028  17.584  1.00  0.00     0.003 C 
HETATM   28  O   UNL     1     -46.073 -53.792  16.582  1.00  0.00    -0.270 OA
ENDBRANCH  16  17
ENDBRANCH  15  16
ENDBRANCH   1  15
TORSDOF 5
ENDMDL
MODEL 3
REMARK VINA RESULT:      -6.5      1.825      2.343
REMARK  5 active torsions:
REMARK  status: ('A' for Active; 'I' for Inactive)
REMARK       I    between atoms: C_2  and  N_3 
REMARK       I    between atoms: C_2  and  N_18 
REMARK    1  A    between atoms: N_3  and  C_4 
REMARK    2  A    between atoms: C_4  and  C_5 
REMARK    3  A    between atoms: C_5  and  C_6 
REMARK    4  A    between atoms: C_6  and  N_7 
REMARK    5  A    between atoms: N_18  and  C_19 
ROOT
HETATM    1  C   UNL     1     -39.523 -52.537  13.773  1.00  0.00     0.126 C 
ENDROOT
BRANCH   1   2
HETATM    2  N   UNL     1     -40.200 -51.255  13.849  1.00  0.00    -0.343 N 
HETATM    3  C   UNL     1     -40.623 -50.632  12.695  1.00  0.00     0.320 C 
HETATM    4  O   UNL     1     -40.394 -51.102  11.591  1.00  0.00    -0.247 OA
HETATM    5  N   UNL     1     -41.261 -49.441  12.963  1.00  0.00    -0.308 N 
HETATM    6  H   UNL     1     -41.165 -49.087  13.903  1.00  0.00     0.170 HD
HETATM    7  H   UNL     1     -40.652 -51.015  14.717  1.00  0.00     0.164 HD
BRANCH   5   8
HETATM    8  C   UNL     1     -41.792 -48.560  11.996  1.00  0.00     0.051 A 
HETATM    9  C   UNL     1     -43.156 -48.349  11.804  1.00  0.00     0.032 A 
HETATM   10  C   UNL     1     -43.595 -47.508  10.783  1.00  0.00     0.019 A 
HETATM   11  C   UNL     1     -42.648 -46.886   9.989  1.00  0.00     0.088 A 
HETATM   12  N   UNL     1     -41.317 -47.029  10.162  1.00  0.00    -0.373 N 
HETATM   13  C   UNL     1     -40.925 -47.856  11.162  1.00  0.00     0.117 A 
ATOM     14  HN  UNL     1     -40.642 -46.540   9.573  1.00  0.00     0.164 HD
ENDBRANCH   5   8
ENDBRANCH   1   2
BRANCH   1  15
HETATM   15  C   UNL     1     -40.488 -53.707  13.946  1.00  0.00     0.040 C 
BRANCH  15  16
HETATM   16  C   UNL     1     -41.374 -53.501  15.171  1.00  0.00     0.138 C 
BRANCH  16  17
HETATM   17  N   UNL     1     -42.783 -53.582  14.848  1.00  0.00    -0.268 N 
HETATM   18  C   UNL     1     -43.534 -54.713  14.945  1.00  0.00     0.326 C 
HETATM   19  O   UNL     1     -43.172 -55.814  15.326  1.00  0.00    -0.247 OA
HETATM   20  N   UNL     1     -44.819 -54.419  14.553  1.00  0.00    -0.324 N 
HETATM   21  C   UNL     1     -44.960 -53.053  14.118  1.00  0.00     0.116 C 
HETATM   22  H   UNL     1     -45.533 -55.135  14.524  1.00  0.00     0.165 HD
HETATM   23  C   UNL     1     -46.110 -52.323  14.803  1.00  0.00     0.041 C 
HETATM   24  C   UNL     1     -45.178 -52.921  12.603  1.00  0.00     0.041 C 
HETATM   25  C   UNL     1     -43.568 -52.517  14.493  1.00  0.00     0.256 C 
HETATM   26  C   UNL     1     -46.632 -51.364  13.742  1.00  0.00     0.003 C 
HETATM   27  C   UNL     1     -46.480 -52.141  12.444  1.00  0.00     0.003 C 
HETATM   28  O   UNL     1     -43.218 -51.348  14.420  1.00  0.00    -0.270 OA
ENDBRANCH  16  17
ENDBRANCH  15  16
ENDBRANCH   1  15
TORSDOF 5
ENDMDL
MODEL 4
REMARK VINA RESULT:      -6.2      2.088      7.916
REMARK  5 active torsions:
REMARK  status: ('A' for Active; 'I' for Inactive)
REMARK       I    between atoms: C_2  and  N_3 
REMARK       I    between atoms: C_2  and  N_18 
REMARK    1  A    between atoms: N_3  and  C_4 
REMARK    2  A    between atoms: C_4  and  C_5 
REMARK    3  A    between atoms: C_5  and  C_6 
REMARK    4  A    between atoms: C_6  and  N_7 
REMARK    5  A    between atoms: N_18  and  C_19 
ROOT
HETATM    1  C   UNL     1     -40.431 -50.887  12.071  1.00  0.00     0.126 C 
ENDROOT
BRANCH   1   2
HETATM    2  N   UNL     1     -41.870 -50.950  11.894  1.00  0.00    -0.343 N 
HETATM    3  C   UNL     1     -42.656 -51.531  12.865  1.00  0.00     0.320 C 
HETATM    4  O   UNL     1     -42.171 -52.052  13.858  1.00  0.00    -0.247 OA
HETATM    5  N   UNL     1     -43.994 -51.480  12.535  1.00  0.00    -0.308 N 
HETATM    6  H   UNL     1     -44.207 -51.225  11.583  1.00  0.00     0.170 HD
HETATM    7  H   UNL     1     -42.294 -50.285  11.267  1.00  0.00     0.164 HD
BRANCH   5   8
HETATM    8  C   UNL     1     -45.049 -52.005  13.312  1.00  0.00     0.051 A 
HETATM    9  C   UNL     1     -45.787 -51.255  14.227  1.00  0.00     0.032 A 
HETATM   10  C   UNL     1     -46.772 -51.869  14.999  1.00  0.00     0.019 A 
HETATM   11  C   UNL     1     -47.002 -53.221  14.820  1.00  0.00     0.088 A 
HETATM   12  N   UNL     1     -46.340 -53.979  13.919  1.00  0.00    -0.373 N 
HETATM   13  C   UNL     1     -45.387 -53.352  13.188  1.00  0.00     0.117 A 
ATOM     14  HN  UNL     1     -46.547 -54.971  13.796  1.00  0.00     0.164 HD
ENDBRANCH   5   8
ENDBRANCH   1   2
BRANCH   1  15
HETATM   15  C   UNL     1     -39.994 -49.603  12.774  1.00  0.00     0.040 C 
BRANCH  15  16
HETATM   16  C   UNL     1     -39.356 -48.635  11.782  1.00  0.00     0.138 C 
BRANCH  16  17
HETATM   17  N   UNL     1     -40.152 -47.440  11.595  1.00  0.00    -0.268 N 
HETATM   18  C   UNL     1     -41.245 -47.358  10.789  1.00  0.00     0.326 C 
HETATM   19  O   UNL     1     -41.744 -48.249  10.122  1.00  0.00    -0.247 OA
HETATM   20  N   UNL     1     -41.741 -46.076  10.853  1.00  0.00    -0.324 N 
HETATM   21  C   UNL     1     -40.938 -45.220  11.689  1.00  0.00     0.116 C 
HETATM   22  H   UNL     1     -42.541 -45.797  10.301  1.00  0.00     0.165 HD
HETATM   23  C   UNL     1     -41.753 -44.477  12.742  1.00  0.00     0.041 C 
HETATM   24  C   UNL     1     -40.154 -44.165  10.896  1.00  0.00     0.041 C 
HETATM   25  C   UNL     1     -39.968 -46.263  12.271  1.00  0.00     0.256 C 
HETATM   26  C   UNL     1     -41.040 -43.141  12.896  1.00  0.00     0.003 C 
HETATM   27  C   UNL     1     -40.563 -42.820  11.489  1.00  0.00     0.003 C 
HETATM   28  O   UNL     1     -39.139 -46.047  13.142  1.00  0.00    -0.270 OA
ENDBRANCH  16  17
ENDBRANCH  15  16
ENDBRANCH   1  15
TORSDOF 5
ENDMDL
MODEL 5
REMARK VINA RESULT:      -6.2      1.849      2.566
REMARK  5 active torsions:
REMARK  status: ('A' for Active; 'I' for Inactive)
REMARK       I    between atoms: C_2  and  N_3 
REMARK       I    between atoms: C_2  and  N_18 
REMARK    1  A    between atoms: N_3  and  C_4 
REMARK    2  A    between atoms: C_4  and  C_5 
REMARK    3  A    between atoms: C_5  and  C_6 
REMARK    4  A    between atoms: C_6  and  N_7 
REMARK    5  A    between atoms: N_18  and  C_19 
ROOT
HETATM    1  C   UNL     1     -40.347 -51.931  12.480  1.00  0.00     0.126 C 
ENDROOT
BRANCH   1   2
HETATM    2  N   UNL     1     -40.399 -50.953  11.408  1.00  0.00    -0.343 N 
HETATM    3  C   UNL     1     -41.225 -49.856  11.519  1.00  0.00     0.320 C 
HETATM    4  O   UNL     1     -41.967 -49.706  12.478  1.00  0.00    -0.247 OA
HETATM    5  N   UNL     1     -41.126 -49.030  10.420  1.00  0.00    -0.308 N 
HETATM    6  H   UNL     1     -40.644 -49.411   9.620  1.00  0.00     0.170 HD
HETATM    7  H   UNL     1     -39.608 -50.898  10.786  1.00  0.00     0.164 HD
BRANCH   5   8
HETATM    8  C   UNL     1     -41.855 -47.837  10.224  1.00  0.00     0.051 A 
HETATM    9  C   UNL     1     -42.982 -47.742   9.410  1.00  0.00     0.032 A 
HETATM   10  C   UNL     1     -43.604 -46.509   9.223  1.00  0.00     0.019 A 
HETATM   11  C   UNL     1     -43.087 -45.404   9.873  1.00  0.00     0.088 A 
HETATM   12  N   UNL     1     -42.022 -45.455  10.702  1.00  0.00    -0.373 N 
HETATM   13  C   UNL     1     -41.439 -46.668  10.859  1.00  0.00     0.117 A 
ATOM     14  HN  UNL     1     -41.676 -44.625  11.184  1.00  0.00     0.164 HD
ENDBRANCH   5   8
ENDBRANCH   1   2
BRANCH   1  15
HETATM   15  C   UNL     1     -41.016 -53.247  12.088  1.00  0.00     0.040 C 
BRANCH  15  16
HETATM   16  C   UNL     1     -41.480 -54.006  13.326  1.00  0.00     0.138 C 
BRANCH  16  17
HETATM   17  N   UNL     1     -42.507 -53.290  14.055  1.00  0.00    -0.268 N 
HETATM   18  C   UNL     1     -42.330 -52.717  15.277  1.00  0.00     0.326 C 
HETATM   19  O   UNL     1     -41.308 -52.687  15.941  1.00  0.00    -0.247 OA
HETATM   20  N   UNL     1     -43.515 -52.134  15.662  1.00  0.00    -0.324 N 
HETATM   21  C   UNL     1     -44.569 -52.352  14.704  1.00  0.00     0.116 C 
HETATM   22  H   UNL     1     -43.604 -51.676  16.559  1.00  0.00     0.165 HD
HETATM   23  C   UNL     1     -45.273 -51.066  14.286  1.00  0.00     0.041 C 
HETATM   24  C   UNL     1     -45.652 -53.318  15.206  1.00  0.00     0.041 C 
HETATM   25  C   UNL     1     -43.760 -53.015  13.576  1.00  0.00     0.256 C 
HETATM   26  C   UNL     1     -46.715 -51.488  14.043  1.00  0.00     0.003 C 
HETATM   27  C   UNL     1     -46.966 -52.550  15.101  1.00  0.00     0.003 C 
HETATM   28  O   UNL     1     -44.194 -53.300  12.469  1.00  0.00    -0.270 OA
ENDBRANCH  16  17
ENDBRANCH  15  16
ENDBRANCH   1  15
TORSDOF 5
ENDMDL
MODEL 6
REMARK VINA RESULT:      -6.2      2.190      7.512
REMARK  5 active torsions:
REMARK  status: ('A' for Active; 'I' for Inactive)
REMARK       I    between atoms: C_2  and  N_3 
REMARK       I    between atoms: C_2  and  N_18 
REMARK    1  A    between atoms: N_3  and  C_4 
REMARK    2  A    between atoms: C_4  and  C_5 
REMARK    3  A    between atoms: C_5  and  C_6 
REMARK    4  A    between atoms: C_6  and  N_7 
REMARK    5  A    between atoms: N_18  and  C_19 
ROOT
HETATM    1  C   UNL     1     -40.059 -50.612  12.804  1.00  0.00     0.126 C 
ENDROOT
BRANCH   1   2
HETATM    2  N   UNL     1     -41.348 -51.062  12.313  1.00  0.00    -0.343 N 
HETATM    3  C   UNL     1     -42.347 -51.388  13.204  1.00  0.00     0.320 C 
HETATM    4  O   UNL     1     -42.163 -51.364  14.412  1.00  0.00    -0.247 OA
HETATM    5  N   UNL     1     -43.502 -51.773  12.558  1.00  0.00    -0.308 N 
HETATM    6  H   UNL     1     -43.417 -51.958  11.570  1.00  0.00     0.170 HD
HETATM    7  H   UNL     1     -41.608 -50.804  11.374  1.00  0.00     0.164 HD
BRANCH   5   8
HETATM    8  C   UNL     1     -44.696 -52.183  13.189  1.00  0.00     0.051 A 
HETATM    9  C   UNL     1     -45.620 -51.304  13.750  1.00  0.00     0.032 A 
HETATM   10  C   UNL     1     -46.743 -51.799  14.409  1.00  0.00     0.019 A 
HETATM   11  C   UNL     1     -46.918 -53.170  14.475  1.00  0.00     0.088 A 
HETATM   12  N   UNL     1     -46.072 -54.059  13.913  1.00  0.00    -0.373 N 
HETATM   13  C   UNL     1     -44.988 -53.544  13.282  1.00  0.00     0.117 A 
ATOM     14  HN  UNL     1     -46.238 -55.064  13.960  1.00  0.00     0.164 HD
ENDBRANCH   5   8
ENDBRANCH   1   2
BRANCH   1  15
HETATM   15  C   UNL     1     -39.632 -49.291  12.169  1.00  0.00     0.040 C 
BRANCH  15  16
HETATM   16  C   UNL     1     -40.583 -48.167  12.568  1.00  0.00     0.138 C 
BRANCH  16  17
HETATM   17  N   UNL     1     -41.231 -47.565  11.421  1.00  0.00    -0.268 N 
HETATM   18  C   UNL     1     -40.692 -46.572  10.662  1.00  0.00     0.326 C 
HETATM   19  O   UNL     1     -39.599 -46.048  10.794  1.00  0.00    -0.247 OA
HETATM   20  N   UNL     1     -41.587 -46.247   9.669  1.00  0.00    -0.324 N 
HETATM   21  C   UNL     1     -42.813 -46.997   9.769  1.00  0.00     0.116 C 
HETATM   22  H   UNL     1     -41.389 -45.506   9.010  1.00  0.00     0.165 HD
HETATM   23  C   UNL     1     -43.204 -47.680   8.463  1.00  0.00     0.041 C 
HETATM   24  C   UNL     1     -44.010 -46.143  10.210  1.00  0.00     0.041 C 
HETATM   25  C   UNL     1     -42.427 -47.974  10.893  1.00  0.00     0.256 C 
HETATM   26  C   UNL     1     -44.726 -47.652   8.466  1.00  0.00     0.003 C 
HETATM   27  C   UNL     1     -45.064 -46.323   9.121  1.00  0.00     0.003 C 
HETATM   28  O   UNL     1     -43.110 -48.911  11.280  1.00  0.00    -0.270 OA
ENDBRANCH  16  17
ENDBRANCH  15  16
ENDBRANCH   1  15
TORSDOF 5
ENDMDL
MODEL 7
REMARK VINA RESULT:      -6.2      2.637      8.527
REMARK  5 active torsions:
REMARK  status: ('A' for Active; 'I' for Inactive)
REMARK       I    between atoms: C_2  and  N_3 
REMARK       I    between atoms: C_2  and  N_18 
REMARK    1  A    between atoms: N_3  and  C_4 
REMARK    2  A    between atoms: C_4  and  C_5 
REMARK    3  A    between atoms: C_5  and  C_6 
REMARK    4  A    between atoms: C_6  and  N_7 
REMARK    5  A    between atoms: N_18  and  C_19 
ROOT
HETATM    1  C   UNL     1     -40.166 -49.860  11.613  1.00  0.00     0.126 C 
ENDROOT
BRANCH   1   2
HETATM    2  N   UNL     1     -41.084 -50.947  11.323  1.00  0.00    -0.343 N 
HETATM    3  C   UNL     1     -41.887 -51.453  12.321  1.00  0.00     0.320 C 
HETATM    4  O   UNL     1     -41.812 -51.049  13.472  1.00  0.00    -0.247 OA
HETATM    5  N   UNL     1     -42.704 -52.461  11.857  1.00  0.00    -0.308 N 
HETATM    6  H   UNL     1     -42.482 -52.828  10.944  1.00  0.00     0.170 HD
HETATM    7  H   UNL     1     -41.371 -51.074  10.365  1.00  0.00     0.164 HD
BRANCH   5   8
HETATM    8  C   UNL     1     -43.627 -53.192  12.636  1.00  0.00     0.051 A 
HETATM    9  C   UNL     1     -43.266 -54.215  13.511  1.00  0.00     0.032 A 
HETATM   10  C   UNL     1     -44.249 -54.927  14.196  1.00  0.00     0.019 A 
HETATM   11  C   UNL     1     -45.573 -54.582  13.995  1.00  0.00     0.088 A 
HETATM   12  N   UNL     1     -45.968 -53.574  13.188  1.00  0.00    -0.373 N 
HETATM   13  C   UNL     1     -44.987 -52.904  12.536  1.00  0.00     0.117 A 
ATOM     14  HN  UNL     1     -46.953 -53.329  13.076  1.00  0.00     0.164 HD
ENDBRANCH   5   8
ENDBRANCH   1   2
BRANCH   1  15
HETATM   15  C   UNL     1     -40.840 -48.494  11.500  1.00  0.00     0.040 C 
BRANCH  15  16
HETATM   16  C   UNL     1     -39.815 -47.412  11.174  1.00  0.00     0.138 C 
BRANCH  16  17
HETATM   17  N   UNL     1     -40.168 -46.132  11.750  1.00  0.00    -0.268 N 
HETATM   18  C   UNL     1     -39.840 -45.735  13.010  1.00  0.00     0.326 C 
HETATM   19  O   UNL     1     -39.195 -46.355  13.839  1.00  0.00    -0.247 OA
HETATM   20  N   UNL     1     -40.343 -44.471  13.215  1.00  0.00    -0.324 N 
HETATM   21  C   UNL     1     -41.093 -43.990  12.083  1.00  0.00     0.116 C 
HETATM   22  H   UNL     1     -40.233 -44.003  14.105  1.00  0.00     0.165 HD
HETATM   23  C   UNL     1     -40.648 -42.610  11.613  1.00  0.00     0.041 C 
HETATM   24  C   UNL     1     -42.604 -43.912  12.348  1.00  0.00     0.041 C 
HETATM   25  C   UNL     1     -40.797 -45.117  11.079  1.00  0.00     0.256 C 
HETATM   26  C   UNL     1     -41.925 -41.953  11.109  1.00  0.00     0.003 C 
HETATM   27  C   UNL     1     -42.996 -42.467  12.057  1.00  0.00     0.003 C 
HETATM   28  O   UNL     1     -41.128 -45.119   9.902  1.00  0.00    -0.270 OA
ENDBRANCH  16  17
ENDBRANCH  15  16
ENDBRANCH   1  15
TORSDOF 5
ENDMDL
MODEL 8
REMARK VINA RESULT:      -6.2      2.189      3.002
REMARK  5 active torsions:
REMARK  status: ('A' for Active; 'I' for Inactive)
REMARK       I    between atoms: C_2  and  N_3 
REMARK       I    between atoms: C_2  and  N_18 
REMARK    1  A    between atoms: N_3  and  C_4 
REMARK    2  A    between atoms: C_4  and  C_5 
REMARK    3  A    between atoms: C_5  and  C_6 
REMARK    4  A    between atoms: C_6  and  N_7 
REMARK    5  A    between atoms: N_18  and  C_19 
ROOT
HETATM    1  C   UNL     1     -39.220 -51.473  14.880  1.00  0.00     0.126 C 
ENDROOT
BRANCH   1   2
HETATM    2  N   UNL     1     -39.392 -51.019  13.512  1.00  0.00    -0.343 N 
HETATM    3  C   UNL     1     -39.890 -49.758  13.264  1.00  0.00     0.320 C 
HETATM    4  O   UNL     1     -40.247 -49.019  14.169  1.00  0.00    -0.247 OA
HETATM    5  N   UNL     1     -39.963 -49.495  11.913  1.00  0.00    -0.308 N 
HETATM    6  H   UNL     1     -39.847 -50.287  11.300  1.00  0.00     0.170 HD
HETATM    7  H   UNL     1     -38.841 -51.466  12.797  1.00  0.00     0.164 HD
BRANCH   5   8
HETATM    8  C   UNL     1     -40.446 -48.300  11.336  1.00  0.00     0.051 A 
HETATM    9  C   UNL     1     -39.833 -47.059  11.495  1.00  0.00     0.032 A 
HETATM   10  C   UNL     1     -40.413 -45.919  10.941  1.00  0.00     0.019 A 
HETATM   11  C   UNL     1     -41.589 -46.059  10.226  1.00  0.00     0.088 A 
HETATM   12  N   UNL     1     -42.197 -47.245  10.012  1.00  0.00    -0.373 N 
HETATM   13  C   UNL     1     -41.609 -48.332  10.567  1.00  0.00     0.117 A 
ATOM     14  HN  UNL     1     -43.053 -47.319   9.462  1.00  0.00     0.164 HD
ENDBRANCH   5   8
ENDBRANCH   1   2
BRANCH   1  15
HETATM   15  C   UNL     1     -40.459 -52.195  15.405  1.00  0.00     0.040 C 
BRANCH  15  16
HETATM   16  C   UNL     1     -40.945 -53.235  14.400  1.00  0.00     0.138 C 
BRANCH  16  17
HETATM   17  N   UNL     1     -42.235 -52.893  13.838  1.00  0.00    -0.268 N 
HETATM   18  C   UNL     1     -42.429 -52.434  12.571  1.00  0.00     0.326 C 
HETATM   19  O   UNL     1     -41.585 -52.256  11.709  1.00  0.00    -0.247 OA
HETATM   20  N   UNL     1     -43.774 -52.210  12.389  1.00  0.00    -0.324 N 
HETATM   21  C   UNL     1     -44.539 -52.469  13.582  1.00  0.00     0.116 C 
HETATM   22  H   UNL     1     -44.128 -51.837  11.518  1.00  0.00     0.165 HD
HETATM   23  C   UNL     1     -45.721 -53.403  13.344  1.00  0.00     0.041 C 
HETATM   24  C   UNL     1     -45.093 -51.193  14.233  1.00  0.00     0.041 C 
HETATM   25  C   UNL     1     -43.437 -53.071  14.470  1.00  0.00     0.256 C 
HETATM   26  C   UNL     1     -46.788 -52.912  14.312  1.00  0.00     0.003 C 
HETATM   27  C   UNL     1     -46.602 -51.404  14.325  1.00  0.00     0.003 C 
HETATM   28  O   UNL     1     -43.611 -53.564  15.575  1.00  0.00    -0.270 OA
ENDBRANCH  16  17
ENDBRANCH  15  16
ENDBRANCH   1  15
TORSDOF 5
ENDMDL
MODEL 9
REMARK VINA RESULT:      -6.1      2.418      3.939
REMARK  5 active torsions:
REMARK  status: ('A' for Active; 'I' for Inactive)
REMARK       I    between atoms: C_2  and  N_3 
REMARK       I    between atoms: C_2  and  N_18 
REMARK    1  A    between atoms: N_3  and  C_4 
REMARK    2  A    between atoms: C_4  and  C_5 
REMARK    3  A    between atoms: C_5  and  C_6 
REMARK    4  A    between atoms: C_6  and  N_7 
REMARK    5  A    between atoms: N_18  and  C_19 
ROOT
HETATM    1  C   UNL     1     -38.545 -49.950  12.299  1.00  0.00     0.126 C 
ENDROOT
BRANCH   1   2
HETATM    2  N   UNL     1     -39.173 -49.044  11.355  1.00  0.00    -0.343 N 
HETATM    3  C   UNL     1     -39.601 -47.803  11.774  1.00  0.00     0.320 C 
HETATM    4  O   UNL     1     -39.518 -47.457  12.943  1.00  0.00    -0.247 OA
HETATM    5  N   UNL     1     -40.151 -47.076  10.741  1.00  0.00    -0.308 N 
HETATM    6  H   UNL     1     -40.353 -47.589   9.896  1.00  0.00     0.170 HD
HETATM    7  H   UNL     1     -38.978 -49.178  10.375  1.00  0.00     0.164 HD
BRANCH   5   8
HETATM    8  C   UNL     1     -40.696 -45.779  10.851  1.00  0.00     0.051 A 
HETATM    9  C   UNL     1     -39.933 -44.613  10.834  1.00  0.00     0.032 A 
HETATM   10  C   UNL     1     -40.548 -43.374  11.011  1.00  0.00     0.019 A 
HETATM   11  C   UNL     1     -41.919 -43.338  11.186  1.00  0.00     0.088 A 
HETATM   12  N   UNL     1     -42.704 -44.437  11.170  1.00  0.00    -0.373 N 
HETATM   13  C   UNL     1     -42.074 -45.625  10.999  1.00  0.00     0.117 A 
ATOM     14  HN  UNL     1     -43.716 -44.377  11.281  1.00  0.00     0.164 HD
ENDBRANCH   5   8
ENDBRANCH   1   2
BRANCH   1  15
HETATM   15  C   UNL     1     -39.383 -51.204  12.536  1.00  0.00     0.040 C 
BRANCH  15  16
HETATM   16  C   UNL     1     -40.324 -51.009  13.720  1.00  0.00     0.138 C 
BRANCH  16  17
HETATM   17  N   UNL     1     -41.686 -51.386  13.406  1.00  0.00    -0.268 N 
HETATM   18  C   UNL     1     -42.543 -50.637  12.659  1.00  0.00     0.326 C 
HETATM   19  O   UNL     1     -42.317 -49.564  12.124  1.00  0.00    -0.247 OA
HETATM   20  N   UNL     1     -43.744 -51.301  12.574  1.00  0.00    -0.324 N 
HETATM   21  C   UNL     1     -43.746 -52.529  13.329  1.00  0.00     0.116 C 
HETATM   22  H   UNL     1     -44.531 -50.897  12.083  1.00  0.00     0.165 HD
HETATM   23  C   UNL     1     -44.208 -53.731  12.514  1.00  0.00     0.041 C 
HETATM   24  C   UNL     1     -44.630 -52.465  14.583  1.00  0.00     0.041 C 
HETATM   25  C   UNL     1     -42.264 -52.583  13.737  1.00  0.00     0.256 C 
HETATM   26  C   UNL     1     -44.931 -54.613  13.522  1.00  0.00     0.003 C 
HETATM   27  C   UNL     1     -45.616 -53.621  14.448  1.00  0.00     0.003 C 
HETATM   28  O   UNL     1     -41.724 -53.515  14.315  1.00  0.00    -0.270 OA
ENDBRANCH  16  17
ENDBRANCH  15  16
ENDBRANCH   1  15
TORSDOF 5
ENDMDL
