MODEL 1
REMARK VINA RESULT:      -6.6      0.000      0.000
REMARK  5 active torsions:
REMARK  status: ('A' for Active; 'I' for Inactive)
REMARK    1  A    between atoms: C_2  and  C_3 
REMARK       I    between atoms: C_2  and  N_10 
REMARK    2  A    between atoms: C_3  and  C_4 
REMARK    3  A    between atoms: N_10  and  C_11 
REMARK    4  A    between atoms: C_11  and  C_12 
REMARK    5  A    between atoms: C_12  and  C_17 
ROOT
HETATM    1  C   UNL     1     -42.399 -47.405  11.421  1.00  0.00     0.003 C 
HETATM    2  C   UNL     1     -40.875 -47.493  11.119  1.00  0.00     0.016 C 
HETATM    3  C   UNL     1     -40.394 -46.076  10.797  1.00  0.00     0.001 C 
HETATM    4  C   UNL     1     -41.573 -45.149  11.055  1.00  0.00     0.001 C 
HETATM    5  C   UNL     1     -42.510 -45.952  11.949  1.00  0.00     0.016 C 
ENDROOT
BRANCH   1   6
HETATM    6  C   UNL     1     -42.794 -48.468  12.491  1.00  0.00     0.137 C 
BRANCH   6   7
HETATM    7  N   UNL     1     -42.651 -49.849  12.052  1.00  0.00    -0.360 N 
HETATM    8  C   UNL     1     -41.811 -50.746  12.675  1.00  0.00     0.221 C 
HETATM    9  O   UNL     1     -41.131 -50.472  13.660  1.00  0.00    -0.273 OA
HETATM   10  H   UNL     1     -43.040 -50.112  11.155  1.00  0.00     0.162 HD
BRANCH   8  11
HETATM   11  C   UNL     1     -41.794 -52.128  12.029  1.00  0.00     0.136 C 
BRANCH  11  12
HETATM   12  C   UNL     1     -42.672 -53.111  12.769  1.00  0.00    -0.075 A 
HETATM   13  C   UNL     1     -43.970 -53.260  12.462  1.00  0.00    -0.023 A 
HETATM   14  C   UNL     1     -44.913 -54.175  13.167  1.00  0.00     0.027 A 
HETATM   15  C   UNL     1     -44.354 -54.998  14.321  1.00  0.00     0.004 A 
HETATM   16  C   UNL     1     -42.881 -54.846  14.686  1.00  0.00     0.005 A 
HETATM   17  C   UNL     1     -42.020 -53.865  13.891  1.00  0.00     0.034 A 
ENDBRANCH  11  12
ENDBRANCH   8  11
ENDBRANCH   6   7
ENDBRANCH   1   6
BRANCH   1  18
HETATM   18  C   UNL     1     -43.329 -47.581  10.198  1.00  0.00    -0.045 A 
HETATM   19  C   UNL     1     -42.774 -47.796   8.922  1.00  0.00     0.025 A 
HETATM   20  C   UNL     1     -43.604 -47.914   7.815  1.00  0.00     0.088 A 
HETATM   21  N   UNL     1     -44.946 -47.843   7.876  1.00  0.00    -0.375 N 
HETATM   22  C   UNL     1     -45.476 -47.648   9.099  1.00  0.00     0.088 A 
ATOM     23  HN  UNL     1     -45.530 -47.931   7.044  1.00  0.00     0.164 HD
HETATM   24  C   UNL     1     -44.724 -47.516  10.264  1.00  0.00     0.025 A 
ENDBRANCH   1  18
TORSDOF 5
ENDMDL
MODEL 2
REMARK VINA RESULT:      -6.4      1.791      2.206
REMARK  5 active torsions:
REMARK  status: ('A' for Active; 'I' for Inactive)
REMARK    1  A    between atoms: C_2  and  C_3 
REMARK       I    between atoms: C_2  and  N_10 
REMARK    2  A    between atoms: C_3  and  C_4 
REMARK    3  A    between atoms: N_10  and  C_11 
REMARK    4  A    between atoms: C_11  and  C_12 
REMARK    5  A    between atoms: C_12  and  C_17 
ROOT
HETATM    1  C   UNL     1     -42.200 -47.694  11.854  1.00  0.00     0.003 C 
HETATM    2  C   UNL     1     -41.181 -46.596  12.271  1.00  0.00     0.016 C 
HETATM    3  C   UNL     1     -41.836 -45.764  13.376  1.00  0.00     0.001 C 
HETATM    4  C   UNL     1     -43.152 -46.452  13.712  1.00  0.00     0.001 C 
HETATM    5  C   UNL     1     -43.000 -47.867  13.171  1.00  0.00     0.016 C 
ENDROOT
BRANCH   1   6
HETATM    6  C   UNL     1     -41.445 -48.991  11.432  1.00  0.00     0.137 C 
BRANCH   6   7
HETATM    7  N   UNL     1     -42.172 -50.225  11.691  1.00  0.00    -0.360 N 
HETATM    8  C   UNL     1     -41.736 -51.172  12.593  1.00  0.00     0.221 C 
HETATM    9  O   UNL     1     -40.718 -51.052  13.267  1.00  0.00    -0.273 OA
HETATM   10  H   UNL     1     -42.922 -50.483  11.063  1.00  0.00     0.162 HD
BRANCH   8  11
HETATM   11  C   UNL     1     -42.635 -52.402  12.682  1.00  0.00     0.136 C 
BRANCH  11  12
HETATM   12  C   UNL     1     -43.985 -52.074  13.278  1.00  0.00    -0.075 A 
HETATM   13  C   UNL     1     -45.124 -52.309  12.607  1.00  0.00    -0.023 A 
HETATM   14  C   UNL     1     -46.489 -51.981  13.104  1.00  0.00     0.027 A 
HETATM   15  C   UNL     1     -46.593 -51.328  14.478  1.00  0.00     0.004 A 
HETATM   16  C   UNL     1     -45.312 -51.054  15.259  1.00  0.00     0.005 A 
HETATM   17  C   UNL     1     -43.970 -51.430  14.634  1.00  0.00     0.034 A 
ENDBRANCH  11  12
ENDBRANCH   8  11
ENDBRANCH   6   7
ENDBRANCH   1   6
BRANCH   1  18
HETATM   18  C   UNL     1     -43.167 -47.304  10.712  1.00  0.00    -0.045 A 
HETATM   19  C   UNL     1     -42.795 -46.305   9.792  1.00  0.00     0.025 A 
HETATM   20  C   UNL     1     -43.677 -45.923   8.788  1.00  0.00     0.088 A 
HETATM   21  N   UNL     1     -44.899 -46.461   8.623  1.00  0.00    -0.375 N 
HETATM   22  C   UNL     1     -45.248 -47.424   9.497  1.00  0.00     0.088 A 
ATOM     23  HN  UNL     1     -45.525 -46.157   7.877  1.00  0.00     0.164 HD
HETATM   24  C   UNL     1     -44.433 -47.870  10.535  1.00  0.00     0.025 A 
ENDBRANCH   1  18
TORSDOF 5
ENDMDL
MODEL 3
REMARK VINA RESULT:      -6.3      2.192      3.445
REMARK  5 active torsions:
REMARK  status: ('A' for Active; 'I' for Inactive)
REMARK    1  A    between atoms: C_2  and  C_3 
REMARK       I    between atoms: C_2  and  N_10 
REMARK    2  A    between atoms: C_3  and  C_4 
REMARK    3  A    between atoms: N_10  and  C_11 
REMARK    4  A    between atoms: C_11  and  C_12 
REMARK    5  A    between atoms: C_12  and  C_17 
ROOT
HETATM    1  C   UNL     1     -41.392 -49.005  12.678  1.00  0.00     0.003 C 
HETATM    2  C   UNL     1     -40.483 -49.034  13.939  1.00  0.00     0.016 C 
HETATM    3  C   UNL     1     -41.243 -48.324  15.063  1.00  0.00     0.001 C 
HETATM    4  C   UNL     1     -42.632 -48.021  14.520  1.00  0.00     0.001 C 
HETATM    5  C   UNL     1     -42.798 -48.957  13.329  1.00  0.00     0.016 C 
ENDROOT
BRANCH   1   6
HETATM    6  C   UNL     1     -41.165 -50.292  11.827  1.00  0.00     0.137 C 
BRANCH   6   7
HETATM    7  N   UNL     1     -42.173 -51.325  12.014  1.00  0.00    -0.360 N 
HETATM    8  C   UNL     1     -41.936 -52.475  12.736  1.00  0.00     0.221 C 
HETATM    9  O   UNL     1     -40.873 -52.719  13.298  1.00  0.00    -0.273 OA
HETATM   10  H   UNL     1     -43.013 -51.288  11.450  1.00  0.00     0.162 HD
BRANCH   8  11
HETATM   11  C   UNL     1     -43.121 -53.435  12.776  1.00  0.00     0.136 C 
BRANCH  11  12
HETATM   12  C   UNL     1     -44.377 -52.765  13.286  1.00  0.00    -0.075 A 
HETATM   13  C   UNL     1     -45.477 -52.666  12.524  1.00  0.00    -0.023 A 
HETATM   14  C   UNL     1     -46.739 -51.987  12.934  1.00  0.00     0.027 A 
HETATM   15  C   UNL     1     -46.775 -51.361  14.323  1.00  0.00     0.004 A 
HETATM   16  C   UNL     1     -45.536 -51.464  15.207  1.00  0.00     0.005 A 
HETATM   17  C   UNL     1     -44.299 -52.179  14.666  1.00  0.00     0.034 A 
ENDBRANCH  11  12
ENDBRANCH   8  11
ENDBRANCH   6   7
ENDBRANCH   1   6
BRANCH   1  18
HETATM   18  C   UNL     1     -41.210 -47.776  11.755  1.00  0.00    -0.045 A 
HETATM   19  C   UNL     1     -42.271 -47.360  10.930  1.00  0.00     0.025 A 
HETATM   20  C   UNL     1     -42.099 -46.282  10.070  1.00  0.00     0.088 A 
HETATM   21  N   UNL     1     -40.955 -45.580   9.971  1.00  0.00    -0.375 N 
HETATM   22  C   UNL     1     -39.945 -45.974  10.770  1.00  0.00     0.088 A 
ATOM     23  HN  UNL     1     -40.859 -44.794   9.327  1.00  0.00     0.164 HD
HETATM   24  C   UNL     1     -40.024 -47.042  11.661  1.00  0.00     0.025 A 
ENDBRANCH   1  18
TORSDOF 5
ENDMDL
MODEL 4
REMARK VINA RESULT:      -6.2      1.885      3.185
REMARK  5 active torsions:
REMARK  status: ('A' for Active; 'I' for Inactive)
REMARK    1  A    between atoms: C_2  and  C_3 
REMARK       I    between atoms: C_2  and  N_10 
REMARK    2  A    between atoms: C_3  and  C_4 
REMARK    3  A    between atoms: N_10  and  C_11 
REMARK    4  A    between atoms: C_11  and  C_12 
REMARK    5  A    between atoms: C_12  and  C_17 
ROOT
HETATM    1  C   UNL     1     -41.321 -49.436  12.324  1.00  0.00     0.003 C 
HETATM    2  C   UNL     1     -40.653 -49.227  13.713  1.00  0.00     0.016 C 
HETATM    3  C   UNL     1     -41.764 -48.858  14.700  1.00  0.00     0.001 C 
HETATM    4  C   UNL     1     -43.078 -48.998  13.944  1.00  0.00     0.001 C 
HETATM    5  C   UNL     1     -42.745 -49.879  12.746  1.00  0.00     0.016 C 
ENDROOT
BRANCH   1   6
HETATM    6  C   UNL     1     -40.558 -50.538  11.526  1.00  0.00     0.137 C 
BRANCH   6   7
HETATM    7  N   UNL     1     -41.086 -51.883  11.698  1.00  0.00    -0.360 N 
HETATM    8  C   UNL     1     -40.532 -52.795  12.570  1.00  0.00     0.221 C 
HETATM    9  O   UNL     1     -39.567 -52.551  13.289  1.00  0.00    -0.273 OA
HETATM   10  H   UNL     1     -41.766 -52.223  11.031  1.00  0.00     0.162 HD
BRANCH   8  11
HETATM   11  C   UNL     1     -41.225 -54.154  12.567  1.00  0.00     0.136 C 
BRANCH  11  12
HETATM   12  C   UNL     1     -42.466 -54.160  13.429  1.00  0.00    -0.075 A 
HETATM   13  C   UNL     1     -42.414 -54.485  14.731  1.00  0.00    -0.023 A 
HETATM   14  C   UNL     1     -43.593 -54.554  15.640  1.00  0.00     0.027 A 
HETATM   15  C   UNL     1     -44.957 -54.231  15.039  1.00  0.00     0.004 A 
HETATM   16  C   UNL     1     -45.038 -53.858  13.562  1.00  0.00     0.005 A 
HETATM   17  C   UNL     1     -43.755 -53.832  12.734  1.00  0.00     0.034 A 
ENDBRANCH  11  12
ENDBRANCH   8  11
ENDBRANCH   6   7
ENDBRANCH   1   6
BRANCH   1  18
HETATM   18  C   UNL     1     -41.416 -48.173  11.436  1.00  0.00    -0.045 A 
HETATM   19  C   UNL     1     -40.385 -47.215  11.471  1.00  0.00     0.025 A 
HETATM   20  C   UNL     1     -40.485 -46.060  10.705  1.00  0.00     0.088 A 
HETATM   21  N   UNL     1     -41.528 -45.785   9.901  1.00  0.00    -0.375 N 
HETATM   22  C   UNL     1     -42.508 -46.708   9.861  1.00  0.00     0.088 A 
ATOM     23  HN  UNL     1     -41.573 -44.926   9.352  1.00  0.00     0.164 HD
HETATM   24  C   UNL     1     -42.495 -47.893  10.593  1.00  0.00     0.025 A 
ENDBRANCH   1  18
TORSDOF 5
ENDMDL
MODEL 5
REMARK VINA RESULT:      -6.1      3.227      5.606
REMARK  5 active torsions:
REMARK  status: ('A' for Active; 'I' for Inactive)
REMARK    1  A    between atoms: C_2  and  C_3 
REMARK       I    between atoms: C_2  and  N_10 
REMARK    2  A    between atoms: C_3  and  C_4 
REMARK    3  A    between atoms: N_10  and  C_11 
REMARK    4  A    between atoms: C_11  and  C_12 
REMARK    5  A    between atoms: C_12  and  C_17 
ROOT
HETATM    1  C   UNL     1     -41.277 -52.943  14.163  1.00  0.00     0.003 C 
HETATM    2  C   UNL     1     -39.729 -53.072  14.082  1.00  0.00     0.016 C 
HETATM    3  C   UNL     1     -39.150 -52.353  15.303  1.00  0.00     0.001 C 
HETATM    4  C   UNL     1     -40.335 -51.943  16.166  1.00  0.00     0.001 C 
HETATM    5  C   UNL     1     -41.483 -52.827  15.694  1.00  0.00     0.016 C 
ENDROOT
BRANCH   1   6
HETATM    6  C   UNL     1     -41.951 -54.214  13.558  1.00  0.00     0.137 C 
BRANCH   6   7
HETATM    7  N   UNL     1     -43.257 -54.529  14.118  1.00  0.00    -0.360 N 
HETATM    8  C   UNL     1     -44.419 -54.468  13.380  1.00  0.00     0.221 C 
HETATM    9  O   UNL     1     -44.455 -54.167  12.191  1.00  0.00    -0.273 OA
HETATM   10  H   UNL     1     -43.342 -54.620  15.122  1.00  0.00     0.162 HD
BRANCH   8  11
HETATM   11  C   UNL     1     -45.676 -54.807  14.175  1.00  0.00     0.136 C 
BRANCH  11  12
HETATM   12  C   UNL     1     -46.138 -53.647  15.027  1.00  0.00    -0.075 A 
HETATM   13  C   UNL     1     -46.644 -52.532  14.478  1.00  0.00    -0.023 A 
HETATM   14  C   UNL     1     -47.084 -51.330  15.241  1.00  0.00     0.027 A 
HETATM   15  C   UNL     1     -46.946 -51.378  16.758  1.00  0.00     0.004 A 
HETATM   16  C   UNL     1     -46.375 -52.637  17.404  1.00  0.00     0.005 A 
HETATM   17  C   UNL     1     -45.950 -53.800  16.509  1.00  0.00     0.034 A 
ENDBRANCH  11  12
ENDBRANCH   8  11
ENDBRANCH   6   7
ENDBRANCH   1   6
BRANCH   1  18
HETATM   18  C   UNL     1     -41.878 -51.700  13.466  1.00  0.00    -0.045 A 
HETATM   19  C   UNL     1     -41.168 -51.070  12.427  1.00  0.00     0.025 A 
HETATM   20  C   UNL     1     -41.685 -49.929  11.825  1.00  0.00     0.088 A 
HETATM   21  N   UNL     1     -42.858 -49.368  12.172  1.00  0.00    -0.375 N 
HETATM   22  C   UNL     1     -43.540 -49.978  13.160  1.00  0.00     0.088 A 
ATOM     23  HN  UNL     1     -43.210 -48.527  11.713  1.00  0.00     0.164 HD
HETATM   24  C   UNL     1     -43.101 -51.123  13.821  1.00  0.00     0.025 A 
ENDBRANCH   1  18
TORSDOF 5
ENDMDL
MODEL 6
REMARK VINA RESULT:      -6.1      4.001      6.069
REMARK  5 active torsions:
REMARK  status: ('A' for Active; 'I' for Inactive)
REMARK    1  A    between atoms: C_2  and  C_3 
REMARK       I    between atoms: C_2  and  N_10 
REMARK    2  A    between atoms: C_3  and  C_4 
REMARK    3  A    between atoms: N_10  and  C_11 
REMARK    4  A    between atoms: C_11  and  C_12 
REMARK    5  A    between atoms: C_12  and  C_17 
ROOT
HETATM    1  C   UNL     1     -41.384 -52.691  13.332  1.00  0.00     0.003 C 
HETATM    2  C   UNL     1     -40.503 -53.965  13.189  1.00  0.00     0.016 C 
HETATM    3  C   UNL     1     -40.104 -54.400  14.601  1.00  0.00     0.001 C 
HETATM    4  C   UNL     1     -40.860 -53.495  15.563  1.00  0.00     0.001 C 
HETATM    5  C   UNL     1     -42.000 -52.916  14.736  1.00  0.00     0.016 C 
ENDROOT
BRANCH   1   6
HETATM    6  C   UNL     1     -42.458 -52.655  12.201  1.00  0.00     0.137 C 
BRANCH   6   7
HETATM    7  N   UNL     1     -43.682 -51.950  12.553  1.00  0.00    -0.360 N 
HETATM    8  C   UNL     1     -44.896 -52.588  12.692  1.00  0.00     0.221 C 
HETATM    9  O   UNL     1     -45.049 -53.798  12.555  1.00  0.00    -0.273 OA
HETATM   10  H   UNL     1     -43.683 -50.939  12.517  1.00  0.00     0.162 HD
BRANCH   8  11
HETATM   11  C   UNL     1     -46.051 -51.651  13.032  1.00  0.00     0.136 C 
BRANCH  11  12
HETATM   12  C   UNL     1     -46.111 -51.338  14.510  1.00  0.00    -0.075 A 
HETATM   13  C   UNL     1     -47.220 -51.570  15.231  1.00  0.00    -0.023 A 
HETATM   14  C   UNL     1     -47.375 -51.255  16.679  1.00  0.00     0.027 A 
HETATM   15  C   UNL     1     -46.184 -50.621  17.387  1.00  0.00     0.004 A 
HETATM   16  C   UNL     1     -44.914 -50.350  16.587  1.00  0.00     0.005 A 
HETATM   17  C   UNL     1     -44.883 -50.711  15.103  1.00  0.00     0.034 A 
ENDBRANCH  11  12
ENDBRANCH   8  11
ENDBRANCH   6   7
ENDBRANCH   1   6
BRANCH   1  18
HETATM   18  C   UNL     1     -40.618 -51.348  13.314  1.00  0.00    -0.045 A 
HETATM   19  C   UNL     1     -39.411 -51.241  12.599  1.00  0.00     0.025 A 
HETATM   20  C   UNL     1     -38.698 -50.049  12.613  1.00  0.00     0.088 A 
HETATM   21  N   UNL     1     -39.096 -48.949  13.278  1.00  0.00    -0.375 N 
HETATM   22  C   UNL     1     -40.257 -49.049  13.953  1.00  0.00     0.088 A 
ATOM     23  HN  UNL     1     -38.549 -48.087  13.272  1.00  0.00     0.164 HD
HETATM   24  C   UNL     1     -41.038 -50.203  13.998  1.00  0.00     0.025 A 
ENDBRANCH   1  18
TORSDOF 5
ENDMDL
MODEL 7
REMARK VINA RESULT:      -6.1      3.884      5.478
REMARK  5 active torsions:
REMARK  status: ('A' for Active; 'I' for Inactive)
REMARK    1  A    between atoms: C_2  and  C_3 
REMARK       I    between atoms: C_2  and  N_10 
REMARK    2  A    between atoms: C_3  and  C_4 
REMARK    3  A    between atoms: N_10  and  C_11 
REMARK    4  A    between atoms: C_11  and  C_12 
REMARK    5  A    between atoms: C_12  and  C_17 
ROOT
HETATM    1  C   UNL     1     -39.240 -51.611  14.864  1.00  0.00     0.003 C 
HETATM    2  C   UNL     1     -38.110 -51.267  15.875  1.00  0.00     0.016 C 
HETATM    3  C   UNL     1     -38.515 -49.972  16.585  1.00  0.00     0.001 C 
HETATM    4  C   UNL     1     -39.924 -49.643  16.114  1.00  0.00     0.001 C 
HETATM    5  C   UNL     1     -40.463 -50.954  15.554  1.00  0.00     0.016 C 
ENDROOT
BRANCH   1   6
HETATM    6  C   UNL     1     -39.383 -53.158  14.729  1.00  0.00     0.137 C 
BRANCH   6   7
HETATM    7  N   UNL     1     -40.729 -53.663  14.957  1.00  0.00    -0.360 N 
HETATM    8  C   UNL     1     -41.548 -54.091  13.935  1.00  0.00     0.221 C 
HETATM    9  O   UNL     1     -41.212 -54.107  12.755  1.00  0.00    -0.273 OA
HETATM   10  H   UNL     1     -41.146 -53.527  15.869  1.00  0.00     0.162 HD
BRANCH   8  11
HETATM   11  C   UNL     1     -42.928 -54.549  14.398  1.00  0.00     0.136 C 
BRANCH  11  12
HETATM   12  C   UNL     1     -44.003 -53.543  14.054  1.00  0.00    -0.075 A 
HETATM   13  C   UNL     1     -44.717 -53.640  12.921  1.00  0.00    -0.023 A 
HETATM   14  C   UNL     1     -45.764 -52.672  12.489  1.00  0.00     0.027 A 
HETATM   15  C   UNL     1     -46.039 -51.485  13.406  1.00  0.00     0.004 A 
HETATM   16  C   UNL     1     -45.240 -51.357  14.699  1.00  0.00     0.005 A 
HETATM   17  C   UNL     1     -44.185 -52.413  15.025  1.00  0.00     0.034 A 
ENDBRANCH  11  12
ENDBRANCH   8  11
ENDBRANCH   6   7
ENDBRANCH   1   6
BRANCH   1  18
HETATM   18  C   UNL     1     -39.068 -51.015  13.447  1.00  0.00    -0.045 A 
HETATM   19  C   UNL     1     -37.776 -50.822  12.923  1.00  0.00     0.025 A 
HETATM   20  C   UNL     1     -37.615 -50.251  11.667  1.00  0.00     0.088 A 
HETATM   21  N   UNL     1     -38.639 -49.861  10.886  1.00  0.00    -0.375 N 
HETATM   22  C   UNL     1     -39.875 -50.057  11.385  1.00  0.00     0.088 A 
ATOM     23  HN  UNL     1     -38.489 -49.442   9.968  1.00  0.00     0.164 HD
HETATM   24  C   UNL     1     -40.133 -50.621  12.633  1.00  0.00     0.025 A 
ENDBRANCH   1  18
TORSDOF 5
ENDMDL
MODEL 8
REMARK VINA RESULT:      -6.0      4.801      6.891
REMARK  5 active torsions:
REMARK  status: ('A' for Active; 'I' for Inactive)
REMARK    1  A    between atoms: C_2  and  C_3 
REMARK       I    between atoms: C_2  and  N_10 
REMARK    2  A    between atoms: C_3  and  C_4 
REMARK    3  A    between atoms: N_10  and  C_11 
REMARK    4  A    between atoms: C_11  and  C_12 
REMARK    5  A    between atoms: C_12  and  C_17 
ROOT
HETATM    1  C   UNL     1     -40.269 -53.853  14.286  1.00  0.00     0.003 C 
HETATM    2  C   UNL     1     -39.055 -54.820  14.390  1.00  0.00     0.016 C 
HETATM    3  C   UNL     1     -39.101 -55.457  15.781  1.00  0.00     0.001 C 
HETATM    4  C   UNL     1     -40.400 -54.994  16.427  1.00  0.00     0.001 C 
HETATM    5  C   UNL     1     -41.266 -54.526  15.264  1.00  0.00     0.016 C 
ENDROOT
BRANCH   1   6
HETATM    6  C   UNL     1     -40.797 -53.815  12.819  1.00  0.00     0.137 C 
BRANCH   6   7
HETATM    7  N   UNL     1     -42.241 -53.948  12.693  1.00  0.00    -0.360 N 
HETATM    8  C   UNL     1     -43.078 -52.865  12.532  1.00  0.00     0.221 C 
HETATM    9  O   UNL     1     -42.684 -51.705  12.460  1.00  0.00    -0.273 OA
HETATM   10  H   UNL     1     -42.663 -54.841  12.910  1.00  0.00     0.162 HD
BRANCH   8  11
HETATM   11  C   UNL     1     -44.557 -53.233  12.454  1.00  0.00     0.136 C 
BRANCH  11  12
HETATM   12  C   UNL     1     -45.292 -52.898  13.731  1.00  0.00    -0.075 A 
HETATM   13  C   UNL     1     -45.172 -53.661  14.830  1.00  0.00    -0.023 A 
HETATM   14  C   UNL     1     -45.891 -53.425  16.113  1.00  0.00     0.027 A 
HETATM   15  C   UNL     1     -46.832 -52.228  16.176  1.00  0.00     0.004 A 
HETATM   16  C   UNL     1     -46.982 -51.347  14.940  1.00  0.00     0.005 A 
HETATM   17  C   UNL     1     -46.196 -51.701  13.679  1.00  0.00     0.034 A 
ENDBRANCH  11  12
ENDBRANCH   8  11
ENDBRANCH   6   7
ENDBRANCH   1   6
BRANCH   1  18
HETATM   18  C   UNL     1     -40.002 -52.399  14.742  1.00  0.00    -0.045 A 
HETATM   19  C   UNL     1     -38.745 -51.812  14.504  1.00  0.00     0.025 A 
HETATM   20  C   UNL     1     -38.487 -50.521  14.947  1.00  0.00     0.088 A 
HETATM   21  N   UNL     1     -39.384 -49.763  15.604  1.00  0.00    -0.375 N 
HETATM   22  C   UNL     1     -40.590 -50.323  15.821  1.00  0.00     0.088 A 
ATOM     23  HN  UNL     1     -39.164 -48.818  15.919  1.00  0.00     0.164 HD
HETATM   24  C   UNL     1     -40.938 -51.610  15.416  1.00  0.00     0.025 A 
ENDBRANCH   1  18
TORSDOF 5
ENDMDL
MODEL 9
REMARK VINA RESULT:      -6.0      3.915      6.638
REMARK  5 active torsions:
REMARK  status: ('A' for Active; 'I' for Inactive)
REMARK    1  A    between atoms: C_2  and  C_3 
REMARK       I    between atoms: C_2  and  N_10 
REMARK    2  A    between atoms: C_3  and  C_4 
REMARK    3  A    between atoms: N_10  and  C_11 
REMARK    4  A    between atoms: C_11  and  C_12 
REMARK    5  A    between atoms: C_12  and  C_17 
ROOT
HETATM    1  C   UNL     1     -43.800 -52.059  14.616  1.00  0.00     0.003 C 
HETATM    2  C   UNL     1     -44.720 -50.896  14.146  1.00  0.00     0.016 C 
HETATM    3  C   UNL     1     -45.927 -51.527  13.447  1.00  0.00     0.001 C 
HETATM    4  C   UNL     1     -45.799 -53.032  13.637  1.00  0.00     0.001 C 
HETATM    5  C   UNL     1     -44.836 -53.195  14.807  1.00  0.00     0.016 C 
ENDROOT
BRANCH   1   6
HETATM    6  C   UNL     1     -43.081 -51.668  15.944  1.00  0.00     0.137 C 
BRANCH   6   7
HETATM    7  N   UNL     1     -41.936 -50.786  15.774  1.00  0.00    -0.360 N 
HETATM    8  C   UNL     1     -40.639 -51.197  16.000  1.00  0.00     0.221 C 
HETATM    9  O   UNL     1     -40.335 -52.336  16.339  1.00  0.00    -0.273 OA
HETATM   10  H   UNL     1     -42.103 -49.794  15.663  1.00  0.00     0.162 HD
BRANCH   8  11
HETATM   11  C   UNL     1     -39.598 -50.101  15.792  1.00  0.00     0.136 C 
BRANCH  11  12
HETATM   12  C   UNL     1     -39.059 -50.090  14.380  1.00  0.00    -0.075 A 
HETATM   13  C   UNL     1     -38.076 -50.922  13.999  1.00  0.00    -0.023 A 
HETATM   14  C   UNL     1     -37.462 -50.949  12.642  1.00  0.00     0.027 A 
HETATM   15  C   UNL     1     -37.994 -49.955  11.615  1.00  0.00     0.004 A 
HETATM   16  C   UNL     1     -39.112 -49.003  12.027  1.00  0.00     0.005 A 
HETATM   17  C   UNL     1     -39.651 -49.068  13.455  1.00  0.00     0.034 A 
ENDBRANCH  11  12
ENDBRANCH   8  11
ENDBRANCH   6   7
ENDBRANCH   1   6
BRANCH   1  18
HETATM   18  C   UNL     1     -42.724 -52.507  13.598  1.00  0.00    -0.045 A 
HETATM   19  C   UNL     1     -42.151 -53.788  13.707  1.00  0.00     0.025 A 
HETATM   20  C   UNL     1     -41.156 -54.181  12.821  1.00  0.00     0.088 A 
HETATM   21  N   UNL     1     -40.690 -53.402  11.828  1.00  0.00    -0.375 N 
HETATM   22  C   UNL     1     -41.248 -52.181  11.718  1.00  0.00     0.088 A 
ATOM     23  HN  UNL     1     -39.956 -53.718  11.193  1.00  0.00     0.164 HD
HETATM   24  C   UNL     1     -42.248 -51.701  12.561  1.00  0.00     0.025 A 
ENDBRANCH   1  18
TORSDOF 5
ENDMDL
