MODEL 1
REMARK VINA RESULT:      -6.1      0.000      0.000
REMARK  5 active torsions:
REMARK  status: ('A' for Active; 'I' for Inactive)
REMARK    1  A    between atoms: O_1  and  C_2 
REMARK    2  A    between atoms: C_2  and  CA_4 
REMARK    3  A    between atoms: C_7  and  O_8 
REMARK    4  A    between atoms: O_8  and  C_9 
REMARK    5  A    between atoms: C_9  and  C_10 
ROOT
HETATM    1  CA  UNL     1     -41.879 -53.684  13.228  1.00  0.00     0.130 A 
HETATM    2  N   UNL     1     -43.116 -53.504  12.640  1.00  0.00    -0.330 N 
ATOM      3  HN  UNL     1     -43.234 -52.957  11.788  1.00  0.00     0.168 HD
HETATM    4  C   UNL     1     -44.159 -54.096  13.260  1.00  0.00     0.142 A 
HETATM    5  C   UNL     1     -44.042 -54.846  14.419  1.00  0.00     0.058 A 
HETATM    6  C   UNL     1     -42.781 -55.020  14.983  1.00  0.00     0.031 A 
HETATM    7  C   UNL     1     -41.667 -54.435  14.383  1.00  0.00     0.067 A 
HETATM    8 CL   UNL     1     -40.140 -54.705  15.130  1.00  0.00    -0.082 Cl
ENDROOT
BRANCH   4   9
HETATM    9  O   UNL     1     -45.440 -53.975  12.768  1.00  0.00    -0.333 OA
BRANCH   9  10
HETATM   10  C   UNL     1     -45.808 -52.667  12.332  1.00  0.00     0.209 C 
BRANCH  10  11
HETATM   11  C   UNL     1     -46.464 -51.939  13.510  1.00  0.00     0.145 C 
HETATM   12  C   UNL     1     -45.499 -51.102  14.341  1.00  0.00     0.036 C 
HETATM   13  C   UNL     1     -46.001 -51.241  15.764  1.00  0.00     0.029 C 
HETATM   14  C   UNL     1     -47.203 -52.158  15.665  1.00  0.00     0.168 C 
HETATM   15  O   UNL     1     -47.056 -52.866  14.429  1.00  0.00    -0.384 OA
ENDBRANCH  10  11
ENDBRANCH   9  10
ENDBRANCH   4   9
BRANCH   1  16
HETATM   16  C   UNL     1     -40.769 -52.977  12.502  1.00  0.00     0.195 C 
HETATM   17  OXT UNL     1     -40.076 -52.070  12.919  1.00  0.00    -0.645 OA
BRANCH  16  18
HETATM   18  O   UNL     1     -40.631 -53.499  11.255  1.00  0.00    -0.772 OA
HETATM   19  H   UNL     1     -39.998 -54.254  11.287  1.00  0.00     0.167 HD
ENDBRANCH  16  18
ENDBRANCH   1  16
TORSDOF 5
ENDMDL
MODEL 2
REMARK VINA RESULT:      -5.9      0.953      1.186
REMARK  5 active torsions:
REMARK  status: ('A' for Active; 'I' for Inactive)
REMARK    1  A    between atoms: O_1  and  C_2 
REMARK    2  A    between atoms: C_2  and  CA_4 
REMARK    3  A    between atoms: C_7  and  O_8 
REMARK    4  A    between atoms: O_8  and  C_9 
REMARK    5  A    between atoms: C_9  and  C_10 
ROOT
HETATM    1  CA  UNL     1     -41.515 -53.737  13.317  1.00  0.00     0.130 A 
HETATM    2  N   UNL     1     -42.792 -53.775  12.793  1.00  0.00    -0.330 N 
ATOM      3  HN  UNL     1     -43.020 -53.350  11.895  1.00  0.00     0.168 HD
HETATM    4  C   UNL     1     -43.721 -54.409  13.540  1.00  0.00     0.142 A 
HETATM    5  C   UNL     1     -43.455 -54.999  14.764  1.00  0.00     0.058 A 
HETATM    6  C   UNL     1     -42.156 -54.955  15.263  1.00  0.00     0.031 A 
HETATM    7  C   UNL     1     -41.154 -54.317  14.532  1.00  0.00     0.067 A 
HETATM    8 CL   UNL     1     -39.570 -54.315  15.205  1.00  0.00    -0.082 Cl
ENDROOT
BRANCH   4   9
HETATM    9  O   UNL     1     -45.031 -54.498  13.120  1.00  0.00    -0.333 OA
BRANCH   9  10
HETATM   10  C   UNL     1     -45.966 -54.915  14.114  1.00  0.00     0.209 C 
BRANCH  10  11
HETATM   11  C   UNL     1     -46.787 -53.694  14.538  1.00  0.00     0.145 C 
HETATM   12  C   UNL     1     -46.592 -52.472  13.648  1.00  0.00     0.036 C 
HETATM   13  C   UNL     1     -46.666 -51.292  14.597  1.00  0.00     0.029 C 
HETATM   14  C   UNL     1     -46.878 -51.907  15.965  1.00  0.00     0.168 C 
HETATM   15  O   UNL     1     -46.435 -53.264  15.859  1.00  0.00    -0.384 OA
ENDBRANCH  10  11
ENDBRANCH   9  10
ENDBRANCH   4   9
BRANCH   1  16
HETATM   16  C   UNL     1     -40.540 -52.995  12.448  1.00  0.00     0.195 C 
HETATM   17  OXT UNL     1     -39.766 -52.121  12.787  1.00  0.00    -0.645 OA
BRANCH  16  18
HETATM   18  O   UNL     1     -40.636 -53.438  11.166  1.00  0.00    -0.772 OA
HETATM   19  H   UNL     1     -41.586 -53.478  10.907  1.00  0.00     0.167 HD
ENDBRANCH  16  18
ENDBRANCH   1  16
TORSDOF 5
ENDMDL
MODEL 3
REMARK VINA RESULT:      -5.7      2.632      5.821
REMARK  5 active torsions:
REMARK  status: ('A' for Active; 'I' for Inactive)
REMARK    1  A    between atoms: O_1  and  C_2 
REMARK    2  A    between atoms: C_2  and  CA_4 
REMARK    3  A    between atoms: C_7  and  O_8 
REMARK    4  A    between atoms: O_8  and  C_9 
REMARK    5  A    between atoms: C_9  and  C_10 
ROOT
HETATM    1  CA  UNL     1     -44.796 -52.844  12.952  1.00  0.00     0.130 A 
HETATM    2  N   UNL     1     -43.697 -52.217  12.398  1.00  0.00    -0.330 N 
ATOM      3  HN  UNL     1     -43.781 -51.349  11.871  1.00  0.00     0.168 HD
HETATM    4  C   UNL     1     -42.507 -52.822  12.596  1.00  0.00     0.142 A 
HETATM    5  C   UNL     1     -42.349 -54.002  13.304  1.00  0.00     0.058 A 
HETATM    6  C   UNL     1     -43.473 -54.606  13.861  1.00  0.00     0.031 A 
HETATM    7  C   UNL     1     -44.728 -54.023  13.693  1.00  0.00     0.067 A 
HETATM    8 CL   UNL     1     -46.069 -54.820  14.422  1.00  0.00    -0.082 Cl
ENDROOT
BRANCH   4   9
HETATM    9  O   UNL     1     -41.345 -52.291  12.079  1.00  0.00    -0.333 OA
BRANCH   9  10
HETATM   10  C   UNL     1     -41.280 -50.865  12.055  1.00  0.00     0.209 C 
BRANCH  10  11
HETATM   11  C   UNL     1     -39.898 -50.443  12.562  1.00  0.00     0.145 C 
HETATM   12  C   UNL     1     -39.239 -49.346  11.735  1.00  0.00     0.036 C 
HETATM   13  C   UNL     1     -37.763 -49.689  11.752  1.00  0.00     0.029 C 
HETATM   14  C   UNL     1     -37.669 -50.963  12.565  1.00  0.00     0.168 C 
HETATM   15  O   UNL     1     -38.979 -51.542  12.540  1.00  0.00    -0.384 OA
ENDBRANCH  10  11
ENDBRANCH   9  10
ENDBRANCH   4   9
BRANCH   1  16
HETATM   16  C   UNL     1     -46.089 -52.133  12.672  1.00  0.00     0.195 C 
HETATM   17  OXT UNL     1     -46.650 -51.318  13.378  1.00  0.00    -0.645 OA
BRANCH  16  18
HETATM   18  O   UNL     1     -46.585 -52.536  11.473  1.00  0.00    -0.772 OA
HETATM   19  H   UNL     1     -46.150 -52.023  10.752  1.00  0.00     0.167 HD
ENDBRANCH  16  18
ENDBRANCH   1  16
TORSDOF 5
ENDMDL
MODEL 4
REMARK VINA RESULT:      -5.7      2.020      2.572
REMARK  5 active torsions:
REMARK  status: ('A' for Active; 'I' for Inactive)
REMARK    1  A    between atoms: O_1  and  C_2 
REMARK    2  A    between atoms: C_2  and  CA_4 
REMARK    3  A    between atoms: C_7  and  O_8 
REMARK    4  A    between atoms: O_8  and  C_9 
REMARK    5  A    between atoms: C_9  and  C_10 
ROOT
HETATM    1  CA  UNL     1     -40.813 -51.264  12.236  1.00  0.00     0.130 A 
HETATM    2  N   UNL     1     -42.112 -51.565  11.876  1.00  0.00    -0.330 N 
ATOM      3  HN  UNL     1     -42.646 -50.973  11.240  1.00  0.00     0.168 HD
HETATM    4  C   UNL     1     -42.632 -52.688  12.414  1.00  0.00     0.142 A 
HETATM    5  C   UNL     1     -41.941 -53.519  13.281  1.00  0.00     0.058 A 
HETATM    6  C   UNL     1     -40.629 -53.197  13.618  1.00  0.00     0.031 A 
HETATM    7  C   UNL     1     -40.039 -52.051  13.088  1.00  0.00     0.067 A 
HETATM    8 CL   UNL     1     -38.411 -51.725  13.539  1.00  0.00    -0.082 Cl
ENDROOT
BRANCH   4   9
HETATM    9  O   UNL     1     -43.923 -53.080  12.133  1.00  0.00    -0.333 OA
BRANCH   9  10
HETATM   10  C   UNL     1     -44.466 -54.071  13.003  1.00  0.00     0.209 C 
BRANCH  10  11
HETATM   11  C   UNL     1     -45.757 -53.515  13.612  1.00  0.00     0.145 C 
HETATM   12  C   UNL     1     -46.157 -52.144  13.081  1.00  0.00     0.036 C 
HETATM   13  C   UNL     1     -46.762 -51.433  14.275  1.00  0.00     0.029 C 
HETATM   14  C   UNL     1     -46.654 -52.426  15.414  1.00  0.00     0.168 C 
HETATM   15  O   UNL     1     -45.633 -53.354  15.031  1.00  0.00    -0.384 OA
ENDBRANCH  10  11
ENDBRANCH   9  10
ENDBRANCH   4   9
BRANCH   1  16
HETATM   16  C   UNL     1     -40.307 -49.989  11.623  1.00  0.00     0.195 C 
HETATM   17  OXT UNL     1     -39.883 -49.009  12.204  1.00  0.00    -0.645 OA
BRANCH  16  18
HETATM   18  O   UNL     1     -40.393 -50.064  10.269  1.00  0.00    -0.772 OA
HETATM   19  H   UNL     1     -39.490 -49.990   9.882  1.00  0.00     0.167 HD
ENDBRANCH  16  18
ENDBRANCH   1  16
TORSDOF 5
ENDMDL
MODEL 5
REMARK VINA RESULT:      -5.5      4.466      5.977
REMARK  5 active torsions:
REMARK  status: ('A' for Active; 'I' for Inactive)
REMARK    1  A    between atoms: O_1  and  C_2 
REMARK    2  A    between atoms: C_2  and  CA_4 
REMARK    3  A    between atoms: C_7  and  O_8 
REMARK    4  A    between atoms: O_8  and  C_9 
REMARK    5  A    between atoms: C_9  and  C_10 
ROOT
HETATM    1  CA  UNL     1     -40.614 -51.365  12.194  1.00  0.00     0.130 A 
HETATM    2  N   UNL     1     -41.239 -50.392  11.440  1.00  0.00    -0.330 N 
ATOM      3  HN  UNL     1     -42.073 -50.590  10.888  1.00  0.00     0.168 HD
HETATM    4  C   UNL     1     -40.683 -49.163  11.479  1.00  0.00     0.142 A 
HETATM    5  C   UNL     1     -39.552 -48.852  12.216  1.00  0.00     0.058 A 
HETATM    6  C   UNL     1     -38.948 -49.851  12.975  1.00  0.00     0.031 A 
HETATM    7  C   UNL     1     -39.483 -51.138  12.977  1.00  0.00     0.067 A 
HETATM    8 CL   UNL     1     -38.692 -52.316  13.949  1.00  0.00    -0.082 Cl
ENDROOT
BRANCH   4   9
HETATM    9  O   UNL     1     -41.217 -48.117  10.758  1.00  0.00    -0.333 OA
BRANCH   9  10
HETATM   10  C   UNL     1     -42.546 -47.741  11.115  1.00  0.00     0.209 C 
BRANCH  10  11
HETATM   11  C   UNL     1     -43.267 -47.276   9.847  1.00  0.00     0.145 C 
HETATM   12  C   UNL     1     -44.776 -47.480   9.877  1.00  0.00     0.036 C 
HETATM   13  C   UNL     1     -45.142 -47.842   8.451  1.00  0.00     0.029 C 
HETATM   14  C   UNL     1     -43.826 -47.841   7.701  1.00  0.00     0.168 C 
HETATM   15  O   UNL     1     -42.806 -47.993   8.695  1.00  0.00    -0.384 OA
ENDBRANCH  10  11
ENDBRANCH   9  10
ENDBRANCH   4   9
BRANCH   1  16
HETATM   16  C   UNL     1     -41.269 -52.713  12.083  1.00  0.00     0.195 C 
HETATM   17  OXT UNL     1     -42.248 -53.108  12.687  1.00  0.00    -0.645 OA
BRANCH  16  18
HETATM   18  O   UNL     1     -40.596 -53.480  11.186  1.00  0.00    -0.772 OA
HETATM   19  H   UNL     1     -40.021 -54.117  11.670  1.00  0.00     0.167 HD
ENDBRANCH  16  18
ENDBRANCH   1  16
TORSDOF 5
ENDMDL
MODEL 6
REMARK VINA RESULT:      -5.4      4.875      6.932
REMARK  5 active torsions:
REMARK  status: ('A' for Active; 'I' for Inactive)
REMARK    1  A    between atoms: O_1  and  C_2 
REMARK    2  A    between atoms: C_2  and  CA_4 
REMARK    3  A    between atoms: C_7  and  O_8 
REMARK    4  A    between atoms: O_8  and  C_9 
REMARK    5  A    between atoms: C_9  and  C_10 
ROOT
HETATM    1  CA  UNL     1     -41.740 -48.015  10.493  1.00  0.00     0.130 A 
HETATM    2  N   UNL     1     -41.586 -49.356  10.779  1.00  0.00    -0.330 N 
ATOM      3  HN  UNL     1     -42.247 -50.058  10.448  1.00  0.00     0.168 HD
HETATM    4  C   UNL     1     -40.509 -49.685  11.524  1.00  0.00     0.142 A 
HETATM    5  C   UNL     1     -39.588 -48.764  11.996  1.00  0.00     0.058 A 
HETATM    6  C   UNL     1     -39.762 -47.418  11.682  1.00  0.00     0.031 A 
HETATM    7  C   UNL     1     -40.854 -47.022  10.911  1.00  0.00     0.067 A 
HETATM    8 CL   UNL     1     -40.996 -45.345  10.552  1.00  0.00    -0.082 Cl
ENDROOT
BRANCH   4   9
HETATM    9  O   UNL     1     -40.263 -50.993  11.880  1.00  0.00    -0.333 OA
BRANCH   9  10
HETATM   10  C   UNL     1     -41.419 -51.813  12.042  1.00  0.00     0.209 C 
BRANCH  10  11
HETATM   11  C   UNL     1     -40.967 -53.173  12.582  1.00  0.00     0.145 C 
HETATM   12  C   UNL     1     -41.824 -53.707  13.723  1.00  0.00     0.036 C 
HETATM   13  C   UNL     1     -40.845 -54.419  14.636  1.00  0.00     0.029 C 
HETATM   14  C   UNL     1     -39.494 -54.235  13.975  1.00  0.00     0.168 C 
HETATM   15  O   UNL     1     -39.633 -53.107  13.103  1.00  0.00    -0.384 OA
ENDBRANCH  10  11
ENDBRANCH   9  10
ENDBRANCH   4   9
BRANCH   1  16
HETATM   16  C   UNL     1     -42.971 -47.718   9.685  1.00  0.00     0.195 C 
HETATM   17  OXT UNL     1     -44.019 -47.246  10.083  1.00  0.00    -0.645 OA
BRANCH  16  18
HETATM   18  O   UNL     1     -42.764 -48.065   8.387  1.00  0.00    -0.772 OA
HETATM   19  H   UNL     1     -41.798 -48.180   8.232  1.00  0.00     0.167 HD
ENDBRANCH  16  18
ENDBRANCH   1  16
TORSDOF 5
ENDMDL
MODEL 7
REMARK VINA RESULT:      -5.2      6.429      6.931
REMARK  5 active torsions:
REMARK  status: ('A' for Active; 'I' for Inactive)
REMARK    1  A    between atoms: O_1  and  C_2 
REMARK    2  A    between atoms: C_2  and  CA_4 
REMARK    3  A    between atoms: C_7  and  O_8 
REMARK    4  A    between atoms: O_8  and  C_9 
REMARK    5  A    between atoms: C_9  and  C_10 
ROOT
HETATM    1  CA  UNL     1     -38.154 -49.441  12.243  1.00  0.00     0.130 A 
HETATM    2  N   UNL     1     -39.022 -48.818  11.368  1.00  0.00    -0.330 N 
ATOM      3  HN  UNL     1     -39.114 -49.115  10.397  1.00  0.00     0.168 HD
HETATM    4  C   UNL     1     -39.742 -47.794  11.874  1.00  0.00     0.142 A 
HETATM    5  C   UNL     1     -39.646 -47.359  13.186  1.00  0.00     0.058 A 
HETATM    6  C   UNL     1     -38.771 -48.013  14.048  1.00  0.00     0.031 A 
HETATM    7  C   UNL     1     -38.006 -49.081  13.581  1.00  0.00     0.067 A 
HETATM    8 CL   UNL     1     -36.956 -49.848  14.709  1.00  0.00    -0.082 Cl
ENDROOT
BRANCH   4   9
HETATM    9  O   UNL     1     -40.631 -47.094  11.089  1.00  0.00    -0.333 OA
BRANCH   9  10
HETATM   10  C   UNL     1     -41.998 -47.169  11.493  1.00  0.00     0.209 C 
BRANCH  10  11
HETATM   11  C   UNL     1     -42.857 -47.345  10.237  1.00  0.00     0.145 C 
HETATM   12  C   UNL     1     -43.012 -46.078   9.405  1.00  0.00     0.036 C 
HETATM   13  C   UNL     1     -44.428 -46.146   8.867  1.00  0.00     0.029 C 
HETATM   14  C   UNL     1     -44.998 -47.429   9.435  1.00  0.00     0.168 C 
HETATM   15  O   UNL     1     -44.191 -47.749  10.573  1.00  0.00    -0.384 OA
ENDBRANCH  10  11
ENDBRANCH   9  10
ENDBRANCH   4   9
BRANCH   1  16
HETATM   16  C   UNL     1     -37.367 -50.552  11.607  1.00  0.00     0.195 C 
HETATM   17  OXT UNL     1     -36.933 -51.551  12.148  1.00  0.00    -0.645 OA
BRANCH  16  18
HETATM   18  O   UNL     1     -37.183 -50.289  10.287  1.00  0.00    -0.772 OA
HETATM   19  H   UNL     1     -36.267 -49.952  10.147  1.00  0.00     0.167 HD
ENDBRANCH  16  18
ENDBRANCH   1  16
TORSDOF 5
ENDMDL
MODEL 8
REMARK VINA RESULT:      -5.0      2.710      5.842
REMARK  5 active torsions:
REMARK  status: ('A' for Active; 'I' for Inactive)
REMARK    1  A    between atoms: O_1  and  C_2 
REMARK    2  A    between atoms: C_2  and  CA_4 
REMARK    3  A    between atoms: C_7  and  O_8 
REMARK    4  A    between atoms: O_8  and  C_9 
REMARK    5  A    between atoms: C_9  and  C_10 
ROOT
HETATM    1  CA  UNL     1     -44.645 -53.210  13.917  1.00  0.00     0.130 A 
HETATM    2  N   UNL     1     -43.388 -53.599  13.501  1.00  0.00    -0.330 N 
ATOM      3  HN  UNL     1     -43.085 -54.572  13.534  1.00  0.00     0.168 HD
HETATM    4  C   UNL     1     -42.583 -52.616  13.046  1.00  0.00     0.142 A 
HETATM    5  C   UNL     1     -42.954 -51.283  12.984  1.00  0.00     0.058 A 
HETATM    6  C   UNL     1     -44.232 -50.921  13.400  1.00  0.00     0.031 A 
HETATM    7  C   UNL     1     -45.108 -51.896  13.875  1.00  0.00     0.067 A 
HETATM    8 CL   UNL     1     -46.676 -51.376  14.359  1.00  0.00    -0.082 Cl
ENDROOT
BRANCH   4   9
HETATM    9  O   UNL     1     -41.303 -52.887  12.614  1.00  0.00    -0.333 OA
BRANCH   9  10
HETATM   10  C   UNL     1     -40.539 -53.744  13.462  1.00  0.00     0.209 C 
BRANCH  10  11
HETATM   11  C   UNL     1     -39.335 -52.951  13.980  1.00  0.00     0.145 C 
HETATM   12  C   UNL     1     -39.628 -52.106  15.213  1.00  0.00     0.036 C 
HETATM   13  C   UNL     1     -38.790 -50.857  15.028  1.00  0.00     0.029 C 
HETATM   14  C   UNL     1     -38.087 -51.053  13.701  1.00  0.00     0.168 C 
HETATM   15  O   UNL     1     -38.854 -52.032  12.991  1.00  0.00    -0.384 OA
ENDBRANCH  10  11
ENDBRANCH   9  10
ENDBRANCH   4   9
BRANCH   1  16
HETATM   16  C   UNL     1     -45.477 -54.349  14.435  1.00  0.00     0.195 C 
HETATM   17  OXT UNL     1     -45.848 -54.531  15.579  1.00  0.00    -0.645 OA
BRANCH  16  18
HETATM   18  O   UNL     1     -45.776 -55.201  13.419  1.00  0.00    -0.772 OA
HETATM   19  H   UNL     1     -46.485 -55.819  13.711  1.00  0.00     0.167 HD
ENDBRANCH  16  18
ENDBRANCH   1  16
TORSDOF 5
ENDMDL
MODEL 9
REMARK VINA RESULT:      -4.9      6.238      8.393
REMARK  5 active torsions:
REMARK  status: ('A' for Active; 'I' for Inactive)
REMARK    1  A    between atoms: O_1  and  C_2 
REMARK    2  A    between atoms: C_2  and  CA_4 
REMARK    3  A    between atoms: C_7  and  O_8 
REMARK    4  A    between atoms: O_8  and  C_9 
REMARK    5  A    between atoms: C_9  and  C_10 
ROOT
HETATM    1  CA  UNL     1     -42.875 -46.492  10.158  1.00  0.00     0.130 A 
HETATM    2  N   UNL     1     -42.665 -47.851  10.276  1.00  0.00    -0.330 N 
ATOM      3  HN  UNL     1     -42.956 -48.507   9.552  1.00  0.00     0.168 HD
HETATM    4  C   UNL     1     -42.051 -48.261  11.406  1.00  0.00     0.142 A 
HETATM    5  C   UNL     1     -41.640 -47.404  12.414  1.00  0.00     0.058 A 
HETATM    6  C   UNL     1     -41.855 -46.036  12.263  1.00  0.00     0.031 A 
HETATM    7  C   UNL     1     -42.481 -45.556  11.113  1.00  0.00     0.067 A 
HETATM    8 CL   UNL     1     -42.700 -43.854  10.991  1.00  0.00    -0.082 Cl
ENDROOT
BRANCH   4   9
HETATM    9  O   UNL     1     -41.799 -49.596  11.635  1.00  0.00    -0.333 OA
BRANCH   9  10
HETATM   10  C   UNL     1     -40.892 -49.875  12.701  1.00  0.00     0.209 C 
BRANCH  10  11
HETATM   11  C   UNL     1     -39.628 -50.497  12.100  1.00  0.00     0.145 C 
HETATM   12  C   UNL     1     -38.764 -51.247  13.105  1.00  0.00     0.036 C 
HETATM   13  C   UNL     1     -37.340 -50.983  12.657  1.00  0.00     0.029 C 
HETATM   14  C   UNL     1     -37.475 -50.088  11.443  1.00  0.00     0.168 C 
HETATM   15  O   UNL     1     -38.775 -49.495  11.534  1.00  0.00    -0.384 OA
ENDBRANCH  10  11
ENDBRANCH   9  10
ENDBRANCH   4   9
BRANCH   1  16
HETATM   16  C   UNL     1     -43.586 -46.109   8.890  1.00  0.00     0.195 C 
HETATM   17  OXT UNL     1     -44.762 -45.831   8.760  1.00  0.00    -0.645 OA
BRANCH  16  18
HETATM   18  O   UNL     1     -42.710 -46.120   7.851  1.00  0.00    -0.772 OA
HETATM   19  H   UNL     1     -42.628 -47.039   7.505  1.00  0.00     0.167 HD
ENDBRANCH  16  18
ENDBRANCH   1  16
TORSDOF 5
ENDMDL
