MODEL 1
REMARK VINA RESULT:      -5.8      0.000      0.000
REMARK  2 active torsions:
REMARK  status: ('A' for Active; 'I' for Inactive)
REMARK    1  A    between atoms: C_4  and  N_5 
REMARK       I    between atoms: N_5  and  C_6 
REMARK       I    between atoms: C_6  and  N_8 
REMARK    2  A    between atoms: N_8  and  C_9 
ROOT
HETATM    1  N   UNL     1     -41.926 -48.265   9.695  1.00  0.00    -0.338 N 
HETATM    2  C   UNL     1     -41.510 -48.799  10.900  1.00  0.00     0.321 C 
HETATM    3  O   UNL     1     -42.139 -48.627  11.937  1.00  0.00    -0.247 OA
HETATM    4  N   UNL     1     -40.345 -49.529  10.789  1.00  0.00    -0.307 N 
HETATM    5  H   UNL     1     -41.243 -48.160   8.959  1.00  0.00     0.164 HD
HETATM    6  H   UNL     1     -40.143 -49.928   9.880  1.00  0.00     0.170 HD
ENDROOT
BRANCH   4   7
HETATM    7  C   UNL     1     -39.576 -50.020  11.882  1.00  0.00     0.061 A 
HETATM    8  C   UNL     1     -38.492 -49.303  12.389  1.00  0.00     0.048 A 
HETATM    9  C   UNL     1     -37.766 -49.833  13.439  1.00  0.00     0.090 A 
HETATM   10  N   UNL     1     -38.021 -51.034  13.993  1.00  0.00    -0.368 N 
HETATM   11  C   UNL     1     -39.062 -51.748  13.491  1.00  0.00     0.029 A 
ATOM     12  HN  UNL     1     -37.454 -51.394  14.761  1.00  0.00     0.165 HD
HETATM   13  C   UNL     1     -39.256 -53.102  14.109  1.00  0.00     0.070 C 
HETATM   14  C   UNL     1     -39.870 -51.274  12.447  1.00  0.00     0.083 A 
HETATM   15 CL   UNL     1     -41.216 -52.196  11.866  1.00  0.00    -0.080 Cl
ENDBRANCH   4   7
BRANCH   1  16
HETATM   16  C   UNL     1     -43.093 -47.429   9.663  1.00  0.00     0.090 A 
HETATM   17  C   UNL     1     -44.003 -47.448   8.460  1.00  0.00     0.006 A 
HETATM   18  C   UNL     1     -43.660 -48.245   7.247  1.00  0.00     0.012 C 
HETATM   19  C   UNL     1     -43.217 -46.210   8.797  1.00  0.00     0.032 A 
ENDBRANCH   1  16
TORSDOF 2
ENDMDL
MODEL 2
REMARK VINA RESULT:      -5.6      3.619      5.406
REMARK  2 active torsions:
REMARK  status: ('A' for Active; 'I' for Inactive)
REMARK    1  A    between atoms: C_4  and  N_5 
REMARK       I    between atoms: N_5  and  C_6 
REMARK       I    between atoms: C_6  and  N_8 
REMARK    2  A    between atoms: N_8  and  C_9 
ROOT
HETATM    1  N   UNL     1     -40.407 -50.920  11.337  1.00  0.00    -0.338 N 
HETATM    2  C   UNL     1     -41.458 -51.356  12.123  1.00  0.00     0.321 C 
HETATM    3  O   UNL     1     -42.046 -50.605  12.893  1.00  0.00    -0.247 OA
HETATM    4  N   UNL     1     -41.752 -52.689  11.932  1.00  0.00    -0.307 N 
HETATM    5  H   UNL     1     -39.767 -51.610  10.973  1.00  0.00     0.164 HD
HETATM    6  H   UNL     1     -41.498 -53.088  11.037  1.00  0.00     0.170 HD
ENDROOT
BRANCH   4   7
HETATM    7  C   UNL     1     -42.638 -53.458  12.740  1.00  0.00     0.061 A 
HETATM    8  C   UNL     1     -44.009 -53.493  12.486  1.00  0.00     0.048 A 
HETATM    9  C   UNL     1     -44.828 -54.240  13.311  1.00  0.00     0.090 A 
HETATM   10  N   UNL     1     -44.385 -54.920  14.386  1.00  0.00    -0.368 N 
HETATM   11  C   UNL     1     -43.055 -54.874  14.654  1.00  0.00     0.029 A 
ATOM     12  HN  UNL     1     -45.026 -55.451  14.976  1.00  0.00     0.165 HD
HETATM   13  C   UNL     1     -42.634 -55.602  15.896  1.00  0.00     0.070 C 
HETATM   14  C   UNL     1     -42.147 -54.167  13.852  1.00  0.00     0.083 A 
HETATM   15 CL   UNL     1     -40.451 -54.170  14.202  1.00  0.00    -0.080 Cl
ENDBRANCH   4   7
BRANCH   1  16
HETATM   16  C   UNL     1     -39.945 -49.567  11.469  1.00  0.00     0.090 A 
HETATM   17  C   UNL     1     -38.466 -49.276  11.526  1.00  0.00     0.006 A 
HETATM   18  C   UNL     1     -37.464 -50.382  11.553  1.00  0.00     0.012 C 
HETATM   19  C   UNL     1     -39.336 -49.017  12.726  1.00  0.00     0.032 A 
ENDBRANCH   1  16
TORSDOF 2
ENDMDL
MODEL 3
REMARK VINA RESULT:      -5.5      2.807      6.026
REMARK  2 active torsions:
REMARK  status: ('A' for Active; 'I' for Inactive)
REMARK    1  A    between atoms: C_4  and  N_5 
REMARK       I    between atoms: N_5  and  C_6 
REMARK       I    between atoms: C_6  and  N_8 
REMARK    2  A    between atoms: N_8  and  C_9 
ROOT
HETATM    1  N   UNL     1     -42.214 -51.630  12.088  1.00  0.00    -0.338 N 
HETATM    2  C   UNL     1     -42.295 -50.249  12.110  1.00  0.00     0.321 C 
HETATM    3  O   UNL     1     -42.910 -49.651  12.984  1.00  0.00    -0.247 OA
HETATM    4  N   UNL     1     -41.616 -49.657  11.067  1.00  0.00    -0.307 N 
HETATM    5  H   UNL     1     -41.984 -52.080  11.214  1.00  0.00     0.164 HD
HETATM    6  H   UNL     1     -40.850 -50.183  10.664  1.00  0.00     0.170 HD
ENDROOT
BRANCH   4   7
HETATM    7  C   UNL     1     -41.691 -48.279  10.716  1.00  0.00     0.061 A 
HETATM    8  C   UNL     1     -42.728 -47.784   9.926  1.00  0.00     0.048 A 
HETATM    9  C   UNL     1     -42.744 -46.442   9.598  1.00  0.00     0.090 A 
HETATM   10  N   UNL     1     -41.787 -45.571   9.970  1.00  0.00    -0.368 N 
HETATM   11  C   UNL     1     -40.762 -46.048  10.721  1.00  0.00     0.029 A 
ATOM     12  HN  UNL     1     -41.831 -44.588   9.697  1.00  0.00     0.165 HD
HETATM   13  C   UNL     1     -39.699 -45.042  11.052  1.00  0.00     0.070 C 
HETATM   14  C   UNL     1     -40.681 -47.388  11.125  1.00  0.00     0.083 A 
HETATM   15 CL   UNL     1     -39.380 -47.947  12.122  1.00  0.00    -0.080 Cl
ENDBRANCH   4   7
BRANCH   1  16
HETATM   16  C   UNL     1     -42.923 -52.390  13.078  1.00  0.00     0.090 A 
HETATM   17  C   UNL     1     -42.345 -53.685  13.592  1.00  0.00     0.006 A 
HETATM   18  C   UNL     1     -41.091 -54.252  13.015  1.00  0.00     0.012 C 
HETATM   19  C   UNL     1     -43.616 -53.689  12.788  1.00  0.00     0.032 A 
ENDBRANCH   1  16
TORSDOF 2
ENDMDL
MODEL 4
REMARK VINA RESULT:      -5.4      2.048      2.564
REMARK  2 active torsions:
REMARK  status: ('A' for Active; 'I' for Inactive)
REMARK    1  A    between atoms: C_4  and  N_5 
REMARK       I    between atoms: N_5  and  C_6 
REMARK       I    between atoms: C_6  and  N_8 
REMARK    2  A    between atoms: N_8  and  C_9 
ROOT
HETATM    1  N   UNL     1     -41.981 -47.164   9.933  1.00  0.00    -0.338 N 
HETATM    2  C   UNL     1     -41.441 -48.018  10.877  1.00  0.00     0.321 C 
HETATM    3  O   UNL     1     -42.145 -48.713  11.600  1.00  0.00    -0.247 OA
HETATM    4  N   UNL     1     -40.063 -47.994  10.894  1.00  0.00    -0.307 N 
HETATM    5  H   UNL     1     -41.409 -46.404   9.596  1.00  0.00     0.164 HD
HETATM    6  H   UNL     1     -39.602 -47.717  10.037  1.00  0.00     0.170 HD
ENDROOT
BRANCH   4   7
HETATM    7  C   UNL     1     -39.244 -48.607  11.885  1.00  0.00     0.061 A 
HETATM    8  C   UNL     1     -38.772 -49.911  11.735  1.00  0.00     0.048 A 
HETATM    9  C   UNL     1     -37.996 -50.466  12.734  1.00  0.00     0.090 A 
HETATM   10  N   UNL     1     -37.689 -49.831  13.881  1.00  0.00    -0.368 N 
HETATM   11  C   UNL     1     -38.163 -48.569  14.046  1.00  0.00     0.029 A 
ATOM     12  HN  UNL     1     -37.121 -50.281  14.600  1.00  0.00     0.165 HD
HETATM   13  C   UNL     1     -37.837 -47.939  15.369  1.00  0.00     0.070 C 
HETATM   14  C   UNL     1     -38.931 -47.917  13.071  1.00  0.00     0.083 A 
HETATM   15 CL   UNL     1     -39.478 -46.290  13.300  1.00  0.00    -0.080 Cl
ENDBRANCH   4   7
BRANCH   1  16
HETATM   16  C   UNL     1     -43.408 -47.034   9.838  1.00  0.00     0.090 A 
HETATM   17  C   UNL     1     -44.129 -47.514   8.603  1.00  0.00     0.006 A 
HETATM   18  C   UNL     1     -43.376 -48.029   7.422  1.00  0.00     0.012 C 
HETATM   19  C   UNL     1     -44.094 -46.048   8.939  1.00  0.00     0.032 A 
ENDBRANCH   1  16
TORSDOF 2
ENDMDL
MODEL 5
REMARK VINA RESULT:      -5.2      3.732      4.360
REMARK  2 active torsions:
REMARK  status: ('A' for Active; 'I' for Inactive)
REMARK    1  A    between atoms: C_4  and  N_5 
REMARK       I    between atoms: N_5  and  C_6 
REMARK       I    between atoms: C_6  and  N_8 
REMARK    2  A    between atoms: N_8  and  C_9 
ROOT
HETATM    1  N   UNL     1     -44.206 -52.249  12.504  1.00  0.00    -0.338 N 
HETATM    2  C   UNL     1     -43.050 -51.627  12.939  1.00  0.00     0.321 C 
HETATM    3  O   UNL     1     -42.894 -51.292  14.106  1.00  0.00    -0.247 OA
HETATM    4  N   UNL     1     -42.128 -51.447  11.930  1.00  0.00    -0.307 N 
HETATM    5  H   UNL     1     -44.422 -52.219  11.519  1.00  0.00     0.164 HD
HETATM    6  H   UNL     1     -42.180 -52.086  11.146  1.00  0.00     0.170 HD
ENDROOT
BRANCH   4   7
HETATM    7  C   UNL     1     -40.945 -50.662  12.030  1.00  0.00     0.061 A 
HETATM    8  C   UNL     1     -40.887 -49.363  11.523  1.00  0.00     0.048 A 
HETATM    9  C   UNL     1     -39.709 -48.650  11.629  1.00  0.00     0.090 A 
HETATM   10  N   UNL     1     -38.580 -49.148  12.169  1.00  0.00    -0.368 N 
HETATM   11  C   UNL     1     -38.620 -50.419  12.645  1.00  0.00     0.029 A 
ATOM     12  HN  UNL     1     -37.726 -48.591  12.218  1.00  0.00     0.165 HD
HETATM   13  C   UNL     1     -37.316 -50.936  13.178  1.00  0.00     0.070 C 
HETATM   14  C   UNL     1     -39.782 -51.204  12.607  1.00  0.00     0.083 A 
HETATM   15 CL   UNL     1     -39.804 -52.805  13.267  1.00  0.00    -0.080 Cl
ENDBRANCH   4   7
BRANCH   1  16
HETATM   16  C   UNL     1     -45.285 -52.452  13.431  1.00  0.00     0.090 A 
HETATM   17  C   UNL     1     -46.711 -52.242  12.986  1.00  0.00     0.006 A 
HETATM   18  C   UNL     1     -47.025 -51.724  11.622  1.00  0.00     0.012 C 
HETATM   19  C   UNL     1     -46.097 -51.334  14.016  1.00  0.00     0.032 A 
ENDBRANCH   1  16
TORSDOF 2
ENDMDL
MODEL 6
REMARK VINA RESULT:      -5.2      4.224      6.233
REMARK  2 active torsions:
REMARK  status: ('A' for Active; 'I' for Inactive)
REMARK    1  A    between atoms: C_4  and  N_5 
REMARK       I    between atoms: N_5  and  C_6 
REMARK       I    between atoms: C_6  and  N_8 
REMARK    2  A    between atoms: N_8  and  C_9 
ROOT
HETATM    1  N   UNL     1     -40.018 -51.452  12.160  1.00  0.00    -0.338 N 
HETATM    2  C   UNL     1     -41.128 -51.731  12.937  1.00  0.00     0.321 C 
HETATM    3  O   UNL     1     -41.093 -51.674  14.160  1.00  0.00    -0.247 OA
HETATM    4  N   UNL     1     -42.236 -52.062  12.187  1.00  0.00    -0.307 N 
HETATM    5  H   UNL     1     -39.996 -51.808  11.215  1.00  0.00     0.164 HD
HETATM    6  H   UNL     1     -42.270 -51.701  11.241  1.00  0.00     0.170 HD
ENDROOT
BRANCH   4   7
HETATM    7  C   UNL     1     -43.452 -52.590  12.707  1.00  0.00     0.061 A 
HETATM    8  C   UNL     1     -43.730 -53.956  12.663  1.00  0.00     0.048 A 
HETATM    9  C   UNL     1     -44.932 -54.416  13.164  1.00  0.00     0.090 A 
HETATM   10  N   UNL     1     -45.886 -53.612  13.672  1.00  0.00    -0.368 N 
HETATM   11  C   UNL     1     -45.633 -52.278  13.700  1.00  0.00     0.029 A 
ATOM     12  HN  UNL     1     -46.766 -53.992  14.023  1.00  0.00     0.165 HD
HETATM   13  C   UNL     1     -46.757 -51.432  14.221  1.00  0.00     0.070 C 
HETATM   14  C   UNL     1     -44.428 -51.728  13.241  1.00  0.00     0.083 A 
HETATM   15 CL   UNL     1     -44.126 -50.026  13.336  1.00  0.00    -0.080 Cl
ENDBRANCH   4   7
BRANCH   1  16
HETATM   16  C   UNL     1     -38.770 -51.150  12.802  1.00  0.00     0.090 A 
HETATM   17  C   UNL     1     -38.243 -49.736  12.802  1.00  0.00     0.006 A 
HETATM   18  C   UNL     1     -38.944 -48.653  12.053  1.00  0.00     0.012 C 
HETATM   19  C   UNL     1     -37.511 -50.819  12.055  1.00  0.00     0.032 A 
ENDBRANCH   1  16
TORSDOF 2
ENDMDL
MODEL 7
REMARK VINA RESULT:      -5.2      3.784      4.843
REMARK  2 active torsions:
REMARK  status: ('A' for Active; 'I' for Inactive)
REMARK    1  A    between atoms: C_4  and  N_5 
REMARK       I    between atoms: N_5  and  C_6 
REMARK       I    between atoms: C_6  and  N_8 
REMARK    2  A    between atoms: N_8  and  C_9 
ROOT
HETATM    1  N   UNL     1     -43.973 -52.049  12.597  1.00  0.00    -0.338 N 
HETATM    2  C   UNL     1     -42.822 -51.342  12.894  1.00  0.00     0.321 C 
HETATM    3  O   UNL     1     -42.561 -50.980  14.035  1.00  0.00    -0.247 OA
HETATM    4  N   UNL     1     -42.035 -51.112  11.787  1.00  0.00    -0.307 N 
HETATM    5  H   UNL     1     -44.299 -52.048  11.641  1.00  0.00     0.164 HD
HETATM    6  H   UNL     1     -42.128 -51.764  11.018  1.00  0.00     0.170 HD
ENDROOT
BRANCH   4   7
HETATM    7  C   UNL     1     -40.906 -50.245  11.748  1.00  0.00     0.061 A 
HETATM    8  C   UNL     1     -39.625 -50.703  12.059  1.00  0.00     0.048 A 
HETATM    9  C   UNL     1     -38.565 -49.817  12.025  1.00  0.00     0.090 A 
HETATM   10  N   UNL     1     -38.696 -48.507  11.740  1.00  0.00    -0.368 N 
HETATM   11  C   UNL     1     -39.943 -48.047  11.458  1.00  0.00     0.029 A 
ATOM     12  HN  UNL     1     -37.889 -47.883  11.736  1.00  0.00     0.165 HD
HETATM   13  C   UNL     1     -40.030 -46.570  11.208  1.00  0.00     0.070 C 
HETATM   14  C   UNL     1     -41.069 -48.882  11.439  1.00  0.00     0.083 A 
HETATM   15 CL   UNL     1     -42.635 -48.266  11.029  1.00  0.00    -0.080 Cl
ENDBRANCH   4   7
BRANCH   1  16
HETATM   16  C   UNL     1     -44.924 -52.313  13.640  1.00  0.00     0.090 A 
HETATM   17  C   UNL     1     -46.403 -52.232  13.351  1.00  0.00     0.006 A 
HETATM   18  C   UNL     1     -46.904 -51.779  12.021  1.00  0.00     0.012 C 
HETATM   19  C   UNL     1     -45.758 -51.249  14.291  1.00  0.00     0.032 A 
ENDBRANCH   1  16
TORSDOF 2
ENDMDL
MODEL 8
REMARK VINA RESULT:      -5.1      4.190      6.225
REMARK  2 active torsions:
REMARK  status: ('A' for Active; 'I' for Inactive)
REMARK    1  A    between atoms: C_4  and  N_5 
REMARK       I    between atoms: N_5  and  C_6 
REMARK       I    between atoms: C_6  and  N_8 
REMARK    2  A    between atoms: N_8  and  C_9 
ROOT
HETATM    1  N   UNL     1     -40.359 -50.578  13.157  1.00  0.00    -0.338 N 
HETATM    2  C   UNL     1     -41.432 -51.367  12.783  1.00  0.00     0.321 C 
HETATM    3  O   UNL     1     -41.458 -51.956  11.709  1.00  0.00    -0.247 OA
HETATM    4  N   UNL     1     -42.425 -51.408  13.738  1.00  0.00    -0.307 N 
HETATM    5  H   UNL     1     -40.507 -49.881  13.872  1.00  0.00     0.164 HD
HETATM    6  H   UNL     1     -42.143 -51.233  14.695  1.00  0.00     0.170 HD
ENDROOT
BRANCH   4   7
HETATM    7  C   UNL     1     -43.722 -51.965  13.550  1.00  0.00     0.061 A 
HETATM    8  C   UNL     1     -44.820 -51.163  13.237  1.00  0.00     0.048 A 
HETATM    9  C   UNL     1     -46.061 -51.750  13.084  1.00  0.00     0.090 A 
HETATM   10  N   UNL     1     -46.291 -53.066  13.254  1.00  0.00    -0.368 N 
HETATM   11  C   UNL     1     -45.232 -53.851  13.580  1.00  0.00     0.029 A 
ATOM     12  HN  UNL     1     -47.226 -53.459  13.141  1.00  0.00     0.165 HD
HETATM   13  C   UNL     1     -45.564 -55.296  13.813  1.00  0.00     0.070 C 
HETATM   14  C   UNL     1     -43.932 -53.345  13.725  1.00  0.00     0.083 A 
HETATM   15 CL   UNL     1     -42.600 -54.387  14.096  1.00  0.00    -0.080 Cl
ENDBRANCH   4   7
BRANCH   1  16
HETATM   16  C   UNL     1     -39.272 -50.390  12.238  1.00  0.00     0.090 A 
HETATM   17  C   UNL     1     -37.852 -50.348  12.746  1.00  0.00     0.006 A 
HETATM   18  C   UNL     1     -37.555 -50.395  14.208  1.00  0.00     0.012 C 
HETATM   19  C   UNL     1     -38.478 -49.120  12.141  1.00  0.00     0.032 A 
ENDBRANCH   1  16
TORSDOF 2
ENDMDL
MODEL 9
REMARK VINA RESULT:      -5.1      3.660      6.083
REMARK  2 active torsions:
REMARK  status: ('A' for Active; 'I' for Inactive)
REMARK    1  A    between atoms: C_4  and  N_5 
REMARK       I    between atoms: N_5  and  C_6 
REMARK       I    between atoms: C_6  and  N_8 
REMARK    2  A    between atoms: N_8  and  C_9 
ROOT
HETATM    1  N   UNL     1     -43.734 -50.919  12.891  1.00  0.00    -0.338 N 
HETATM    2  C   UNL     1     -43.213 -49.645  12.756  1.00  0.00     0.321 C 
HETATM    3  O   UNL     1     -43.292 -48.814  13.653  1.00  0.00    -0.247 OA
HETATM    4  N   UNL     1     -42.611 -49.440  11.533  1.00  0.00    -0.307 N 
HETATM    5  H   UNL     1     -43.928 -51.445  12.052  1.00  0.00     0.164 HD
HETATM    6  H   UNL     1     -42.258 -50.260  11.056  1.00  0.00     0.170 HD
ENDROOT
BRANCH   4   7
HETATM    7  C   UNL     1     -42.172 -48.180  11.035  1.00  0.00     0.061 A 
HETATM    8  C   UNL     1     -40.861 -47.740  11.220  1.00  0.00     0.048 A 
HETATM    9  C   UNL     1     -40.491 -46.501  10.734  1.00  0.00     0.090 A 
HETATM   10  N   UNL     1     -41.338 -45.660  10.112  1.00  0.00    -0.368 N 
HETATM   11  C   UNL     1     -42.622 -46.070   9.946  1.00  0.00     0.029 A 
ATOM     12  HN  UNL     1     -41.027 -44.747   9.777  1.00  0.00     0.165 HD
HETATM   13  C   UNL     1     -43.529 -45.064   9.300  1.00  0.00     0.070 C 
HETATM   14  C   UNL     1     -43.076 -47.324  10.381  1.00  0.00     0.083 A 
HETATM   15 CL   UNL     1     -44.711 -47.828  10.109  1.00  0.00    -0.080 Cl
ENDBRANCH   4   7
BRANCH   1  16
HETATM   16  C   UNL     1     -44.446 -51.262  14.090  1.00  0.00     0.090 A 
HETATM   17  C   UNL     1     -45.071 -52.629  14.231  1.00  0.00     0.006 A 
HETATM   18  C   UNL     1     -45.055 -53.604  13.102  1.00  0.00     0.012 C 
HETATM   19  C   UNL     1     -45.939 -51.402  14.157  1.00  0.00     0.032 A 
ENDBRANCH   1  16
TORSDOF 2
ENDMDL
