MODEL 1
REMARK VINA RESULT:      -5.9      0.000      0.000
REMARK  9 active torsions:
REMARK  status: ('A' for Active; 'I' for Inactive)
REMARK    1  A    between atoms: N_2  and  C_16 
REMARK    2  A    between atoms: C_4  and  N_9 
REMARK    3  A    between atoms: S_7  and  C_10 
REMARK    4  A    between atoms: S_7  and  C_24 
REMARK    5  A    between atoms: N_9  and  C_15 
REMARK    6  A    between atoms: N_9  and  C_26 
REMARK    7  A    between atoms: C_10  and  C_15 
REMARK    8  A    between atoms: C_16  and  C_17 
REMARK    9  A    between atoms: C_17  and  O_23 
ROOT
HETATM    1  C   UNL     1     -42.283 -50.980  13.865  1.00  0.00     0.122 A 
HETATM    2  N   UNL     1     -42.765 -49.182  12.711  1.00  0.00    -0.324 N 
HETATM    3  C   UNL     1     -42.215 -50.432  12.597  1.00  0.00     0.140 A 
HETATM    4  C   UNL     1     -41.793 -52.308  14.045  1.00  0.00     0.135 A 
HETATM    5  N   UNL     1     -42.862 -50.075  14.742  1.00  0.00    -0.346 N 
ATOM      6  HN  UNL     1     -43.047 -50.207  15.735  1.00  0.00     0.167 HD
HETATM    7  C   UNL     1     -43.120 -49.014  14.017  1.00  0.00     0.185 A 
HETATM    8  N   UNL     1     -41.298 -52.924  12.927  1.00  0.00    -0.337 N 
ATOM      9  HN  UNL     1     -40.924 -53.870  12.983  1.00  0.00     0.168 HD
HETATM   10  N   UNL     1     -41.737 -51.011  11.484  1.00  0.00    -0.336 N 
ATOM     11  HN  UNL     1     -41.702 -50.566  10.567  1.00  0.00     0.168 HD
HETATM   12  C   UNL     1     -41.312 -52.262  11.748  1.00  0.00     0.183 A 
ENDROOT
BRANCH   4  13
HETATM   13  N   UNL     1     -41.819 -52.994  15.270  1.00  0.00    -0.360 N 
BRANCH  13  14
HETATM   14  C   UNL     1     -43.057 -53.655  15.738  1.00  0.00     0.095 C 
HETATM   15  C   UNL     1     -42.970 -54.089  17.216  1.00  0.00     0.033 C 
BRANCH  14  16
HETATM   16  C   UNL     1     -43.498 -54.880  14.900  1.00  0.00     0.165 C 
BRANCH  16  17
HETATM   17  S   UNL     1     -44.840 -54.550  13.754  1.00  0.00     0.146 S 
HETATM   18  O   UNL     1     -44.317 -54.168  12.459  1.00  0.00    -0.228 OA
HETATM   19  O   UNL     1     -45.817 -55.616  13.883  1.00  0.00    -0.228 OA
BRANCH  17  20
HETATM   20  C   UNL     1     -45.625 -53.085  14.405  1.00  0.00     0.136 C 
HETATM   21  C   UNL     1     -45.769 -52.051  13.298  1.00  0.00     0.021 C 
ENDBRANCH  17  20
ENDBRANCH  16  17
ENDBRANCH  14  16
ENDBRANCH  13  14
BRANCH  13  22
HETATM   22  C   UNL     1     -40.740 -52.610  16.195  1.00  0.00     0.120 C 
HETATM   23  C   UNL     1     -39.461 -53.426  16.013  1.00  0.00     0.026 C 
ENDBRANCH  13  22
ENDBRANCH   4  13
BRANCH   2  24
HETATM   24  C   UNL     1     -43.080 -48.271  11.633  1.00  0.00     0.171 C 
BRANCH  24  25
HETATM   25  C   UNL     1     -41.873 -47.668  10.892  1.00  0.00     0.097 C 
HETATM   26  C   UNL     1     -40.709 -47.225  11.759  1.00  0.00     0.068 C 
HETATM   27  C   UNL     1     -40.063 -46.114  10.945  1.00  0.00     0.170 C 
HETATM   28  O   UNL     1     -41.065 -45.563  10.084  1.00  0.00    -0.388 OA
HETATM   29  C   UNL     1     -42.263 -46.340  10.229  1.00  0.00     0.207 C 
BRANCH  25  30
HETATM   30  O   UNL     1     -41.392 -48.556   9.874  1.00  0.00    -0.386 OA
HETATM   31  H   UNL     1     -41.824 -48.342   9.027  1.00  0.00     0.210 HD
ENDBRANCH  25  30
ENDBRANCH  24  25
ENDBRANCH   2  24
TORSDOF 9
ENDMDL
MODEL 2
REMARK VINA RESULT:      -5.7      2.941      7.191
REMARK  9 active torsions:
REMARK  status: ('A' for Active; 'I' for Inactive)
REMARK    1  A    between atoms: N_2  and  C_16 
REMARK    2  A    between atoms: C_4  and  N_9 
REMARK    3  A    between atoms: S_7  and  C_10 
REMARK    4  A    between atoms: S_7  and  C_24 
REMARK    5  A    between atoms: N_9  and  C_15 
REMARK    6  A    between atoms: N_9  and  C_26 
REMARK    7  A    between atoms: C_10  and  C_15 
REMARK    8  A    between atoms: C_16  and  C_17 
REMARK    9  A    between atoms: C_17  and  O_23 
ROOT
HETATM    1  C   UNL     1     -39.743 -48.358  12.643  1.00  0.00     0.122 A 
HETATM    2  N   UNL     1     -39.521 -50.528  12.845  1.00  0.00    -0.324 N 
HETATM    3  C   UNL     1     -39.947 -49.412  13.516  1.00  0.00     0.140 A 
HETATM    4  C   UNL     1     -40.123 -47.052  13.074  1.00  0.00     0.135 A 
HETATM    5  N   UNL     1     -39.195 -48.825  11.458  1.00  0.00    -0.346 N 
ATOM      6  HN  UNL     1     -38.946 -48.279  10.634  1.00  0.00     0.167 HD
HETATM    7  C   UNL     1     -39.066 -50.118  11.627  1.00  0.00     0.185 A 
HETATM    8  N   UNL     1     -40.666 -46.966  14.328  1.00  0.00    -0.337 N 
ATOM      9  HN  UNL     1     -40.952 -46.063  14.704  1.00  0.00     0.168 HD
HETATM   10  N   UNL     1     -40.477 -49.358  14.748  1.00  0.00    -0.336 N 
ATOM     11  HN  UNL     1     -40.605 -50.162  15.362  1.00  0.00     0.168 HD
HETATM   12  C   UNL     1     -40.817 -48.091  15.061  1.00  0.00     0.183 A 
ENDROOT
BRANCH   4  13
HETATM   13  N   UNL     1     -39.992 -45.898  12.285  1.00  0.00    -0.360 N 
BRANCH  13  14
HETATM   14  C   UNL     1     -40.316 -45.930  10.842  1.00  0.00     0.095 C 
HETATM   15  C   UNL     1     -39.496 -44.906  10.031  1.00  0.00     0.033 C 
BRANCH  14  16
HETATM   16  C   UNL     1     -41.813 -45.725  10.506  1.00  0.00     0.165 C 
BRANCH  16  17
HETATM   17  S   UNL     1     -42.623 -47.172   9.816  1.00  0.00     0.146 S 
HETATM   18  O   UNL     1     -43.292 -46.834   8.577  1.00  0.00    -0.228 OA
HETATM   19  O   UNL     1     -41.696 -48.286   9.888  1.00  0.00    -0.228 OA
BRANCH  17  20
HETATM   20  C   UNL     1     -43.926 -47.543  10.978  1.00  0.00     0.136 C 
HETATM   21  C   UNL     1     -43.376 -48.413  12.098  1.00  0.00     0.021 C 
ENDBRANCH  17  20
ENDBRANCH  16  17
ENDBRANCH  14  16
ENDBRANCH  13  14
BRANCH  13  22
HETATM   22  C   UNL     1     -39.111 -44.871  12.865  1.00  0.00     0.120 C 
HETATM   23  C   UNL     1     -39.858 -43.628  13.346  1.00  0.00     0.026 C 
ENDBRANCH  13  22
ENDBRANCH   4  13
BRANCH   2  24
HETATM   24  C   UNL     1     -39.679 -51.904  13.262  1.00  0.00     0.171 C 
BRANCH  24  25
HETATM   25  C   UNL     1     -40.856 -52.665  12.627  1.00  0.00     0.097 C 
HETATM   26  C   UNL     1     -42.153 -51.891  12.484  1.00  0.00     0.068 C 
HETATM   27  C   UNL     1     -43.220 -52.974  12.527  1.00  0.00     0.170 C 
HETATM   28  O   UNL     1     -42.678 -54.093  13.239  1.00  0.00    -0.388 OA
HETATM   29  C   UNL     1     -41.303 -53.814  13.539  1.00  0.00     0.207 C 
BRANCH  25  30
HETATM   30  O   UNL     1     -40.491 -53.215  11.353  1.00  0.00    -0.386 OA
HETATM   31  H   UNL     1     -40.072 -54.085  11.484  1.00  0.00     0.210 HD
ENDBRANCH  25  30
ENDBRANCH  24  25
ENDBRANCH   2  24
TORSDOF 9
ENDMDL
MODEL 3
REMARK VINA RESULT:      -5.6      1.482      2.415
REMARK  9 active torsions:
REMARK  status: ('A' for Active; 'I' for Inactive)
REMARK    1  A    between atoms: N_2  and  C_16 
REMARK    2  A    between atoms: C_4  and  N_9 
REMARK    3  A    between atoms: S_7  and  C_10 
REMARK    4  A    between atoms: S_7  and  C_24 
REMARK    5  A    between atoms: N_9  and  C_15 
REMARK    6  A    between atoms: N_9  and  C_26 
REMARK    7  A    between atoms: C_10  and  C_15 
REMARK    8  A    between atoms: C_16  and  C_17 
REMARK    9  A    between atoms: C_17  and  O_23 
ROOT
HETATM    1  C   UNL     1     -41.584 -50.523  13.134  1.00  0.00     0.122 A 
HETATM    2  N   UNL     1     -41.392 -48.772  11.831  1.00  0.00    -0.324 N 
HETATM    3  C   UNL     1     -41.946 -49.193  13.011  1.00  0.00     0.140 A 
HETATM    4  C   UNL     1     -42.012 -51.226  14.299  1.00  0.00     0.135 A 
HETATM    5  N   UNL     1     -40.823 -50.908  12.041  1.00  0.00    -0.346 N 
ATOM      6  HN  UNL     1     -40.413 -51.825  11.864  1.00  0.00     0.167 HD
HETATM    7  C   UNL     1     -40.745 -49.841  11.284  1.00  0.00     0.185 A 
HETATM    8  N   UNL     1     -42.748 -50.506  15.200  1.00  0.00    -0.337 N 
ATOM      9  HN  UNL     1     -43.094 -50.946  16.052  1.00  0.00     0.168 HD
HETATM   10  N   UNL     1     -42.664 -48.462  13.878  1.00  0.00    -0.336 N 
ATOM     11  HN  UNL     1     -42.914 -47.482  13.744  1.00  0.00     0.168 HD
HETATM   12  C   UNL     1     -43.010 -49.204  14.948  1.00  0.00     0.183 A 
ENDROOT
BRANCH   4  13
HETATM   13  N   UNL     1     -41.699 -52.569  14.562  1.00  0.00    -0.360 N 
BRANCH  13  14
HETATM   14  C   UNL     1     -42.756 -53.603  14.567  1.00  0.00     0.095 C 
HETATM   15  C   UNL     1     -42.258 -54.953  15.123  1.00  0.00     0.033 C 
BRANCH  14  16
HETATM   16  C   UNL     1     -43.420 -53.863  13.193  1.00  0.00     0.165 C 
BRANCH  16  17
HETATM   17  S   UNL     1     -45.215 -53.791  13.210  1.00  0.00     0.146 S 
HETATM   18  O   UNL     1     -45.704 -53.065  12.057  1.00  0.00    -0.228 OA
HETATM   19  O   UNL     1     -45.716 -55.115  13.530  1.00  0.00    -0.228 OA
BRANCH  17  20
HETATM   20  C   UNL     1     -45.601 -52.768  14.621  1.00  0.00     0.136 C 
HETATM   21  C   UNL     1     -46.345 -51.525  14.158  1.00  0.00     0.021 C 
ENDBRANCH  17  20
ENDBRANCH  16  17
ENDBRANCH  14  16
ENDBRANCH  13  14
BRANCH  13  22
HETATM   22  C   UNL     1     -40.415 -52.761  15.256  1.00  0.00     0.120 C 
HETATM   23  C   UNL     1     -39.271 -53.161  14.325  1.00  0.00     0.026 C 
ENDBRANCH  13  22
ENDBRANCH   4  13
BRANCH   2  24
HETATM   24  C   UNL     1     -41.340 -47.416  11.332  1.00  0.00     0.171 C 
BRANCH  24  25
HETATM   25  C   UNL     1     -42.608 -46.916  10.618  1.00  0.00     0.097 C 
HETATM   26  C   UNL     1     -42.999 -47.655   9.352  1.00  0.00     0.068 C 
HETATM   27  C   UNL     1     -43.750 -46.607   8.546  1.00  0.00     0.170 C 
HETATM   28  O   UNL     1     -43.293 -45.319   8.970  1.00  0.00    -0.388 OA
HETATM   29  C   UNL     1     -42.389 -45.499  10.071  1.00  0.00     0.207 C 
BRANCH  25  30
HETATM   30  O   UNL     1     -43.729 -46.885  11.513  1.00  0.00    -0.386 OA
HETATM   31  H   UNL     1     -43.554 -47.471  12.271  1.00  0.00     0.210 HD
ENDBRANCH  25  30
ENDBRANCH  24  25
ENDBRANCH   2  24
TORSDOF 9
ENDMDL
MODEL 4
REMARK VINA RESULT:      -5.6      3.175      7.057
REMARK  9 active torsions:
REMARK  status: ('A' for Active; 'I' for Inactive)
REMARK    1  A    between atoms: N_2  and  C_16 
REMARK    2  A    between atoms: C_4  and  N_9 
REMARK    3  A    between atoms: S_7  and  C_10 
REMARK    4  A    between atoms: S_7  and  C_24 
REMARK    5  A    between atoms: N_9  and  C_15 
REMARK    6  A    between atoms: N_9  and  C_26 
REMARK    7  A    between atoms: C_10  and  C_15 
REMARK    8  A    between atoms: C_16  and  C_17 
REMARK    9  A    between atoms: C_17  and  O_23 
ROOT
HETATM    1  C   UNL     1     -40.920 -49.421  12.061  1.00  0.00     0.122 A 
HETATM    2  N   UNL     1     -41.203 -51.574  12.344  1.00  0.00    -0.324 N 
HETATM    3  C   UNL     1     -40.262 -50.636  12.009  1.00  0.00     0.140 A 
HETATM    4  C   UNL     1     -40.168 -48.243  11.773  1.00  0.00     0.135 A 
HETATM    5  N   UNL     1     -42.245 -49.615  12.419  1.00  0.00    -0.346 N 
ATOM      6  HN  UNL     1     -42.965 -48.903  12.542  1.00  0.00     0.167 HD
HETATM    7  C   UNL     1     -42.374 -50.912  12.563  1.00  0.00     0.185 A 
HETATM    8  N   UNL     1     -38.846 -48.430  11.473  1.00  0.00    -0.337 N 
ATOM      9  HN  UNL     1     -38.251 -47.634  11.249  1.00  0.00     0.168 HD
HETATM   10  N   UNL     1     -38.969 -50.851  11.719  1.00  0.00    -0.336 N 
ATOM     11  HN  UNL     1     -38.525 -51.768  11.686  1.00  0.00     0.168 HD
HETATM   12  C   UNL     1     -38.340 -49.684  11.476  1.00  0.00     0.183 A 
ENDROOT
BRANCH   4  13
HETATM   13  N   UNL     1     -40.703 -46.945  11.810  1.00  0.00    -0.360 N 
BRANCH  13  14
HETATM   14  C   UNL     1     -40.915 -46.180  10.562  1.00  0.00     0.095 C 
HETATM   15  C   UNL     1     -40.036 -44.915  10.489  1.00  0.00     0.033 C 
BRANCH  14  16
HETATM   16  C   UNL     1     -42.382 -45.766  10.293  1.00  0.00     0.165 C 
BRANCH  16  17
HETATM   17  S   UNL     1     -43.451 -47.112   9.775  1.00  0.00     0.146 S 
HETATM   18  O   UNL     1     -42.771 -47.957   8.814  1.00  0.00    -0.228 OA
HETATM   19  O   UNL     1     -44.075 -47.675  10.958  1.00  0.00    -0.228 OA
BRANCH  17  20
HETATM   20  C   UNL     1     -44.760 -46.310   8.865  1.00  0.00     0.136 C 
HETATM   21  C   UNL     1     -46.078 -47.017   9.141  1.00  0.00     0.021 C 
ENDBRANCH  17  20
ENDBRANCH  16  17
ENDBRANCH  14  16
ENDBRANCH  13  14
BRANCH  13  22
HETATM   22  C   UNL     1     -40.584 -46.284  13.120  1.00  0.00     0.120 C 
HETATM   23  C   UNL     1     -41.858 -46.360  13.960  1.00  0.00     0.026 C 
ENDBRANCH  13  22
ENDBRANCH   4  13
BRANCH   2  24
HETATM   24  C   UNL     1     -40.975 -52.980  12.596  1.00  0.00     0.171 C 
BRANCH  24  25
HETATM   25  C   UNL     1     -40.152 -53.310  13.855  1.00  0.00     0.097 C 
HETATM   26  C   UNL     1     -40.480 -54.621  14.544  1.00  0.00     0.068 C 
HETATM   27  C   UNL     1     -40.100 -54.364  15.994  1.00  0.00     0.170 C 
HETATM   28  O   UNL     1     -40.173 -52.953  16.222  1.00  0.00    -0.388 OA
HETATM   29  C   UNL     1     -40.463 -52.307  14.974  1.00  0.00     0.207 C 
BRANCH  25  30
HETATM   30  O   UNL     1     -38.744 -53.258  13.582  1.00  0.00    -0.386 OA
HETATM   31  H   UNL     1     -38.603 -53.201  12.619  1.00  0.00     0.210 HD
ENDBRANCH  25  30
ENDBRANCH  24  25
ENDBRANCH   2  24
TORSDOF 9
ENDMDL
MODEL 5
REMARK VINA RESULT:      -5.5      2.595      7.085
REMARK  9 active torsions:
REMARK  status: ('A' for Active; 'I' for Inactive)
REMARK    1  A    between atoms: N_2  and  C_16 
REMARK    2  A    between atoms: C_4  and  N_9 
REMARK    3  A    between atoms: S_7  and  C_10 
REMARK    4  A    between atoms: S_7  and  C_24 
REMARK    5  A    between atoms: N_9  and  C_15 
REMARK    6  A    between atoms: N_9  and  C_26 
REMARK    7  A    between atoms: C_10  and  C_15 
REMARK    8  A    between atoms: C_16  and  C_17 
REMARK    9  A    between atoms: C_17  and  O_23 
ROOT
HETATM    1  C   UNL     1     -41.755 -49.499  12.833  1.00  0.00     0.122 A 
HETATM    2  N   UNL     1     -42.264 -51.300  13.972  1.00  0.00    -0.324 N 
HETATM    3  C   UNL     1     -41.574 -50.870  12.869  1.00  0.00     0.140 A 
HETATM    4  C   UNL     1     -41.120 -48.770  11.784  1.00  0.00     0.135 A 
HETATM    5  N   UNL     1     -42.548 -49.099  13.897  1.00  0.00    -0.346 N 
ATOM      6  HN  UNL     1     -42.841 -48.151  14.129  1.00  0.00     0.167 HD
HETATM    7  C   UNL     1     -42.841 -50.203  14.541  1.00  0.00     0.185 A 
HETATM    8  N   UNL     1     -40.378 -49.508  10.901  1.00  0.00    -0.337 N 
ATOM      9  HN  UNL     1     -39.904 -49.054  10.122  1.00  0.00     0.168 HD
HETATM   10  N   UNL     1     -40.853 -51.619  12.020  1.00  0.00    -0.336 N 
ATOM     11  HN  UNL     1     -40.750 -52.632  12.081  1.00  0.00     0.168 HD
HETATM   12  C   UNL     1     -40.282 -50.845  11.075  1.00  0.00     0.183 A 
ENDROOT
BRANCH   4  13
HETATM   13  N   UNL     1     -41.202 -47.376  11.639  1.00  0.00    -0.360 N 
BRANCH  13  14
HETATM   14  C   UNL     1     -42.461 -46.734  11.204  1.00  0.00     0.095 C 
HETATM   15  C   UNL     1     -43.256 -46.136  12.383  1.00  0.00     0.033 C 
BRANCH  14  16
HETATM   16  C   UNL     1     -43.412 -47.649  10.395  1.00  0.00     0.165 C 
BRANCH  16  17
HETATM   17  S   UNL     1     -43.992 -46.937   8.851  1.00  0.00     0.146 S 
HETATM   18  O   UNL     1     -43.538 -45.568   8.724  1.00  0.00    -0.228 OA
HETATM   19  O   UNL     1     -43.763 -47.904   7.794  1.00  0.00    -0.228 OA
BRANCH  17  20
HETATM   20  C   UNL     1     -45.763 -46.839   9.050  1.00  0.00     0.136 C 
HETATM   21  C   UNL     1     -46.390 -48.178   8.695  1.00  0.00     0.021 C 
ENDBRANCH  17  20
ENDBRANCH  16  17
ENDBRANCH  14  16
ENDBRANCH  13  14
BRANCH  13  22
HETATM   22  C   UNL     1     -39.896 -46.711  11.497  1.00  0.00     0.120 C 
HETATM   23  C   UNL     1     -39.924 -45.505  10.558  1.00  0.00     0.026 C 
ENDBRANCH  13  22
ENDBRANCH   4  13
BRANCH   2  24
HETATM   24  C   UNL     1     -42.249 -52.629  14.541  1.00  0.00     0.171 C 
BRANCH  24  25
HETATM   25  C   UNL     1     -43.188 -53.653  13.877  1.00  0.00     0.097 C 
HETATM   26  C   UNL     1     -44.635 -53.227  13.717  1.00  0.00     0.068 C 
HETATM   27  C   UNL     1     -45.396 -54.544  13.731  1.00  0.00     0.170 C 
HETATM   28  O   UNL     1     -44.603 -55.500  14.443  1.00  0.00    -0.388 OA
HETATM   29  C   UNL     1     -43.346 -54.890  14.771  1.00  0.00     0.207 C 
BRANCH  25  30
HETATM   30  O   UNL     1     -42.676 -54.078  12.606  1.00  0.00    -0.386 OA
HETATM   31  H   UNL     1     -43.417 -54.219  11.989  1.00  0.00     0.210 HD
ENDBRANCH  25  30
ENDBRANCH  24  25
ENDBRANCH   2  24
TORSDOF 9
ENDMDL
MODEL 6
REMARK VINA RESULT:      -5.5      2.548      4.167
REMARK  9 active torsions:
REMARK  status: ('A' for Active; 'I' for Inactive)
REMARK    1  A    between atoms: N_2  and  C_16 
REMARK    2  A    between atoms: C_4  and  N_9 
REMARK    3  A    between atoms: S_7  and  C_10 
REMARK    4  A    between atoms: S_7  and  C_24 
REMARK    5  A    between atoms: N_9  and  C_15 
REMARK    6  A    between atoms: N_9  and  C_26 
REMARK    7  A    between atoms: C_10  and  C_15 
REMARK    8  A    between atoms: C_16  and  C_17 
REMARK    9  A    between atoms: C_17  and  O_23 
ROOT
HETATM    1  C   UNL     1     -42.379 -49.570  12.797  1.00  0.00     0.122 A 
HETATM    2  N   UNL     1     -40.960 -47.994  12.248  1.00  0.00    -0.324 N 
HETATM    3  C   UNL     1     -41.758 -48.429  13.273  1.00  0.00     0.140 A 
HETATM    4  C   UNL     1     -43.268 -50.260  13.674  1.00  0.00     0.135 A 
HETATM    5  N   UNL     1     -41.969 -49.824  11.497  1.00  0.00    -0.346 N 
ATOM      6  HN  UNL     1     -42.254 -50.598  10.898  1.00  0.00     0.167 HD
HETATM    7  C   UNL     1     -41.136 -48.855  11.205  1.00  0.00     0.185 A 
HETATM    8  N   UNL     1     -43.421 -49.722  14.922  1.00  0.00    -0.337 N 
ATOM      9  HN  UNL     1     -44.048 -50.158  15.599  1.00  0.00     0.168 HD
HETATM   10  N   UNL     1     -41.888 -47.879  14.491  1.00  0.00    -0.336 N 
ATOM     11  HN  UNL     1     -41.413 -47.031  14.799  1.00  0.00     0.168 HD
HETATM   12  C   UNL     1     -42.733 -48.606  15.249  1.00  0.00     0.183 A 
ENDROOT
BRANCH   4  13
HETATM   13  N   UNL     1     -43.948 -51.440  13.329  1.00  0.00    -0.360 N 
BRANCH  13  14
HETATM   14  C   UNL     1     -43.203 -52.641  12.894  1.00  0.00     0.095 C 
HETATM   15  C   UNL     1     -44.131 -53.840  12.611  1.00  0.00     0.033 C 
BRANCH  14  16
HETATM   16  C   UNL     1     -42.095 -53.108  13.869  1.00  0.00     0.165 C 
BRANCH  16  17
HETATM   17  S   UNL     1     -40.426 -52.963  13.221  1.00  0.00     0.146 S 
HETATM   18  O   UNL     1     -39.664 -54.159  13.514  1.00  0.00    -0.228 OA
HETATM   19  O   UNL     1     -40.511 -52.441  11.869  1.00  0.00    -0.228 OA
BRANCH  17  20
HETATM   20  C   UNL     1     -39.684 -51.668  14.200  1.00  0.00     0.136 C 
HETATM   21  C   UNL     1     -38.774 -50.825  13.320  1.00  0.00     0.021 C 
ENDBRANCH  17  20
ENDBRANCH  16  17
ENDBRANCH  14  16
ENDBRANCH  13  14
BRANCH  13  22
HETATM   22  C   UNL     1     -45.368 -51.238  12.996  1.00  0.00     0.120 C 
HETATM   23  C   UNL     1     -46.310 -51.450  14.181  1.00  0.00     0.026 C 
ENDBRANCH  13  22
ENDBRANCH   4  13
BRANCH   2  24
HETATM   24  C   UNL     1     -39.979 -46.933  12.302  1.00  0.00     0.171 C 
BRANCH  24  25
HETATM   25  C   UNL     1     -40.210 -45.757  11.336  1.00  0.00     0.097 C 
HETATM   26  C   UNL     1     -39.734 -44.397  11.812  1.00  0.00     0.068 C 
HETATM   27  C   UNL     1     -40.654 -43.426  11.089  1.00  0.00     0.170 C 
HETATM   28  O   UNL     1     -41.868 -44.121  10.781  1.00  0.00    -0.388 OA
HETATM   29  C   UNL     1     -41.712 -45.496  11.164  1.00  0.00     0.207 C 
BRANCH  25  30
HETATM   30  O   UNL     1     -39.648 -46.029  10.045  1.00  0.00    -0.386 OA
HETATM   31  H   UNL     1     -39.070 -45.291   9.780  1.00  0.00     0.210 HD
ENDBRANCH  25  30
ENDBRANCH  24  25
ENDBRANCH   2  24
TORSDOF 9
ENDMDL
MODEL 7
REMARK VINA RESULT:      -5.5      3.980      5.869
REMARK  9 active torsions:
REMARK  status: ('A' for Active; 'I' for Inactive)
REMARK    1  A    between atoms: N_2  and  C_16 
REMARK    2  A    between atoms: C_4  and  N_9 
REMARK    3  A    between atoms: S_7  and  C_10 
REMARK    4  A    between atoms: S_7  and  C_24 
REMARK    5  A    between atoms: N_9  and  C_15 
REMARK    6  A    between atoms: N_9  and  C_26 
REMARK    7  A    between atoms: C_10  and  C_15 
REMARK    8  A    between atoms: C_16  and  C_17 
REMARK    9  A    between atoms: C_17  and  O_23 
ROOT
HETATM    1  C   UNL     1     -40.977 -47.517  11.575  1.00  0.00     0.122 A 
HETATM    2  N   UNL     1     -40.250 -45.505  11.104  1.00  0.00    -0.324 N 
HETATM    3  C   UNL     1     -41.130 -46.468  10.687  1.00  0.00     0.140 A 
HETATM    4  C   UNL     1     -41.798 -48.670  11.393  1.00  0.00     0.135 A 
HETATM    5  N   UNL     1     -40.012 -47.200  12.519  1.00  0.00    -0.346 N 
ATOM      6  HN  UNL     1     -39.696 -47.775  13.299  1.00  0.00     0.167 HD
HETATM    7  C   UNL     1     -39.596 -46.000  12.194  1.00  0.00     0.185 A 
HETATM    8  N   UNL     1     -42.674 -48.625  10.344  1.00  0.00    -0.337 N 
ATOM      9  HN  UNL     1     -43.286 -49.417  10.149  1.00  0.00     0.168 HD
HETATM   10  N   UNL     1     -41.981 -46.396   9.651  1.00  0.00    -0.336 N 
ATOM     11  HN  UNL     1     -42.057 -45.601   9.015  1.00  0.00     0.168 HD
HETATM   12  C   UNL     1     -42.720 -47.520   9.568  1.00  0.00     0.183 A 
ENDROOT
BRANCH   4  13
HETATM   13  N   UNL     1     -41.762 -49.796  12.232  1.00  0.00    -0.360 N 
BRANCH  13  14
HETATM   14  C   UNL     1     -40.756 -50.860  12.024  1.00  0.00     0.095 C 
HETATM   15  C   UNL     1     -41.398 -52.253  11.863  1.00  0.00     0.033 C 
BRANCH  14  16
HETATM   16  C   UNL     1     -39.669 -50.953  13.122  1.00  0.00     0.165 C 
BRANCH  16  17
HETATM   17  S   UNL     1     -38.036 -50.423  12.595  1.00  0.00     0.146 S 
HETATM   18  O   UNL     1     -37.126 -51.549  12.557  1.00  0.00    -0.228 OA
HETATM   19  O   UNL     1     -38.193 -49.547  11.449  1.00  0.00    -0.228 OA
BRANCH  17  20
HETATM   20  C   UNL     1     -37.458 -49.385  13.929  1.00  0.00     0.136 C 
HETATM   21  C   UNL     1     -37.228 -50.234  15.169  1.00  0.00     0.021 C 
ENDBRANCH  17  20
ENDBRANCH  16  17
ENDBRANCH  14  16
ENDBRANCH  13  14
BRANCH  13  22
HETATM   22  C   UNL     1     -43.016 -50.038  12.964  1.00  0.00     0.120 C 
HETATM   23  C   UNL     1     -43.042 -49.404  14.355  1.00  0.00     0.026 C 
ENDBRANCH  13  22
ENDBRANCH   4  13
BRANCH   2  24
HETATM   24  C   UNL     1     -40.145 -44.150  10.609  1.00  0.00     0.171 C 
BRANCH  24  25
HETATM   25  C   UNL     1     -40.939 -43.088  11.391  1.00  0.00     0.097 C 
HETATM   26  C   UNL     1     -40.283 -42.558  12.652  1.00  0.00     0.068 C 
HETATM   27  C   UNL     1     -41.462 -42.144  13.518  1.00  0.00     0.170 C 
HETATM   28  O   UNL     1     -42.597 -42.915  13.109  1.00  0.00    -0.388 OA
HETATM   29  C   UNL     1     -42.223 -43.698  11.966  1.00  0.00     0.207 C 
BRANCH  25  30
HETATM   30  O   UNL     1     -41.301 -41.986  10.547  1.00  0.00    -0.386 OA
HETATM   31  H   UNL     1     -41.672 -42.325   9.713  1.00  0.00     0.210 HD
ENDBRANCH  25  30
ENDBRANCH  24  25
ENDBRANCH   2  24
TORSDOF 9
ENDMDL
MODEL 8
REMARK VINA RESULT:      -5.4      2.464      3.966
REMARK  9 active torsions:
REMARK  status: ('A' for Active; 'I' for Inactive)
REMARK    1  A    between atoms: N_2  and  C_16 
REMARK    2  A    between atoms: C_4  and  N_9 
REMARK    3  A    between atoms: S_7  and  C_10 
REMARK    4  A    between atoms: S_7  and  C_24 
REMARK    5  A    between atoms: N_9  and  C_15 
REMARK    6  A    between atoms: N_9  and  C_26 
REMARK    7  A    between atoms: C_10  and  C_15 
REMARK    8  A    between atoms: C_16  and  C_17 
REMARK    9  A    between atoms: C_17  and  O_23 
ROOT
HETATM    1  C   UNL     1     -42.463 -51.302  12.983  1.00  0.00     0.122 A 
HETATM    2  N   UNL     1     -41.676 -49.456  12.106  1.00  0.00    -0.324 N 
HETATM    3  C   UNL     1     -42.514 -49.924  13.084  1.00  0.00     0.140 A 
HETATM    4  C   UNL     1     -43.236 -52.067  13.908  1.00  0.00     0.135 A 
HETATM    5  N   UNL     1     -41.610 -51.670  11.954  1.00  0.00    -0.346 N 
ATOM      6  HN  UNL     1     -41.373 -52.615  11.654  1.00  0.00     0.167 HD
HETATM    7  C   UNL     1     -41.175 -50.541  11.450  1.00  0.00     0.185 A 
HETATM    8  N   UNL     1     -43.960 -51.353  14.823  1.00  0.00    -0.337 N 
ATOM      9  HN  UNL     1     -44.541 -51.834  15.509  1.00  0.00     0.168 HD
HETATM   10  N   UNL     1     -43.213 -49.197  13.970  1.00  0.00    -0.336 N 
ATOM     11  HN  UNL     1     -43.225 -48.177  14.006  1.00  0.00     0.168 HD
HETATM   12  C   UNL     1     -43.897 -50.003  14.807  1.00  0.00     0.183 A 
ENDROOT
BRANCH   4  13
HETATM   13  N   UNL     1     -43.262 -53.471  13.933  1.00  0.00    -0.360 N 
BRANCH  13  14
HETATM   14  C   UNL     1     -42.156 -54.236  14.549  1.00  0.00     0.095 C 
HETATM   15  C   UNL     1     -42.661 -55.345  15.493  1.00  0.00     0.033 C 
BRANCH  14  16
HETATM   16  C   UNL     1     -41.122 -53.379  15.319  1.00  0.00     0.165 C 
BRANCH  16  17
HETATM   17  S   UNL     1     -39.482 -53.359  14.588  1.00  0.00     0.146 S 
HETATM   18  O   UNL     1     -38.558 -54.127  15.395  1.00  0.00    -0.228 OA
HETATM   19  O   UNL     1     -39.619 -53.607  13.164  1.00  0.00    -0.228 OA
BRANCH  17  20
HETATM   20  C   UNL     1     -38.953 -51.660  14.739  1.00  0.00     0.136 C 
HETATM   21  C   UNL     1     -38.138 -51.271  13.516  1.00  0.00     0.021 C 
ENDBRANCH  17  20
ENDBRANCH  16  17
ENDBRANCH  14  16
ENDBRANCH  13  14
BRANCH  13  22
HETATM   22  C   UNL     1     -44.169 -54.071  12.941  1.00  0.00     0.120 C 
HETATM   23  C   UNL     1     -45.466 -54.608  13.546  1.00  0.00     0.026 C 
ENDBRANCH  13  22
ENDBRANCH   4  13
BRANCH   2  24
HETATM   24  C   UNL     1     -41.253 -48.087  11.907  1.00  0.00     0.171 C 
BRANCH  24  25
HETATM   25  C   UNL     1     -42.259 -47.174  11.183  1.00  0.00     0.097 C 
HETATM   26  C   UNL     1     -42.894 -47.742   9.927  1.00  0.00     0.068 C 
HETATM   27  C   UNL     1     -43.220 -46.505   9.104  1.00  0.00     0.170 C 
HETATM   28  O   UNL     1     -42.328 -45.461   9.511  1.00  0.00    -0.388 OA
HETATM   29  C   UNL     1     -41.547 -45.940  10.616  1.00  0.00     0.207 C 
BRANCH  25  30
HETATM   30  O   UNL     1     -43.291 -46.730  12.075  1.00  0.00    -0.386 OA
HETATM   31  H   UNL     1     -43.015 -45.898  12.501  1.00  0.00     0.210 HD
ENDBRANCH  25  30
ENDBRANCH  24  25
ENDBRANCH   2  24
TORSDOF 9
ENDMDL
MODEL 9
REMARK VINA RESULT:      -5.3      3.043      7.960
REMARK  9 active torsions:
REMARK  status: ('A' for Active; 'I' for Inactive)
REMARK    1  A    between atoms: N_2  and  C_16 
REMARK    2  A    between atoms: C_4  and  N_9 
REMARK    3  A    between atoms: S_7  and  C_10 
REMARK    4  A    between atoms: S_7  and  C_24 
REMARK    5  A    between atoms: N_9  and  C_15 
REMARK    6  A    between atoms: N_9  and  C_26 
REMARK    7  A    between atoms: C_10  and  C_15 
REMARK    8  A    between atoms: C_16  and  C_17 
REMARK    9  A    between atoms: C_17  and  O_23 
ROOT
HETATM    1  C   UNL     1     -42.395 -49.377  12.220  1.00  0.00     0.122 A 
HETATM    2  N   UNL     1     -42.747 -51.047  13.593  1.00  0.00    -0.324 N 
HETATM    3  C   UNL     1     -41.928 -50.629  12.577  1.00  0.00     0.140 A 
HETATM    4  C   UNL     1     -41.706 -48.681  11.182  1.00  0.00     0.135 A 
HETATM    5  N   UNL     1     -43.487 -49.038  13.003  1.00  0.00    -0.346 N 
ATOM      6  HN  UNL     1     -44.030 -48.176  12.970  1.00  0.00     0.167 HD
HETATM    7  C   UNL     1     -43.672 -50.065  13.796  1.00  0.00     0.185 A 
HETATM    8  N   UNL     1     -40.631 -49.325  10.634  1.00  0.00    -0.337 N 
ATOM      9  HN  UNL     1     -40.098 -48.891   9.882  1.00  0.00     0.168 HD
HETATM   10  N   UNL     1     -40.877 -51.285  12.060  1.00  0.00    -0.336 N 
ATOM     11  HN  UNL     1     -40.570 -52.213  12.351  1.00  0.00     0.168 HD
HETATM   12  C   UNL     1     -40.285 -50.546  11.101  1.00  0.00     0.183 A 
ENDROOT
BRANCH   4  13
HETATM   13  N   UNL     1     -42.058 -47.397  10.734  1.00  0.00    -0.360 N 
BRANCH  13  14
HETATM   14  C   UNL     1     -41.416 -46.195  11.308  1.00  0.00     0.095 C 
HETATM   15  C   UNL     1     -40.388 -46.542  12.403  1.00  0.00     0.033 C 
BRANCH  14  16
HETATM   16  C   UNL     1     -42.397 -45.144  11.882  1.00  0.00     0.165 C 
BRANCH  16  17
HETATM   17  S   UNL     1     -42.306 -43.533  11.092  1.00  0.00     0.146 S 
HETATM   18  O   UNL     1     -40.950 -43.253  10.669  1.00  0.00    -0.228 OA
HETATM   19  O   UNL     1     -43.418 -43.421  10.166  1.00  0.00    -0.228 OA
BRANCH  17  20
HETATM   20  C   UNL     1     -42.646 -42.377  12.408  1.00  0.00     0.136 C 
HETATM   21  C   UNL     1     -42.744 -43.125  13.729  1.00  0.00     0.021 C 
ENDBRANCH  17  20
ENDBRANCH  16  17
ENDBRANCH  14  16
ENDBRANCH  13  14
BRANCH  13  22
HETATM   22  C   UNL     1     -43.362 -47.337  10.053  1.00  0.00     0.120 C 
HETATM   23  C   UNL     1     -43.282 -47.631   8.555  1.00  0.00     0.026 C 
ENDBRANCH  13  22
ENDBRANCH   4  13
BRANCH   2  24
HETATM   24  C   UNL     1     -42.574 -52.219  14.422  1.00  0.00     0.171 C 
BRANCH  24  25
HETATM   25  C   UNL     1     -43.189 -53.521  13.877  1.00  0.00     0.097 C 
HETATM   26  C   UNL     1     -44.673 -53.479  13.563  1.00  0.00     0.068 C 
HETATM   27  C   UNL     1     -45.115 -54.923  13.744  1.00  0.00     0.170 C 
HETATM   28  O   UNL     1     -44.199 -55.551  14.649  1.00  0.00    -0.388 OA
HETATM   29  C   UNL     1     -43.150 -54.618  14.949  1.00  0.00     0.207 C 
BRANCH  25  30
HETATM   30  O   UNL     1     -42.475 -53.990  12.725  1.00  0.00    -0.386 OA
HETATM   31  H   UNL     1     -42.319 -54.948  12.808  1.00  0.00     0.210 HD
ENDBRANCH  25  30
ENDBRANCH  24  25
ENDBRANCH   2  24
TORSDOF 9
ENDMDL
