MODEL 1
REMARK VINA RESULT:      -6.8      0.000      0.000
REMARK  4 active torsions:
REMARK  status: ('A' for Active; 'I' for Inactive)
REMARK    1  A    between atoms: O_1  and  C_2 
REMARK    2  A    between atoms: C_2  and  C_3 
REMARK    3  A    between atoms: C_3  and  N_4 
REMARK       I    between atoms: N_4  and  C_5 
REMARK       I    between atoms: C_5  and  N_7 
REMARK    4  A    between atoms: N_7  and  C_8 
ROOT
HETATM    1  N   UNL     1     -40.531 -50.421  11.056  1.00  0.00    -0.340 N 
HETATM    2  C   UNL     1     -41.376 -49.339  11.105  1.00  0.00     0.321 C 
HETATM    3  O   UNL     1     -41.839 -48.914  12.161  1.00  0.00    -0.247 OA
HETATM    4  N   UNL     1     -41.563 -48.784   9.866  1.00  0.00    -0.295 N 
HETATM    5  H   UNL     1     -40.471 -50.936  10.187  1.00  0.00     0.164 HD
HETATM    6  H   UNL     1     -40.771 -48.850   9.246  1.00  0.00     0.172 HD
ENDROOT
BRANCH   1   7
HETATM    7  C   UNL     1     -40.095 -51.065  12.280  1.00  0.00     0.162 C 
BRANCH   7   8
HETATM    8  C   UNL     1     -40.703 -52.468  12.503  1.00  0.00     0.074 C 
HETATM    9  C   UNL     1     -40.026 -53.128  13.720  1.00  0.00     0.039 C 
HETATM   10  C   UNL     1     -40.651 -54.473  14.089  1.00  0.00     0.003 C 
HETATM   11  C   UNL     1     -42.157 -54.351  14.294  1.00  0.00     0.000 C 
HETATM   12  C   UNL     1     -42.837 -53.744  13.073  1.00  0.00     0.003 C 
HETATM   13  C   UNL     1     -42.227 -52.389  12.706  1.00  0.00     0.039 C 
BRANCH   8  14
HETATM   14  O   UNL     1     -40.460 -53.275  11.341  1.00  0.00    -0.388 OA
HETATM   15  H   UNL     1     -41.260 -53.805  11.173  1.00  0.00     0.210 HD
ENDBRANCH   8  14
ENDBRANCH   7   8
ENDBRANCH   1   7
BRANCH   4  16
HETATM   16  C   UNL     1     -42.296 -47.611   9.665  1.00  0.00     0.108 A 
HETATM   17  C   UNL     1     -43.463 -47.582   8.904  1.00  0.00     0.052 A 
HETATM   18  C   UNL     1     -44.161 -46.380   8.793  1.00  0.00     0.047 A 
HETATM   19  C   UNL     1     -43.682 -45.266   9.464  1.00  0.00     0.131 A 
HETATM   20  F   UNL     1     -44.348 -44.108   9.416  1.00  0.00    -0.205 F 
HETATM   21  C   UNL     1     -42.504 -45.376  10.180  1.00  0.00     0.132 A 
HETATM   22  N   UNL     1     -41.779 -46.519  10.267  1.00  0.00    -0.349 N 
ATOM     23  HN  UNL     1     -40.888 -46.553  10.763  1.00  0.00     0.167 HD
ENDBRANCH   4  16
TORSDOF 4
ENDMDL
MODEL 2
REMARK VINA RESULT:      -6.6      1.748      2.008
REMARK  4 active torsions:
REMARK  status: ('A' for Active; 'I' for Inactive)
REMARK    1  A    between atoms: O_1  and  C_2 
REMARK    2  A    between atoms: C_2  and  C_3 
REMARK    3  A    between atoms: C_3  and  N_4 
REMARK       I    between atoms: N_4  and  C_5 
REMARK       I    between atoms: C_5  and  N_7 
REMARK    4  A    between atoms: N_7  and  C_8 
ROOT
HETATM    1  N   UNL     1     -40.638 -50.306  11.237  1.00  0.00    -0.340 N 
HETATM    2  C   UNL     1     -40.570 -48.979  11.589  1.00  0.00     0.321 C 
HETATM    3  O   UNL     1     -40.045 -48.603  12.634  1.00  0.00    -0.247 OA
HETATM    4  N   UNL     1     -41.087 -48.169  10.613  1.00  0.00    -0.295 N 
HETATM    5  H   UNL     1     -41.362 -50.587  10.587  1.00  0.00     0.164 HD
HETATM    6  H   UNL     1     -40.968 -48.506   9.671  1.00  0.00     0.172 HD
ENDROOT
BRANCH   1   7
HETATM    7  C   UNL     1     -40.020 -51.317  12.073  1.00  0.00     0.162 C 
BRANCH   7   8
HETATM    8  C   UNL     1     -40.903 -52.563  12.310  1.00  0.00     0.074 C 
HETATM    9  C   UNL     1     -40.537 -53.193  13.668  1.00  0.00     0.039 C 
HETATM   10  C   UNL     1     -41.447 -54.363  14.043  1.00  0.00     0.003 C 
HETATM   11  C   UNL     1     -42.918 -53.962  13.999  1.00  0.00     0.000 C 
HETATM   12  C   UNL     1     -43.295 -53.383  12.641  1.00  0.00     0.003 C 
HETATM   13  C   UNL     1     -42.399 -52.202  12.265  1.00  0.00     0.039 C 
BRANCH   8  14
HETATM   14  O   UNL     1     -40.655 -53.520  11.271  1.00  0.00    -0.388 OA
HETATM   15  H   UNL     1     -41.475 -53.622  10.757  1.00  0.00     0.210 HD
ENDBRANCH   8  14
ENDBRANCH   7   8
ENDBRANCH   1   7
BRANCH   4  16
HETATM   16  C   UNL     1     -41.039 -46.773  10.684  1.00  0.00     0.108 A 
HETATM   17  C   UNL     1     -42.152 -46.005  11.022  1.00  0.00     0.052 A 
HETATM   18  C   UNL     1     -42.007 -44.621  11.119  1.00  0.00     0.047 A 
HETATM   19  C   UNL     1     -40.757 -44.065  10.901  1.00  0.00     0.131 A 
HETATM   20  F   UNL     1     -40.570 -42.747  11.027  1.00  0.00    -0.205 F 
HETATM   21  C   UNL     1     -39.709 -44.898  10.549  1.00  0.00     0.132 A 
HETATM   22  N   UNL     1     -39.832 -46.240  10.401  1.00  0.00    -0.349 N 
ATOM     23  HN  UNL     1     -39.051 -46.819  10.092  1.00  0.00     0.167 HD
ENDBRANCH   4  16
TORSDOF 4
ENDMDL
MODEL 3
REMARK VINA RESULT:      -6.5      4.180      6.466
REMARK  4 active torsions:
REMARK  status: ('A' for Active; 'I' for Inactive)
REMARK    1  A    between atoms: O_1  and  C_2 
REMARK    2  A    between atoms: C_2  and  C_3 
REMARK    3  A    between atoms: C_3  and  N_4 
REMARK       I    between atoms: N_4  and  C_5 
REMARK       I    between atoms: C_5  and  N_7 
REMARK    4  A    between atoms: N_7  and  C_8 
ROOT
HETATM    1  N   UNL     1     -40.910 -51.068  11.192  1.00  0.00    -0.340 N 
HETATM    2  C   UNL     1     -41.915 -51.389  12.073  1.00  0.00     0.321 C 
HETATM    3  O   UNL     1     -42.325 -50.598  12.919  1.00  0.00    -0.247 OA
HETATM    4  N   UNL     1     -42.418 -52.641  11.834  1.00  0.00    -0.295 N 
HETATM    5  H   UNL     1     -40.379 -51.827  10.782  1.00  0.00     0.164 HD
HETATM    6  H   UNL     1     -42.407 -52.927  10.868  1.00  0.00     0.172 HD
ENDROOT
BRANCH   1   7
HETATM    7  C   UNL     1     -40.339 -49.735  11.189  1.00  0.00     0.162 C 
BRANCH   7   8
HETATM    8  C   UNL     1     -38.977 -49.633  11.913  1.00  0.00     0.074 C 
HETATM    9  C   UNL     1     -39.036 -48.493  12.948  1.00  0.00     0.039 C 
HETATM   10  C   UNL     1     -37.770 -48.398  13.798  1.00  0.00     0.003 C 
HETATM   11  C   UNL     1     -37.443 -49.731  14.464  1.00  0.00     0.000 C 
HETATM   12  C   UNL     1     -37.336 -50.852  13.438  1.00  0.00     0.003 C 
HETATM   13  C   UNL     1     -38.606 -50.964  12.592  1.00  0.00     0.039 C 
BRANCH   8  14
HETATM   14  O   UNL     1     -37.954 -49.336  10.950  1.00  0.00    -0.388 OA
HETATM   15  H   UNL     1     -38.275 -48.606  10.391  1.00  0.00     0.210 HD
ENDBRANCH   8  14
ENDBRANCH   7   8
ENDBRANCH   1   7
BRANCH   4  16
HETATM   16  C   UNL     1     -43.518 -53.159  12.525  1.00  0.00     0.108 A 
HETATM   17  C   UNL     1     -43.405 -54.229  13.411  1.00  0.00     0.052 A 
HETATM   18  C   UNL     1     -44.541 -54.653  14.098  1.00  0.00     0.047 A 
HETATM   19  C   UNL     1     -45.735 -53.980  13.892  1.00  0.00     0.131 A 
HETATM   20  F   UNL     1     -46.836 -54.332  14.565  1.00  0.00    -0.205 F 
HETATM   21  C   UNL     1     -45.765 -52.942  12.979  1.00  0.00     0.132 A 
HETATM   22  N   UNL     1     -44.686 -52.538  12.262  1.00  0.00    -0.349 N 
ATOM     23  HN  UNL     1     -44.755 -51.801  11.560  1.00  0.00     0.167 HD
ENDBRANCH   4  16
TORSDOF 4
ENDMDL
MODEL 4
REMARK VINA RESULT:      -6.4      3.851      5.376
REMARK  4 active torsions:
REMARK  status: ('A' for Active; 'I' for Inactive)
REMARK    1  A    between atoms: O_1  and  C_2 
REMARK    2  A    between atoms: C_2  and  C_3 
REMARK    3  A    between atoms: C_3  and  N_4 
REMARK       I    between atoms: N_4  and  C_5 
REMARK       I    between atoms: C_5  and  N_7 
REMARK    4  A    between atoms: N_7  and  C_8 
ROOT
HETATM    1  N   UNL     1     -43.332 -52.848  11.963  1.00  0.00    -0.340 N 
HETATM    2  C   UNL     1     -42.274 -52.147  12.489  1.00  0.00     0.321 C 
HETATM    3  O   UNL     1     -41.871 -52.327  13.636  1.00  0.00    -0.247 OA
HETATM    4  N   UNL     1     -41.714 -51.304  11.565  1.00  0.00    -0.295 N 
HETATM    5  H   UNL     1     -43.838 -52.434  11.190  1.00  0.00     0.164 HD
HETATM    6  H   UNL     1     -41.752 -51.631  10.612  1.00  0.00     0.172 HD
ENDROOT
BRANCH   1   7
HETATM    7  C   UNL     1     -43.974 -53.893  12.737  1.00  0.00     0.162 C 
BRANCH   7   8
HETATM    8  C   UNL     1     -45.215 -53.417  13.527  1.00  0.00     0.074 C 
HETATM    9  C   UNL     1     -44.854 -53.304  15.020  1.00  0.00     0.039 C 
HETATM   10  C   UNL     1     -45.989 -52.722  15.862  1.00  0.00     0.003 C 
HETATM   11  C   UNL     1     -46.466 -51.384  15.307  1.00  0.00     0.000 C 
HETATM   12  C   UNL     1     -46.871 -51.503  13.843  1.00  0.00     0.003 C 
HETATM   13  C   UNL     1     -45.734 -52.071  12.990  1.00  0.00     0.039 C 
BRANCH   8  14
HETATM   14  O   UNL     1     -46.267 -54.382  13.374  1.00  0.00    -0.388 OA
HETATM   15  H   UNL     1     -45.961 -55.059  12.746  1.00  0.00     0.210 HD
ENDBRANCH   8  14
ENDBRANCH   7   8
ENDBRANCH   1   7
BRANCH   4  16
HETATM   16  C   UNL     1     -40.559 -50.559  11.822  1.00  0.00     0.108 A 
HETATM   17  C   UNL     1     -40.532 -49.169  11.723  1.00  0.00     0.052 A 
HETATM   18  C   UNL     1     -39.353 -48.497  12.045  1.00  0.00     0.047 A 
HETATM   19  C   UNL     1     -38.261 -49.235  12.474  1.00  0.00     0.131 A 
HETATM   20  F   UNL     1     -37.128 -48.622  12.832  1.00  0.00    -0.205 F 
HETATM   21  C   UNL     1     -38.366 -50.614  12.523  1.00  0.00     0.132 A 
HETATM   22  N   UNL     1     -39.485 -51.297  12.172  1.00  0.00    -0.349 N 
ATOM     23  HN  UNL     1     -39.512 -52.316  12.172  1.00  0.00     0.167 HD
ENDBRANCH   4  16
TORSDOF 4
ENDMDL
MODEL 5
REMARK VINA RESULT:      -6.4      3.422      7.607
REMARK  4 active torsions:
REMARK  status: ('A' for Active; 'I' for Inactive)
REMARK    1  A    between atoms: O_1  and  C_2 
REMARK    2  A    between atoms: C_2  and  C_3 
REMARK    3  A    between atoms: C_3  and  N_4 
REMARK       I    between atoms: N_4  and  C_5 
REMARK       I    between atoms: C_5  and  N_7 
REMARK    4  A    between atoms: N_7  and  C_8 
ROOT
HETATM    1  N   UNL     1     -41.790 -49.319  11.281  1.00  0.00    -0.340 N 
HETATM    2  C   UNL     1     -42.364 -50.226  12.138  1.00  0.00     0.321 C 
HETATM    3  O   UNL     1     -43.180 -49.895  12.995  1.00  0.00    -0.247 OA
HETATM    4  N   UNL     1     -41.962 -51.507  11.864  1.00  0.00    -0.295 N 
HETATM    5  H   UNL     1     -40.901 -49.559  10.862  1.00  0.00     0.164 HD
HETATM    6  H   UNL     1     -41.774 -51.696  10.892  1.00  0.00     0.172 HD
ENDROOT
BRANCH   1   7
HETATM    7  C   UNL     1     -42.191 -47.925  11.315  1.00  0.00     0.162 C 
BRANCH   7   8
HETATM    8  C   UNL     1     -43.013 -47.477  10.085  1.00  0.00     0.074 C 
HETATM    9  C   UNL     1     -44.481 -47.911  10.270  1.00  0.00     0.039 C 
HETATM   10  C   UNL     1     -45.394 -47.401   9.156  1.00  0.00     0.003 C 
HETATM   11  C   UNL     1     -45.282 -45.890   8.989  1.00  0.00     0.000 C 
HETATM   12  C   UNL     1     -43.838 -45.462   8.757  1.00  0.00     0.003 C 
HETATM   13  C   UNL     1     -42.919 -45.955   9.877  1.00  0.00     0.039 C 
BRANCH   8  14
HETATM   14  O   UNL     1     -42.485 -48.111   8.911  1.00  0.00    -0.388 OA
HETATM   15  H   UNL     1     -43.229 -48.514   8.430  1.00  0.00     0.210 HD
ENDBRANCH   8  14
ENDBRANCH   7   8
ENDBRANCH   1   7
BRANCH   4  16
HETATM   16  C   UNL     1     -42.485 -52.622  12.527  1.00  0.00     0.108 A 
HETATM   17  C   UNL     1     -41.776 -53.301  13.516  1.00  0.00     0.052 A 
HETATM   18  C   UNL     1     -42.388 -54.373  14.163  1.00  0.00     0.047 A 
HETATM   19  C   UNL     1     -43.687 -54.708  13.815  1.00  0.00     0.131 A 
HETATM   20  F   UNL     1     -44.321 -55.704  14.444  1.00  0.00    -0.205 F 
HETATM   21  C   UNL     1     -44.311 -53.996  12.807  1.00  0.00     0.132 A 
HETATM   22  N   UNL     1     -43.724 -52.979  12.128  1.00  0.00    -0.349 N 
ATOM     23  HN  UNL     1     -44.194 -52.507  11.356  1.00  0.00     0.167 HD
ENDBRANCH   4  16
TORSDOF 4
ENDMDL
MODEL 6
REMARK VINA RESULT:      -6.3      3.632      7.139
REMARK  4 active torsions:
REMARK  status: ('A' for Active; 'I' for Inactive)
REMARK    1  A    between atoms: O_1  and  C_2 
REMARK    2  A    between atoms: C_2  and  C_3 
REMARK    3  A    between atoms: C_3  and  N_4 
REMARK       I    between atoms: N_4  and  C_5 
REMARK       I    between atoms: C_5  and  N_7 
REMARK    4  A    between atoms: N_7  and  C_8 
ROOT
HETATM    1  N   UNL     1     -41.073 -50.834  11.392  1.00  0.00    -0.340 N 
HETATM    2  C   UNL     1     -41.905 -51.404  12.324  1.00  0.00     0.321 C 
HETATM    3  O   UNL     1     -42.039 -50.944  13.455  1.00  0.00    -0.247 OA
HETATM    4  N   UNL     1     -42.588 -52.474  11.806  1.00  0.00    -0.295 N 
HETATM    5  H   UNL     1     -40.728 -51.420  10.642  1.00  0.00     0.164 HD
HETATM    6  H   UNL     1     -42.808 -52.405  10.825  1.00  0.00     0.172 HD
ENDROOT
BRANCH   1   7
HETATM    7  C   UNL     1     -40.364 -49.606  11.699  1.00  0.00     0.162 C 
BRANCH   7   8
HETATM    8  C   UNL     1     -41.031 -48.335  11.124  1.00  0.00     0.074 C 
HETATM    9  C   UNL     1     -42.272 -47.987  11.968  1.00  0.00     0.039 C 
HETATM   10  C   UNL     1     -42.926 -46.672  11.545  1.00  0.00     0.003 C 
HETATM   11  C   UNL     1     -41.921 -45.524  11.540  1.00  0.00     0.000 C 
HETATM   12  C   UNL     1     -40.715 -45.846  10.667  1.00  0.00     0.003 C 
HETATM   13  C   UNL     1     -40.045 -47.154  11.093  1.00  0.00     0.039 C 
BRANCH   8  14
HETATM   14  O   UNL     1     -41.444 -48.592   9.773  1.00  0.00    -0.388 OA
HETATM   15  H   UNL     1     -41.445 -47.744   9.295  1.00  0.00     0.210 HD
ENDBRANCH   8  14
ENDBRANCH   7   8
ENDBRANCH   1   7
BRANCH   4  16
HETATM   16  C   UNL     1     -43.575 -53.160  12.522  1.00  0.00     0.108 A 
HETATM   17  C   UNL     1     -43.285 -54.266  13.318  1.00  0.00     0.052 A 
HETATM   18  C   UNL     1     -44.319 -54.864  14.038  1.00  0.00     0.047 A 
HETATM   19  C   UNL     1     -45.590 -54.319  13.954  1.00  0.00     0.131 A 
HETATM   20  F   UNL     1     -46.598 -54.839  14.663  1.00  0.00    -0.205 F 
HETATM   21  C   UNL     1     -45.796 -53.233  13.123  1.00  0.00     0.132 A 
HETATM   22  N   UNL     1     -44.820 -52.661  12.375  1.00  0.00    -0.349 N 
ATOM     23  HN  UNL     1     -45.016 -51.892  11.734  1.00  0.00     0.167 HD
ENDBRANCH   4  16
TORSDOF 4
ENDMDL
MODEL 7
REMARK VINA RESULT:      -6.3      3.188      7.197
REMARK  4 active torsions:
REMARK  status: ('A' for Active; 'I' for Inactive)
REMARK    1  A    between atoms: O_1  and  C_2 
REMARK    2  A    between atoms: C_2  and  C_3 
REMARK    3  A    between atoms: C_3  and  N_4 
REMARK       I    between atoms: N_4  and  C_5 
REMARK       I    between atoms: C_5  and  N_7 
REMARK    4  A    between atoms: N_7  and  C_8 
ROOT
HETATM    1  N   UNL     1     -41.337 -48.116  10.229  1.00  0.00    -0.340 N 
HETATM    2  C   UNL     1     -41.513 -49.016  11.253  1.00  0.00     0.321 C 
HETATM    3  O   UNL     1     -42.236 -48.781  12.218  1.00  0.00    -0.247 OA
HETATM    4  N   UNL     1     -40.846 -50.190  11.017  1.00  0.00    -0.295 N 
HETATM    5  H   UNL     1     -40.495 -48.191   9.672  1.00  0.00     0.164 HD
HETATM    6  H   UNL     1     -40.776 -50.452  10.046  1.00  0.00     0.172 HD
ENDROOT
BRANCH   1   7
HETATM    7  C   UNL     1     -42.069 -46.865  10.222  1.00  0.00     0.162 C 
BRANCH   7   8
HETATM    8  C   UNL     1     -43.318 -46.873   9.310  1.00  0.00     0.074 C 
HETATM    9  C   UNL     1     -43.160 -47.975   8.244  1.00  0.00     0.039 C 
HETATM   10  C   UNL     1     -44.405 -48.138   7.372  1.00  0.00     0.003 C 
HETATM   11  C   UNL     1     -45.654 -48.361   8.217  1.00  0.00     0.000 C 
HETATM   12  C   UNL     1     -45.839 -47.247   9.240  1.00  0.00     0.003 C 
HETATM   13  C   UNL     1     -44.604 -47.088  10.128  1.00  0.00     0.039 C 
BRANCH   8  14
HETATM   14  O   UNL     1     -43.427 -45.602   8.652  1.00  0.00    -0.388 OA
HETATM   15  H   UNL     1     -44.356 -45.316   8.709  1.00  0.00     0.210 HD
ENDBRANCH   8  14
ENDBRANCH   7   8
ENDBRANCH   1   7
BRANCH   4  16
HETATM   16  C   UNL     1     -40.952 -51.302  11.857  1.00  0.00     0.108 A 
HETATM   17  C   UNL     1     -39.908 -51.713  12.684  1.00  0.00     0.052 A 
HETATM   18  C   UNL     1     -40.112 -52.803  13.530  1.00  0.00     0.047 A 
HETATM   19  C   UNL     1     -41.352 -53.422  13.532  1.00  0.00     0.131 A 
HETATM   20  F   UNL     1     -41.598 -54.443  14.360  1.00  0.00    -0.205 F 
HETATM   21  C   UNL     1     -42.327 -52.964  12.664  1.00  0.00     0.132 A 
HETATM   22  N   UNL     1     -42.142 -51.936  11.799  1.00  0.00    -0.349 N 
ATOM     23  HN  UNL     1     -42.865 -51.656  11.136  1.00  0.00     0.167 HD
ENDBRANCH   4  16
TORSDOF 4
ENDMDL
MODEL 8
REMARK VINA RESULT:      -6.2      2.734      3.345
REMARK  4 active torsions:
REMARK  status: ('A' for Active; 'I' for Inactive)
REMARK    1  A    between atoms: O_1  and  C_2 
REMARK    2  A    between atoms: C_2  and  C_3 
REMARK    3  A    between atoms: C_3  and  N_4 
REMARK       I    between atoms: N_4  and  C_5 
REMARK       I    between atoms: C_5  and  N_7 
REMARK    4  A    between atoms: N_7  and  C_8 
ROOT
HETATM    1  N   UNL     1     -42.495 -51.148  12.107  1.00  0.00    -0.340 N 
HETATM    2  C   UNL     1     -42.295 -49.790  12.154  1.00  0.00     0.321 C 
HETATM    3  O   UNL     1     -42.453 -49.137  13.182  1.00  0.00    -0.247 OA
HETATM    4  N   UNL     1     -41.846 -49.302  10.954  1.00  0.00    -0.295 N 
HETATM    5  H   UNL     1     -42.703 -51.566  11.208  1.00  0.00     0.164 HD
HETATM    6  H   UNL     1     -41.268 -49.936  10.426  1.00  0.00     0.172 HD
ENDROOT
BRANCH   1   7
HETATM    7  C   UNL     1     -42.839 -51.879  13.312  1.00  0.00     0.162 C 
BRANCH   7   8
HETATM    8  C   UNL     1     -44.321 -52.312  13.383  1.00  0.00     0.074 C 
HETATM    9  C   UNL     1     -44.437 -53.581  14.250  1.00  0.00     0.039 C 
HETATM   10  C   UNL     1     -45.885 -54.013  14.477  1.00  0.00     0.003 C 
HETATM   11  C   UNL     1     -46.724 -52.875  15.048  1.00  0.00     0.000 C 
HETATM   12  C   UNL     1     -46.650 -51.634  14.167  1.00  0.00     0.003 C 
HETATM   13  C   UNL     1     -45.204 -51.186  13.948  1.00  0.00     0.039 C 
BRANCH   8  14
HETATM   14  O   UNL     1     -44.787 -52.609  12.059  1.00  0.00    -0.388 OA
HETATM   15  H   UNL     1     -44.823 -51.773  11.561  1.00  0.00     0.210 HD
ENDBRANCH   8  14
ENDBRANCH   7   8
ENDBRANCH   1   7
BRANCH   4  16
HETATM   16  C   UNL     1     -41.468 -47.968  10.774  1.00  0.00     0.108 A 
HETATM   17  C   UNL     1     -42.334 -47.013  10.244  1.00  0.00     0.052 A 
HETATM   18  C   UNL     1     -41.895 -45.693  10.143  1.00  0.00     0.047 A 
HETATM   19  C   UNL     1     -40.624 -45.376  10.596  1.00  0.00     0.131 A 
HETATM   20  F   UNL     1     -40.186 -44.114  10.555  1.00  0.00    -0.205 F 
HETATM   21  C   UNL     1     -39.821 -46.389  11.089  1.00  0.00     0.132 A 
HETATM   22  N   UNL     1     -40.204 -47.689  11.156  1.00  0.00    -0.349 N 
ATOM     23  HN  UNL     1     -39.569 -48.419  11.478  1.00  0.00     0.167 HD
ENDBRANCH   4  16
TORSDOF 4
ENDMDL
MODEL 9
REMARK VINA RESULT:      -6.0      3.562      7.290
REMARK  4 active torsions:
REMARK  status: ('A' for Active; 'I' for Inactive)
REMARK    1  A    between atoms: O_1  and  C_2 
REMARK    2  A    between atoms: C_2  and  C_3 
REMARK    3  A    between atoms: C_3  and  N_4 
REMARK       I    between atoms: N_4  and  C_5 
REMARK       I    between atoms: C_5  and  N_7 
REMARK    4  A    between atoms: N_7  and  C_8 
ROOT
HETATM    1  N   UNL     1     -39.903 -49.441  11.127  1.00  0.00    -0.340 N 
HETATM    2  C   UNL     1     -40.454 -50.322  12.026  1.00  0.00     0.321 C 
HETATM    3  O   UNL     1     -40.545 -50.067  13.224  1.00  0.00    -0.247 OA
HETATM    4  N   UNL     1     -40.928 -51.448  11.406  1.00  0.00    -0.295 N 
HETATM    5  H   UNL     1     -39.530 -49.815  10.263  1.00  0.00     0.164 HD
HETATM    6  H   UNL     1     -41.281 -51.305  10.473  1.00  0.00     0.172 HD
ENDROOT
BRANCH   1   7
HETATM    7  C   UNL     1     -39.468 -48.127  11.562  1.00  0.00     0.162 C 
BRANCH   7   8
HETATM    8  C   UNL     1     -40.470 -46.995  11.239  1.00  0.00     0.074 C 
HETATM    9  C   UNL     1     -41.385 -46.764  12.457  1.00  0.00     0.039 C 
HETATM   10  C   UNL     1     -42.330 -45.577  12.273  1.00  0.00     0.003 C 
HETATM   11  C   UNL     1     -41.566 -44.308  11.908  1.00  0.00     0.000 C 
HETATM   12  C   UNL     1     -40.697 -44.518  10.675  1.00  0.00     0.003 C 
HETATM   13  C   UNL     1     -39.737 -45.696  10.857  1.00  0.00     0.039 C 
BRANCH   8  14
HETATM   14  O   UNL     1     -41.275 -47.386  10.118  1.00  0.00    -0.388 OA
HETATM   15  H   UNL     1     -41.875 -46.647   9.910  1.00  0.00     0.210 HD
ENDBRANCH   8  14
ENDBRANCH   7   8
ENDBRANCH   1   7
BRANCH   4  16
HETATM   16  C   UNL     1     -41.627 -52.450  12.087  1.00  0.00     0.108 A 
HETATM   17  C   UNL     1     -40.992 -53.359  12.931  1.00  0.00     0.052 A 
HETATM   18  C   UNL     1     -41.769 -54.296  13.612  1.00  0.00     0.047 A 
HETATM   19  C   UNL     1     -43.144 -54.271  13.443  1.00  0.00     0.131 A 
HETATM   20  F   UNL     1     -43.925 -55.126  14.112  1.00  0.00    -0.205 F 
HETATM   21  C   UNL     1     -43.691 -53.348  12.569  1.00  0.00     0.132 A 
HETATM   22  N   UNL     1     -42.957 -52.456  11.859  1.00  0.00    -0.349 N 
ATOM     23  HN  UNL     1     -43.387 -51.823  11.185  1.00  0.00     0.167 HD
ENDBRANCH   4  16
TORSDOF 4
ENDMDL
