MODEL 1
REMARK VINA RESULT:      -6.1      0.000      0.000
REMARK  3 active torsions:
REMARK  status: ('A' for Active; 'I' for Inactive)
REMARK    1  A    between atoms: C_5  and  C_6 
REMARK    2  A    between atoms: C_6  and  C_7 
REMARK       I    between atoms: C_7  and  N_9 
REMARK    3  A    between atoms: N_9  and  C_10 
ROOT
HETATM    1  C   UNL     1     -42.259 -52.463  12.890  1.00  0.00     0.223 C 
HETATM    2  O   UNL     1     -41.960 -52.507  14.083  1.00  0.00    -0.273 OA
HETATM    3  N   UNL     1     -43.564 -52.501  12.429  1.00  0.00    -0.356 N 
HETATM    4  H   UNL     1     -43.693 -52.751  11.448  1.00  0.00     0.162 HD
ENDROOT
BRANCH   1   5
HETATM    5  C   UNL     1     -41.208 -52.263  11.819  1.00  0.00     0.160 C 
BRANCH   5   6
HETATM    6  C   UNL     1     -40.720 -50.857  11.751  1.00  0.00     0.025 A 
HETATM    7  N   UNL     1     -41.530 -49.893  11.159  1.00  0.00    -0.357 N 
HETATM    8  C   UNL     1     -40.940 -48.717  11.222  1.00  0.00     0.047 A 
ATOM      9  HN  UNL     1     -42.442 -50.069  10.740  1.00  0.00     0.166 HD
HETATM   10  C   UNL     1     -41.518 -47.456  10.684  1.00  0.00     0.076 C 
HETATM   11  S   UNL     1     -39.406 -48.694  11.994  1.00  0.00    -0.087 SA
HETATM   12  C   UNL     1     -39.530 -50.378  12.262  1.00  0.00     0.077 A 
ENDBRANCH   5   6
ENDBRANCH   1   5
BRANCH   3  13
HETATM   13  C   UNL     1     -44.683 -52.638  13.359  1.00  0.00     0.084 C 
HETATM   14  C   UNL     1     -45.150 -54.097  13.419  1.00  0.00     0.025 C 
HETATM   15  C   UNL     1     -46.117 -54.453  14.553  1.00  0.00     0.002 C 
HETATM   16  C   UNL     1     -45.753 -53.864  15.917  1.00  0.00     0.000 C 
HETATM   17  C   UNL     1     -46.562 -52.628  16.325  1.00  0.00     0.000 C 
HETATM   18  C   UNL     1     -46.378 -51.343  15.509  1.00  0.00     0.000 C 
HETATM   19  C   UNL     1     -46.878 -51.418  14.063  1.00  0.00     0.002 C 
HETATM   20  C   UNL     1     -45.794 -51.645  13.000  1.00  0.00     0.025 C 
ENDBRANCH   3  13
TORSDOF 3
ENDMDL
MODEL 2
REMARK VINA RESULT:      -6.0      1.094      1.306
REMARK  3 active torsions:
REMARK  status: ('A' for Active; 'I' for Inactive)
REMARK    1  A    between atoms: C_5  and  C_6 
REMARK    2  A    between atoms: C_6  and  C_7 
REMARK       I    between atoms: C_7  and  N_9 
REMARK    3  A    between atoms: N_9  and  C_10 
ROOT
HETATM    1  C   UNL     1     -42.304 -51.084  12.845  1.00  0.00     0.223 C 
HETATM    2  O   UNL     1     -42.449 -50.450  13.890  1.00  0.00    -0.273 OA
HETATM    3  N   UNL     1     -43.197 -52.048  12.408  1.00  0.00    -0.356 N 
HETATM    4  H   UNL     1     -42.851 -52.705  11.708  1.00  0.00     0.162 HD
ENDROOT
BRANCH   1   5
HETATM    5  C   UNL     1     -41.168 -50.785  11.891  1.00  0.00     0.160 C 
BRANCH   5   6
HETATM    6  C   UNL     1     -41.126 -49.353  11.481  1.00  0.00     0.025 A 
HETATM    7  N   UNL     1     -42.239 -48.800  10.856  1.00  0.00    -0.357 N 
HETATM    8  C   UNL     1     -42.019 -47.527  10.601  1.00  0.00     0.047 A 
ATOM      9  HN  UNL     1     -43.096 -49.304  10.630  1.00  0.00     0.166 HD
HETATM   10  C   UNL     1     -42.994 -46.622   9.934  1.00  0.00     0.076 C 
HETATM   11  S   UNL     1     -40.492 -46.921  11.097  1.00  0.00    -0.087 SA
HETATM   12  C   UNL     1     -40.085 -48.471  11.695  1.00  0.00     0.077 A 
ENDBRANCH   5   6
ENDBRANCH   1   5
BRANCH   3  13
HETATM   13  C   UNL     1     -44.370 -52.400  13.206  1.00  0.00     0.084 C 
HETATM   14  C   UNL     1     -44.650 -53.903  13.105  1.00  0.00     0.025 C 
HETATM   15  C   UNL     1     -45.664 -54.472  14.104  1.00  0.00     0.002 C 
HETATM   16  C   UNL     1     -45.503 -53.968  15.540  1.00  0.00     0.000 C 
HETATM   17  C   UNL     1     -46.497 -52.878  15.958  1.00  0.00     0.000 C 
HETATM   18  C   UNL     1     -46.404 -51.513  15.267  1.00  0.00     0.000 C 
HETATM   19  C   UNL     1     -46.756 -51.517  13.776  1.00  0.00     0.002 C 
HETATM   20  C   UNL     1     -45.561 -51.517  12.815  1.00  0.00     0.025 C 
ENDBRANCH   3  13
TORSDOF 3
ENDMDL
MODEL 3
REMARK VINA RESULT:      -5.9      1.246      1.903
REMARK  3 active torsions:
REMARK  status: ('A' for Active; 'I' for Inactive)
REMARK    1  A    between atoms: C_5  and  C_6 
REMARK    2  A    between atoms: C_6  and  C_7 
REMARK       I    between atoms: C_7  and  N_9 
REMARK    3  A    between atoms: N_9  and  C_10 
ROOT
HETATM    1  C   UNL     1     -42.217 -52.467  12.796  1.00  0.00     0.223 C 
HETATM    2  O   UNL     1     -42.060 -52.212  13.990  1.00  0.00    -0.273 OA
HETATM    3  N   UNL     1     -43.444 -52.784  12.238  1.00  0.00    -0.356 N 
HETATM    4  H   UNL     1     -43.424 -53.254  11.333  1.00  0.00     0.162 HD
ENDROOT
BRANCH   1   5
HETATM    5  C   UNL     1     -41.075 -52.358  11.808  1.00  0.00     0.160 C 
BRANCH   5   6
HETATM    6  C   UNL     1     -40.155 -51.229  12.120  1.00  0.00     0.025 A 
HETATM    7  N   UNL     1     -39.244 -51.372  13.163  1.00  0.00    -0.357 N 
HETATM    8  C   UNL     1     -38.507 -50.286  13.261  1.00  0.00     0.047 A 
ATOM      9  HN  UNL     1     -39.161 -52.194  13.760  1.00  0.00     0.166 HD
HETATM   10  C   UNL     1     -37.431 -50.088  14.271  1.00  0.00     0.076 C 
HETATM   11  S   UNL     1     -38.845 -49.049  12.120  1.00  0.00    -0.087 SA
HETATM   12  C   UNL     1     -40.073 -50.028  11.442  1.00  0.00     0.077 A 
ENDBRANCH   5   6
ENDBRANCH   1   5
BRANCH   3  13
HETATM   13  C   UNL     1     -44.643 -52.872  13.069  1.00  0.00     0.084 C 
HETATM   14  C   UNL     1     -45.014 -54.340  13.313  1.00  0.00     0.025 C 
HETATM   15  C   UNL     1     -46.069 -54.601  14.393  1.00  0.00     0.002 C 
HETATM   16  C   UNL     1     -45.892 -53.785  15.676  1.00  0.00     0.000 C 
HETATM   17  C   UNL     1     -46.822 -52.573  15.805  1.00  0.00     0.000 C 
HETATM   18  C   UNL     1     -46.640 -51.415  14.819  1.00  0.00     0.000 C 
HETATM   19  C   UNL     1     -46.977 -51.747  13.361  1.00  0.00     0.002 C 
HETATM   20  C   UNL     1     -45.774 -52.040  12.455  1.00  0.00     0.025 C 
ENDBRANCH   3  13
TORSDOF 3
ENDMDL
MODEL 4
REMARK VINA RESULT:      -5.4      3.722      4.516
REMARK  3 active torsions:
REMARK  status: ('A' for Active; 'I' for Inactive)
REMARK    1  A    between atoms: C_5  and  C_6 
REMARK    2  A    between atoms: C_6  and  C_7 
REMARK       I    between atoms: C_7  and  N_9 
REMARK    3  A    between atoms: N_9  and  C_10 
ROOT
HETATM    1  C   UNL     1     -41.779 -53.941  14.520  1.00  0.00     0.223 C 
HETATM    2  O   UNL     1     -42.042 -53.425  15.606  1.00  0.00    -0.273 OA
HETATM    3  N   UNL     1     -42.711 -54.106  13.509  1.00  0.00    -0.356 N 
HETATM    4  H   UNL     1     -42.481 -54.788  12.785  1.00  0.00     0.162 HD
ENDROOT
BRANCH   1   5
HETATM    5  C   UNL     1     -40.368 -54.356  14.163  1.00  0.00     0.160 C 
BRANCH   5   6
HETATM    6  C   UNL     1     -39.459 -54.366  15.342  1.00  0.00     0.025 A 
HETATM    7  N   UNL     1     -39.157 -53.161  15.968  1.00  0.00    -0.357 N 
HETATM    8  C   UNL     1     -38.368 -53.380  16.999  1.00  0.00     0.047 A 
ATOM      9  HN  UNL     1     -39.496 -52.245  15.673  1.00  0.00     0.166 HD
HETATM   10  C   UNL     1     -37.842 -52.316  17.898  1.00  0.00     0.076 C 
HETATM   11  S   UNL     1     -37.955 -55.021  17.285  1.00  0.00    -0.087 SA
HETATM   12  C   UNL     1     -38.892 -55.481  15.930  1.00  0.00     0.077 A 
ENDBRANCH   5   6
ENDBRANCH   1   5
BRANCH   3  13
HETATM   13  C   UNL     1     -44.102 -53.698  13.698  1.00  0.00     0.084 C 
HETATM   14  C   UNL     1     -44.939 -54.883  14.193  1.00  0.00     0.025 C 
HETATM   15  C   UNL     1     -46.343 -54.551  14.710  1.00  0.00     0.002 C 
HETATM   16  C   UNL     1     -46.421 -53.318  15.613  1.00  0.00     0.000 C 
HETATM   17  C   UNL     1     -46.944 -52.048  14.932  1.00  0.00     0.000 C 
HETATM   18  C   UNL     1     -46.091 -51.419  13.826  1.00  0.00     0.000 C 
HETATM   19  C   UNL     1     -45.953 -52.263  12.554  1.00  0.00     0.002 C 
HETATM   20  C   UNL     1     -44.641 -53.046  12.420  1.00  0.00     0.025 C 
ENDBRANCH   3  13
TORSDOF 3
ENDMDL
MODEL 5
REMARK VINA RESULT:      -5.3      2.599      6.896
REMARK  3 active torsions:
REMARK  status: ('A' for Active; 'I' for Inactive)
REMARK    1  A    between atoms: C_5  and  C_6 
REMARK    2  A    between atoms: C_6  and  C_7 
REMARK       I    between atoms: C_7  and  N_9 
REMARK    3  A    between atoms: N_9  and  C_10 
ROOT
HETATM    1  C   UNL     1     -41.978 -51.623  12.574  1.00  0.00     0.223 C 
HETATM    2  O   UNL     1     -42.079 -51.167  13.713  1.00  0.00    -0.273 OA
HETATM    3  N   UNL     1     -41.087 -51.134  11.634  1.00  0.00    -0.356 N 
HETATM    4  H   UNL     1     -41.278 -51.371  10.660  1.00  0.00     0.162 HD
ENDROOT
BRANCH   1   5
HETATM    5  C   UNL     1     -42.768 -52.837  12.136  1.00  0.00     0.160 C 
BRANCH   5   6
HETATM    6  C   UNL     1     -43.983 -53.061  12.969  1.00  0.00     0.025 A 
HETATM    7  N   UNL     1     -44.748 -51.963  13.350  1.00  0.00    -0.357 N 
HETATM    8  C   UNL     1     -45.787 -52.367  14.051  1.00  0.00     0.047 A 
ATOM      9  HN  UNL     1     -44.537 -50.992  13.120  1.00  0.00     0.166 HD
HETATM   10  C   UNL     1     -46.818 -51.460  14.624  1.00  0.00     0.076 C 
HETATM   11  S   UNL     1     -45.915 -54.063  14.284  1.00  0.00    -0.087 SA
HETATM   12  C   UNL     1     -44.475 -54.282  13.388  1.00  0.00     0.077 A 
ENDBRANCH   5   6
ENDBRANCH   1   5
BRANCH   3  13
HETATM   13  C   UNL     1     -40.223 -49.996  11.941  1.00  0.00     0.084 C 
HETATM   14  C   UNL     1     -40.705 -48.746  11.197  1.00  0.00     0.025 C 
HETATM   15  C   UNL     1     -40.083 -47.415  11.634  1.00  0.00     0.002 C 
HETATM   16  C   UNL     1     -39.966 -47.227  13.148  1.00  0.00     0.000 C 
HETATM   17  C   UNL     1     -38.565 -47.466  13.724  1.00  0.00     0.000 C 
HETATM   18  C   UNL     1     -37.994 -48.886  13.665  1.00  0.00     0.000 C 
HETATM   19  C   UNL     1     -37.702 -49.409  12.255  1.00  0.00     0.002 C 
HETATM   20  C   UNL     1     -38.758 -50.356  11.669  1.00  0.00     0.025 C 
ENDBRANCH   3  13
TORSDOF 3
ENDMDL
MODEL 6
REMARK VINA RESULT:      -5.3      2.668      6.500
REMARK  3 active torsions:
REMARK  status: ('A' for Active; 'I' for Inactive)
REMARK    1  A    between atoms: C_5  and  C_6 
REMARK    2  A    between atoms: C_6  and  C_7 
REMARK       I    between atoms: C_7  and  N_9 
REMARK    3  A    between atoms: N_9  and  C_10 
ROOT
HETATM    1  C   UNL     1     -41.727 -53.010  13.058  1.00  0.00     0.223 C 
HETATM    2  O   UNL     1     -41.156 -53.255  11.995  1.00  0.00    -0.273 OA
HETATM    3  N   UNL     1     -41.376 -51.957  13.886  1.00  0.00    -0.356 N 
HETATM    4  H   UNL     1     -41.700 -52.011  14.852  1.00  0.00     0.162 HD
ENDROOT
BRANCH   1   5
HETATM    5  C   UNL     1     -42.940 -53.797  13.503  1.00  0.00     0.160 C 
BRANCH   5   6
HETATM    6  C   UNL     1     -44.183 -52.977  13.511  1.00  0.00     0.025 A 
HETATM    7  N   UNL     1     -44.909 -52.845  12.331  1.00  0.00    -0.357 N 
HETATM    8  C   UNL     1     -45.981 -52.112  12.547  1.00  0.00     0.047 A 
ATOM      9  HN  UNL     1     -44.649 -53.254  11.434  1.00  0.00     0.166 HD
HETATM   10  C   UNL     1     -46.986 -51.763  11.506  1.00  0.00     0.076 C 
HETATM   11  S   UNL     1     -46.190 -51.555  14.158  1.00  0.00    -0.087 SA
HETATM   12  C   UNL     1     -44.739 -52.343  14.605  1.00  0.00     0.077 A 
ENDBRANCH   5   6
ENDBRANCH   1   5
BRANCH   3  13
HETATM   13  C   UNL     1     -40.256 -51.081  13.550  1.00  0.00     0.084 C 
HETATM   14  C   UNL     1     -38.998 -51.511  14.314  1.00  0.00     0.025 C 
HETATM   15  C   UNL     1     -37.679 -50.878  13.858  1.00  0.00     0.002 C 
HETATM   16  C   UNL     1     -37.489 -50.810  12.341  1.00  0.00     0.000 C 
HETATM   17  C   UNL     1     -37.755 -49.436  11.716  1.00  0.00     0.000 C 
HETATM   18  C   UNL     1     -39.187 -48.892  11.751  1.00  0.00     0.000 C 
HETATM   19  C   UNL     1     -39.719 -48.561  13.149  1.00  0.00     0.002 C 
HETATM   20  C   UNL     1     -40.645 -49.615  13.770  1.00  0.00     0.025 C 
ENDBRANCH   3  13
TORSDOF 3
ENDMDL
MODEL 7
REMARK VINA RESULT:      -5.2     16.107     18.100
REMARK  3 active torsions:
REMARK  status: ('A' for Active; 'I' for Inactive)
REMARK    1  A    between atoms: C_5  and  C_6 
REMARK    2  A    between atoms: C_6  and  C_7 
REMARK       I    between atoms: C_7  and  N_9 
REMARK    3  A    between atoms: N_9  and  C_10 
ROOT
HETATM    1  C   UNL     1     -28.398 -59.305  19.088  1.00  0.00     0.223 C 
HETATM    2  O   UNL     1     -29.560 -59.709  19.042  1.00  0.00    -0.273 OA
HETATM    3  N   UNL     1     -27.336 -59.972  18.503  1.00  0.00    -0.356 N 
HETATM    4  H   UNL     1     -26.404 -59.724  18.837  1.00  0.00     0.162 HD
ENDROOT
BRANCH   1   5
HETATM    5  C   UNL     1     -28.049 -57.973  19.718  1.00  0.00     0.160 C 
BRANCH   5   6
HETATM    6  C   UNL     1     -29.187 -57.013  19.695  1.00  0.00     0.025 A 
HETATM    7  N   UNL     1     -29.931 -56.880  18.526  1.00  0.00    -0.357 N 
HETATM    8  C   UNL     1     -30.902 -56.012  18.713  1.00  0.00     0.047 A 
ATOM      9  HN  UNL     1     -29.750 -57.380  17.656  1.00  0.00     0.166 HD
HETATM   10  C   UNL     1     -31.893 -55.621  17.674  1.00  0.00     0.076 C 
HETATM   11  S   UNL     1     -30.992 -55.320  20.282  1.00  0.00    -0.087 SA
HETATM   12  C   UNL     1     -29.629 -56.240  20.752  1.00  0.00     0.077 A 
ENDBRANCH   5   6
ENDBRANCH   1   5
BRANCH   3  13
HETATM   13  C   UNL     1     -27.538 -61.244  17.813  1.00  0.00     0.084 C 
HETATM   14  C   UNL     1     -27.192 -62.413  18.743  1.00  0.00     0.025 C 
HETATM   15  C   UNL     1     -27.623 -63.806  18.269  1.00  0.00     0.002 C 
HETATM   16  C   UNL     1     -29.035 -63.877  17.684  1.00  0.00     0.000 C 
HETATM   17  C   UNL     1     -29.100 -63.914  16.153  1.00  0.00     0.000 C 
HETATM   18  C   UNL     1     -28.639 -62.674  15.381  1.00  0.00     0.000 C 
HETATM   19  C   UNL     1     -27.143 -62.362  15.491  1.00  0.00     0.002 C 
HETATM   20  C   UNL     1     -26.770 -61.256  16.487  1.00  0.00     0.025 C 
ENDBRANCH   3  13
TORSDOF 3
ENDMDL
MODEL 8
REMARK VINA RESULT:      -5.1      5.477      6.976
REMARK  3 active torsions:
REMARK  status: ('A' for Active; 'I' for Inactive)
REMARK    1  A    between atoms: C_5  and  C_6 
REMARK    2  A    between atoms: C_6  and  C_7 
REMARK       I    between atoms: C_7  and  N_9 
REMARK    3  A    between atoms: N_9  and  C_10 
ROOT
HETATM    1  C   UNL     1     -41.800 -47.565  12.447  1.00  0.00     0.223 C 
HETATM    2  O   UNL     1     -42.240 -48.633  12.873  1.00  0.00    -0.273 OA
HETATM    3  N   UNL     1     -40.451 -47.256  12.413  1.00  0.00    -0.356 N 
HETATM    4  H   UNL     1     -40.213 -46.268  12.323  1.00  0.00     0.162 HD
ENDROOT
BRANCH   1   5
HETATM    5  C   UNL     1     -42.710 -46.527  11.826  1.00  0.00     0.160 C 
BRANCH   5   6
HETATM    6  C   UNL     1     -43.307 -46.985  10.541  1.00  0.00     0.025 A 
HETATM    7  N   UNL     1     -44.683 -47.179  10.470  1.00  0.00    -0.357 N 
HETATM    8  C   UNL     1     -45.018 -47.552   9.253  1.00  0.00     0.047 A 
ATOM      9  HN  UNL     1     -45.334 -47.051  11.244  1.00  0.00     0.166 HD
HETATM   10  C   UNL     1     -46.409 -47.851   8.817  1.00  0.00     0.076 C 
HETATM   11  S   UNL     1     -43.725 -47.680   8.131  1.00  0.00    -0.087 SA
HETATM   12  C   UNL     1     -42.630 -47.208   9.357  1.00  0.00     0.077 A 
ENDBRANCH   5   6
ENDBRANCH   1   5
BRANCH   3  13
HETATM   13  C   UNL     1     -39.454 -48.191  12.931  1.00  0.00     0.084 C 
HETATM   14  C   UNL     1     -38.490 -47.470  13.879  1.00  0.00     0.025 C 
HETATM   15  C   UNL     1     -37.572 -48.363  14.721  1.00  0.00     0.002 C 
HETATM   16  C   UNL     1     -38.257 -49.581  15.344  1.00  0.00     0.000 C 
HETATM   17  C   UNL     1     -38.004 -50.908  14.618  1.00  0.00     0.000 C 
HETATM   18  C   UNL     1     -38.571 -51.076  13.204  1.00  0.00     0.000 C 
HETATM   19  C   UNL     1     -37.944 -50.166  12.143  1.00  0.00     0.002 C 
HETATM   20  C   UNL     1     -38.761 -48.920  11.774  1.00  0.00     0.025 C 
ENDBRANCH   3  13
TORSDOF 3
ENDMDL
MODEL 9
REMARK VINA RESULT:      -5.0      5.074      8.535
REMARK  3 active torsions:
REMARK  status: ('A' for Active; 'I' for Inactive)
REMARK    1  A    between atoms: C_5  and  C_6 
REMARK    2  A    between atoms: C_6  and  C_7 
REMARK       I    between atoms: C_7  and  N_9 
REMARK    3  A    between atoms: N_9  and  C_10 
ROOT
HETATM    1  C   UNL     1     -45.649 -53.418  18.036  1.00  0.00     0.223 C 
HETATM    2  O   UNL     1     -44.553 -53.933  17.813  1.00  0.00    -0.273 OA
HETATM    3  N   UNL     1     -46.479 -52.932  17.039  1.00  0.00    -0.356 N 
HETATM    4  H   UNL     1     -47.205 -52.277  17.332  1.00  0.00     0.162 HD
ENDROOT
BRANCH   1   5
HETATM    5  C   UNL     1     -46.226 -53.361  19.434  1.00  0.00     0.160 C 
BRANCH   5   6
HETATM    6  C   UNL     1     -47.008 -54.580  19.780  1.00  0.00     0.025 A 
HETATM    7  N   UNL     1     -46.453 -55.830  19.523  1.00  0.00    -0.357 N 
HETATM    8  C   UNL     1     -47.279 -56.775  19.922  1.00  0.00     0.047 A 
ATOM      9  HN  UNL     1     -45.544 -55.990  19.090  1.00  0.00     0.166 HD
HETATM   10  C   UNL     1     -47.012 -58.233  19.800  1.00  0.00     0.076 C 
HETATM   11  S   UNL     1     -48.745 -56.231  20.631  1.00  0.00    -0.087 SA
HETATM   12  C   UNL     1     -48.250 -54.613  20.385  1.00  0.00     0.077 A 
ENDBRANCH   5   6
ENDBRANCH   1   5
BRANCH   3  13
HETATM   13  C   UNL     1     -46.069 -52.972  15.637  1.00  0.00     0.084 C 
HETATM   14  C   UNL     1     -46.751 -51.846  14.851  1.00  0.00     0.025 C 
HETATM   15  C   UNL     1     -46.208 -51.578  13.444  1.00  0.00     0.002 C 
HETATM   16  C   UNL     1     -44.682 -51.575  13.332  1.00  0.00     0.000 C 
HETATM   17  C   UNL     1     -44.072 -52.856  12.752  1.00  0.00     0.000 C 
HETATM   18  C   UNL     1     -44.199 -54.148  13.565  1.00  0.00     0.000 C 
HETATM   19  C   UNL     1     -45.628 -54.680  13.717  1.00  0.00     0.002 C 
HETATM   20  C   UNL     1     -46.310 -54.370  15.056  1.00  0.00     0.025 C 
ENDBRANCH   3  13
TORSDOF 3
ENDMDL
