MODEL 1
REMARK VINA RESULT:      -7.2      0.000      0.000
REMARK  7 active torsions:
REMARK  status: ('A' for Active; 'I' for Inactive)
REMARK    1  A    between atoms: C_2  and  N_7 
REMARK    2  A    between atoms: N_3  and  C_16 
REMARK    3  A    between atoms: C_11  and  C_14 
REMARK    4  A    between atoms: C_14  and  C_19 
REMARK    5  A    between atoms: C_15  and  C_16 
REMARK    6  A    between atoms: C_15  and  C_27 
REMARK    7  A    between atoms: C_27  and  O_28 
ROOT
HETATM    1  C   UNL     1     -42.432 -49.282  11.936  1.00  0.00     0.122 A 
HETATM    2  C   UNL     1     -41.821 -48.469  10.944  1.00  0.00     0.136 A 
HETATM    3  N   UNL     1     -42.533 -50.984  13.310  1.00  0.00    -0.326 N 
HETATM    4  C   UNL     1     -41.730 -50.403  12.367  1.00  0.00     0.140 A 
HETATM    5  N   UNL     1     -43.646 -49.206  12.596  1.00  0.00    -0.346 N 
ATOM      6  HN  UNL     1     -44.373 -48.502  12.470  1.00  0.00     0.167 HD
HETATM    7  C   UNL     1     -43.667 -50.230  13.418  1.00  0.00     0.185 A 
HETATM    8  N   UNL     1     -40.601 -48.894  10.492  1.00  0.00    -0.337 N 
ATOM      9  HN  UNL     1     -40.112 -48.365   9.770  1.00  0.00     0.168 HD
HETATM   10  N   UNL     1     -40.530 -50.836  11.947  1.00  0.00    -0.336 N 
ATOM     11  HN  UNL     1     -40.057 -51.669  12.296  1.00  0.00     0.168 HD
HETATM   12  C   UNL     1     -40.042 -50.014  11.000  1.00  0.00     0.183 A 
ENDROOT
BRANCH   2  13
HETATM   13  N   UNL     1     -42.387 -47.328  10.376  1.00  0.00    -0.356 N 
HETATM   14  C   UNL     1     -43.425 -47.448   9.318  1.00  0.00     0.115 C 
HETATM   15  C   UNL     1     -43.427 -46.116   8.532  1.00  0.00     0.193 C 
HETATM   16  O   UNL     1     -43.739 -45.016   9.399  1.00  0.00    -0.388 OA
HETATM   17  C   UNL     1     -42.706 -44.872  10.392  1.00  0.00     0.187 C 
HETATM   18  C   UNL     1     -42.515 -46.142  11.242  1.00  0.00     0.151 C 
BRANCH  14  19
HETATM   19  C   UNL     1     -44.796 -47.758   9.946  1.00  0.00     0.098 C 
BRANCH  19  20
HETATM   20  C   UNL     1     -45.922 -47.762   8.937  1.00  0.00     0.355 C 
HETATM   21  F   UNL     1     -46.666 -48.886   9.072  1.00  0.00    -0.214 F 
HETATM   22  F   UNL     1     -46.751 -46.716   9.193  1.00  0.00    -0.214 F 
ENDBRANCH  19  20
ENDBRANCH  14  19
ENDBRANCH   2  13
BRANCH   3  23
HETATM   23  C   UNL     1     -42.214 -52.143  14.128  1.00  0.00     0.147 C 
BRANCH  23  24
HETATM   24  C   UNL     1     -42.469 -53.481  13.445  1.00  0.00     0.040 C 
HETATM   25  C   UNL     1     -43.571 -53.506  12.366  1.00  0.00     0.183 C 
HETATM   26  O   UNL     1     -44.302 -54.527  13.079  1.00  0.00    -0.389 OA
HETATM   27  C   UNL     1     -43.457 -54.356  14.242  1.00  0.00     0.183 C 
BRANCH  24  28
HETATM   28  C   UNL     1     -41.220 -54.231  12.998  1.00  0.00     0.179 C 
BRANCH  28  29
HETATM   29  O   UNL     1     -40.736 -53.676  11.780  1.00  0.00    -0.400 OA
HETATM   30  H   UNL     1     -40.219 -54.383  11.338  1.00  0.00     0.209 HD
ENDBRANCH  28  29
ENDBRANCH  24  28
ENDBRANCH  23  24
ENDBRANCH   3  23
TORSDOF 7
ENDMDL
MODEL 2
REMARK VINA RESULT:      -6.5      3.496      5.793
REMARK  7 active torsions:
REMARK  status: ('A' for Active; 'I' for Inactive)
REMARK    1  A    between atoms: C_2  and  N_7 
REMARK    2  A    between atoms: N_3  and  C_16 
REMARK    3  A    between atoms: C_11  and  C_14 
REMARK    4  A    between atoms: C_14  and  C_19 
REMARK    5  A    between atoms: C_15  and  C_16 
REMARK    6  A    between atoms: C_15  and  C_27 
REMARK    7  A    between atoms: C_27  and  O_28 
ROOT
HETATM    1  C   UNL     1     -42.596 -50.637  13.096  1.00  0.00     0.122 A 
HETATM    2  C   UNL     1     -43.364 -51.822  12.949  1.00  0.00     0.136 A 
HETATM    3  N   UNL     1     -40.879 -49.334  12.709  1.00  0.00    -0.326 N 
HETATM    4  C   UNL     1     -41.396 -50.561  12.396  1.00  0.00     0.140 A 
HETATM    5  N   UNL     1     -42.782 -49.481  13.834  1.00  0.00    -0.346 N 
ATOM      6  HN  UNL     1     -43.562 -49.265  14.454  1.00  0.00     0.167 HD
HETATM    7  C   UNL     1     -41.745 -48.720  13.568  1.00  0.00     0.185 A 
HETATM    8  N   UNL     1     -42.824 -52.789  12.144  1.00  0.00    -0.337 N 
ATOM      9  HN  UNL     1     -43.317 -53.671  12.006  1.00  0.00     0.168 HD
HETATM   10  N   UNL     1     -40.849 -51.489  11.595  1.00  0.00    -0.336 N 
ATOM     11  HN  UNL     1     -39.961 -51.385  11.103  1.00  0.00     0.168 HD
HETATM   12  C   UNL     1     -41.639 -52.578  11.532  1.00  0.00     0.183 A 
ENDROOT
BRANCH   2  13
HETATM   13  N   UNL     1     -44.573 -52.085  13.594  1.00  0.00    -0.356 N 
HETATM   14  C   UNL     1     -45.831 -51.441  13.132  1.00  0.00     0.115 C 
HETATM   15  C   UNL     1     -46.817 -51.467  14.322  1.00  0.00     0.193 C 
HETATM   16  O   UNL     1     -47.083 -52.818  14.730  1.00  0.00    -0.388 OA
HETATM   17  C   UNL     1     -45.873 -53.421  15.224  1.00  0.00     0.187 C 
HETATM   18  C   UNL     1     -44.740 -53.428  14.181  1.00  0.00     0.151 C 
BRANCH  14  19
HETATM   19  C   UNL     1     -46.384 -52.173  11.896  1.00  0.00     0.098 C 
BRANCH  19  20
HETATM   20  C   UNL     1     -47.580 -51.480  11.284  1.00  0.00     0.355 C 
HETATM   21  F   UNL     1     -47.174 -50.561  10.376  1.00  0.00    -0.214 F 
HETATM   22  F   UNL     1     -48.322 -52.394  10.604  1.00  0.00    -0.214 F 
ENDBRANCH  19  20
ENDBRANCH  14  19
ENDBRANCH   2  13
BRANCH   3  23
HETATM   23  C   UNL     1     -39.672 -48.735  12.163  1.00  0.00     0.147 C 
BRANCH  23  24
HETATM   24  C   UNL     1     -38.380 -49.241  12.794  1.00  0.00     0.040 C 
HETATM   25  C   UNL     1     -38.522 -50.065  14.091  1.00  0.00     0.183 C 
HETATM   26  O   UNL     1     -37.689 -49.137  14.819  1.00  0.00    -0.389 OA
HETATM   27  C   UNL     1     -37.743 -48.190  13.725  1.00  0.00     0.183 C 
BRANCH  24  28
HETATM   28  C   UNL     1     -37.389 -49.874  11.825  1.00  0.00     0.179 C 
BRANCH  28  29
HETATM   29  O   UNL     1     -37.919 -51.097  11.326  1.00  0.00    -0.400 OA
HETATM   30  H   UNL     1     -37.541 -51.811  11.883  1.00  0.00     0.209 HD
ENDBRANCH  28  29
ENDBRANCH  24  28
ENDBRANCH  23  24
ENDBRANCH   3  23
TORSDOF 7
ENDMDL
MODEL 3
REMARK VINA RESULT:      -6.4      4.342      5.942
REMARK  7 active torsions:
REMARK  status: ('A' for Active; 'I' for Inactive)
REMARK    1  A    between atoms: C_2  and  N_7 
REMARK    2  A    between atoms: N_3  and  C_16 
REMARK    3  A    between atoms: C_11  and  C_14 
REMARK    4  A    between atoms: C_14  and  C_19 
REMARK    5  A    between atoms: C_15  and  C_16 
REMARK    6  A    between atoms: C_15  and  C_27 
REMARK    7  A    between atoms: C_27  and  O_28 
ROOT
HETATM    1  C   UNL     1     -41.252 -51.501  13.784  1.00  0.00     0.122 A 
HETATM    2  C   UNL     1     -40.742 -50.176  13.765  1.00  0.00     0.136 A 
HETATM    3  N   UNL     1     -42.714 -53.064  13.321  1.00  0.00    -0.326 N 
HETATM    4  C   UNL     1     -42.474 -51.727  13.159  1.00  0.00     0.140 A 
HETATM    5  N   UNL     1     -40.779 -52.682  14.331  1.00  0.00    -0.346 N 
ATOM      6  HN  UNL     1     -39.919 -52.814  14.862  1.00  0.00     0.167 HD
HETATM    7  C   UNL     1     -41.671 -53.596  14.023  1.00  0.00     0.185 A 
HETATM    8  N   UNL     1     -41.530 -49.242  13.147  1.00  0.00    -0.337 N 
ATOM      9  HN  UNL     1     -41.230 -48.268  13.108  1.00  0.00     0.168 HD
HETATM   10  N   UNL     1     -43.260 -50.832  12.539  1.00  0.00    -0.336 N 
ATOM     11  HN  UNL     1     -44.152 -51.050  12.095  1.00  0.00     0.168 HD
HETATM   12  C   UNL     1     -42.703 -49.608  12.587  1.00  0.00     0.183 A 
ENDROOT
BRANCH   2  13
HETATM   13  N   UNL     1     -39.553 -49.760  14.363  1.00  0.00    -0.356 N 
HETATM   14  C   UNL     1     -38.242 -50.238  13.848  1.00  0.00     0.115 C 
HETATM   15  C   UNL     1     -37.220 -50.084  14.999  1.00  0.00     0.193 C 
HETATM   16  O   UNL     1     -37.114 -48.711  15.402  1.00  0.00    -0.388 OA
HETATM   17  C   UNL     1     -38.371 -48.267  15.946  1.00  0.00     0.187 C 
HETATM   18  C   UNL     1     -39.536 -48.407  14.949  1.00  0.00     0.151 C 
BRANCH  14  19
HETATM   19  C   UNL     1     -37.837 -49.440  12.595  1.00  0.00     0.098 C 
BRANCH  19  20
HETATM   20  C   UNL     1     -37.534 -50.322  11.405  1.00  0.00     0.355 C 
HETATM   21  F   UNL     1     -36.774 -49.651  10.507  1.00  0.00    -0.214 F 
HETATM   22  F   UNL     1     -36.797 -51.387  11.817  1.00  0.00    -0.214 F 
ENDBRANCH  19  20
ENDBRANCH  14  19
ENDBRANCH   2  13
BRANCH   3  23
HETATM   23  C   UNL     1     -43.828 -53.819  12.771  1.00  0.00     0.147 C 
BRANCH  23  24
HETATM   24  C   UNL     1     -45.111 -53.730  13.589  1.00  0.00     0.040 C 
HETATM   25  C   UNL     1     -44.946 -53.614  15.119  1.00  0.00     0.183 C 
HETATM   26  O   UNL     1     -45.724 -54.812  15.334  1.00  0.00    -0.389 OA
HETATM   27  C   UNL     1     -45.682 -55.124  13.920  1.00  0.00     0.183 C 
BRANCH  24  28
HETATM   28  C   UNL     1     -46.156 -52.758  13.056  1.00  0.00     0.179 C 
BRANCH  28  29
HETATM   29  O   UNL     1     -45.888 -52.467  11.689  1.00  0.00    -0.400 OA
HETATM   30  H   UNL     1     -46.673 -51.986  11.348  1.00  0.00     0.209 HD
ENDBRANCH  28  29
ENDBRANCH  24  28
ENDBRANCH  23  24
ENDBRANCH   3  23
TORSDOF 7
ENDMDL
MODEL 4
REMARK VINA RESULT:      -6.4      3.669      4.693
REMARK  7 active torsions:
REMARK  status: ('A' for Active; 'I' for Inactive)
REMARK    1  A    between atoms: C_2  and  N_7 
REMARK    2  A    between atoms: N_3  and  C_16 
REMARK    3  A    between atoms: C_11  and  C_14 
REMARK    4  A    between atoms: C_14  and  C_19 
REMARK    5  A    between atoms: C_15  and  C_16 
REMARK    6  A    between atoms: C_15  and  C_27 
REMARK    7  A    between atoms: C_27  and  O_28 
ROOT
HETATM    1  C   UNL     1     -42.443 -50.447  13.275  1.00  0.00     0.122 A 
HETATM    2  C   UNL     1     -41.471 -50.155  12.281  1.00  0.00     0.136 A 
HETATM    3  N   UNL     1     -43.732 -51.770  14.451  1.00  0.00    -0.326 N 
HETATM    4  C   UNL     1     -42.806 -51.779  13.444  1.00  0.00     0.140 A 
HETATM    5  N   UNL     1     -43.158 -49.651  14.153  1.00  0.00    -0.346 N 
ATOM      6  HN  UNL     1     -43.112 -48.636  14.241  1.00  0.00     0.167 HD
HETATM    7  C   UNL     1     -43.907 -50.475  14.848  1.00  0.00     0.185 A 
HETATM    8  N   UNL     1     -41.007 -51.227  11.567  1.00  0.00    -0.337 N 
ATOM      9  HN  UNL     1     -40.317 -51.087  10.829  1.00  0.00     0.168 HD
HETATM   10  N   UNL     1     -42.359 -52.848  12.765  1.00  0.00    -0.336 N 
ATOM     11  HN  UNL     1     -42.660 -53.809  12.928  1.00  0.00     0.168 HD
HETATM   12  C   UNL     1     -41.459 -52.470  11.838  1.00  0.00     0.183 A 
ENDROOT
BRANCH   2  13
HETATM   13  N   UNL     1     -41.010 -48.881  11.954  1.00  0.00    -0.356 N 
HETATM   14  C   UNL     1     -39.702 -48.396  12.468  1.00  0.00     0.115 C 
HETATM   15  C   UNL     1     -39.741 -46.851  12.422  1.00  0.00     0.193 C 
HETATM   16  O   UNL     1     -39.937 -46.389  11.076  1.00  0.00    -0.388 OA
HETATM   17  C   UNL     1     -41.226 -46.818  10.600  1.00  0.00     0.187 C 
HETATM   18  C   UNL     1     -41.396 -48.348  10.633  1.00  0.00     0.151 C 
BRANCH  14  19
HETATM   19  C   UNL     1     -38.549 -48.978  11.630  1.00  0.00     0.098 C 
BRANCH  19  20
HETATM   20  C   UNL     1     -37.644 -49.893  12.424  1.00  0.00     0.355 C 
HETATM   21  F   UNL     1     -38.362 -50.574  13.348  1.00  0.00    -0.214 F 
HETATM   22  F   UNL     1     -37.110 -50.822  11.588  1.00  0.00    -0.214 F 
ENDBRANCH  19  20
ENDBRANCH  14  19
ENDBRANCH   2  13
BRANCH   3  23
HETATM   23  C   UNL     1     -44.359 -52.929  15.065  1.00  0.00     0.147 C 
BRANCH  23  24
HETATM   24  C   UNL     1     -45.507 -53.523  14.258  1.00  0.00     0.040 C 
HETATM   25  C   UNL     1     -46.470 -54.460  15.016  1.00  0.00     0.183 C 
HETATM   26  O   UNL     1     -46.196 -55.546  14.104  1.00  0.00    -0.389 OA
HETATM   27  C   UNL     1     -45.089 -54.814  13.525  1.00  0.00     0.183 C 
BRANCH  24  28
HETATM   28  C   UNL     1     -46.255 -52.536  13.371  1.00  0.00     0.179 C 
BRANCH  28  29
HETATM   29  O   UNL     1     -46.366 -53.063  12.053  1.00  0.00    -0.400 OA
HETATM   30  H   UNL     1     -47.032 -52.512  11.588  1.00  0.00     0.209 HD
ENDBRANCH  28  29
ENDBRANCH  24  28
ENDBRANCH  23  24
ENDBRANCH   3  23
TORSDOF 7
ENDMDL
MODEL 5
REMARK VINA RESULT:      -6.3      2.341      3.013
REMARK  7 active torsions:
REMARK  status: ('A' for Active; 'I' for Inactive)
REMARK    1  A    between atoms: C_2  and  N_7 
REMARK    2  A    between atoms: N_3  and  C_16 
REMARK    3  A    between atoms: C_11  and  C_14 
REMARK    4  A    between atoms: C_14  and  C_19 
REMARK    5  A    between atoms: C_15  and  C_16 
REMARK    6  A    between atoms: C_15  and  C_27 
REMARK    7  A    between atoms: C_27  and  O_28 
ROOT
HETATM    1  C   UNL     1     -42.446 -49.268  12.020  1.00  0.00     0.122 A 
HETATM    2  C   UNL     1     -41.858 -48.417  11.046  1.00  0.00     0.136 A 
HETATM    3  N   UNL     1     -42.491 -50.990  13.372  1.00  0.00    -0.326 N 
HETATM    4  C   UNL     1     -41.702 -50.363  12.446  1.00  0.00     0.140 A 
HETATM    5  N   UNL     1     -43.671 -49.252  12.665  1.00  0.00    -0.346 N 
ATOM      6  HN  UNL     1     -44.425 -48.578  12.538  1.00  0.00     0.167 HD
HETATM    7  C   UNL     1     -43.658 -50.287  13.474  1.00  0.00     0.185 A 
HETATM    8  N   UNL     1     -40.615 -48.785  10.604  1.00  0.00    -0.337 N 
ATOM      9  HN  UNL     1     -40.141 -48.226   9.895  1.00  0.00     0.168 HD
HETATM   10  N   UNL     1     -40.480 -50.740  12.037  1.00  0.00    -0.336 N 
ATOM     11  HN  UNL     1     -39.976 -51.556  12.382  1.00  0.00     0.168 HD
HETATM   12  C   UNL     1     -40.015 -49.885  11.106  1.00  0.00     0.183 A 
ENDROOT
BRANCH   2  13
HETATM   13  N   UNL     1     -42.465 -47.295  10.484  1.00  0.00    -0.356 N 
HETATM   14  C   UNL     1     -41.941 -45.932  10.765  1.00  0.00     0.115 C 
HETATM   15  C   UNL     1     -43.095 -44.938  10.497  1.00  0.00     0.193 C 
HETATM   16  O   UNL     1     -43.528 -45.021   9.131  1.00  0.00    -0.388 OA
HETATM   17  C   UNL     1     -44.081 -46.326   8.876  1.00  0.00     0.187 C 
HETATM   18  C   UNL     1     -43.080 -47.463   9.153  1.00  0.00     0.151 C 
BRANCH  14  19
HETATM   19  C   UNL     1     -40.706 -45.644   9.893  1.00  0.00     0.098 C 
BRANCH  19  20
HETATM   20  C   UNL     1     -39.701 -44.740  10.571  1.00  0.00     0.355 C 
HETATM   21  F   UNL     1     -38.581 -44.637   9.817  1.00  0.00    -0.214 F 
HETATM   22  F   UNL     1     -40.222 -43.488  10.664  1.00  0.00    -0.214 F 
ENDBRANCH  19  20
ENDBRANCH  14  19
ENDBRANCH   2  13
BRANCH   3  23
HETATM   23  C   UNL     1     -42.133 -52.144  14.180  1.00  0.00     0.147 C 
BRANCH  23  24
HETATM   24  C   UNL     1     -42.403 -53.487  13.510  1.00  0.00     0.040 C 
HETATM   25  C   UNL     1     -43.584 -53.537  12.518  1.00  0.00     0.183 C 
HETATM   26  O   UNL     1     -44.231 -54.580  13.279  1.00  0.00    -0.389 OA
HETATM   27  C   UNL     1     -43.304 -54.391  14.375  1.00  0.00     0.183 C 
BRANCH  24  28
HETATM   28  C   UNL     1     -41.173 -54.200  12.964  1.00  0.00     0.179 C 
BRANCH  28  29
HETATM   29  O   UNL     1     -40.749 -53.573  11.759  1.00  0.00    -0.400 OA
HETATM   30  H   UNL     1     -41.048 -54.151  11.024  1.00  0.00     0.209 HD
ENDBRANCH  28  29
ENDBRANCH  24  28
ENDBRANCH  23  24
ENDBRANCH   3  23
TORSDOF 7
ENDMDL
MODEL 6
REMARK VINA RESULT:      -6.3      2.290      2.687
REMARK  7 active torsions:
REMARK  status: ('A' for Active; 'I' for Inactive)
REMARK    1  A    between atoms: C_2  and  N_7 
REMARK    2  A    between atoms: N_3  and  C_16 
REMARK    3  A    between atoms: C_11  and  C_14 
REMARK    4  A    between atoms: C_14  and  C_19 
REMARK    5  A    between atoms: C_15  and  C_16 
REMARK    6  A    between atoms: C_15  and  C_27 
REMARK    7  A    between atoms: C_27  and  O_28 
ROOT
HETATM    1  C   UNL     1     -40.455 -48.993  12.943  1.00  0.00     0.122 A 
HETATM    2  C   UNL     1     -39.611 -48.221  12.102  1.00  0.00     0.136 A 
HETATM    3  N   UNL     1     -41.138 -50.841  13.898  1.00  0.00    -0.326 N 
HETATM    4  C   UNL     1     -40.197 -50.357  13.032  1.00  0.00     0.140 A 
HETATM    5  N   UNL     1     -41.549 -48.671  13.728  1.00  0.00    -0.346 N 
ATOM      6  HN  UNL     1     -41.975 -47.751  13.843  1.00  0.00     0.167 HD
HETATM    7  C   UNL     1     -41.922 -49.795  14.294  1.00  0.00     0.185 A 
HETATM    8  N   UNL     1     -38.634 -48.913  11.438  1.00  0.00    -0.337 N 
ATOM      9  HN  UNL     1     -38.001 -48.422  10.807  1.00  0.00     0.168 HD
HETATM   10  N   UNL     1     -39.242 -51.058  12.400  1.00  0.00    -0.336 N 
ATOM     11  HN  UNL     1     -39.094 -52.062  12.498  1.00  0.00     0.168 HD
HETATM   12  C   UNL     1     -38.507 -50.246  11.617  1.00  0.00     0.183 A 
ENDROOT
BRANCH   2  13
HETATM   13  N   UNL     1     -39.738 -46.851  11.870  1.00  0.00    -0.356 N 
HETATM   14  C   UNL     1     -40.503 -46.352  10.697  1.00  0.00     0.115 C 
HETATM   15  C   UNL     1     -40.002 -44.919  10.406  1.00  0.00     0.193 C 
HETATM   16  O   UNL     1     -40.229 -44.063  11.536  1.00  0.00    -0.388 OA
HETATM   17  C   UNL     1     -39.448 -44.520  12.655  1.00  0.00     0.187 C 
HETATM   18  C   UNL     1     -39.770 -45.972  13.054  1.00  0.00     0.151 C 
BRANCH  14  19
HETATM   19  C   UNL     1     -42.014 -46.397  10.986  1.00  0.00     0.098 C 
BRANCH  19  20
HETATM   20  C   UNL     1     -42.753 -47.397  10.126  1.00  0.00     0.355 C 
HETATM   21  F   UNL     1     -43.250 -46.788   9.023  1.00  0.00    -0.214 F 
HETATM   22  F   UNL     1     -41.875 -48.337   9.686  1.00  0.00    -0.214 F 
ENDBRANCH  19  20
ENDBRANCH  14  19
ENDBRANCH   2  13
BRANCH   3  23
HETATM   23  C   UNL     1     -41.243 -52.204  14.393  1.00  0.00     0.147 C 
BRANCH  23  24
HETATM   24  C   UNL     1     -41.900 -53.176  13.421  1.00  0.00     0.040 C 
HETATM   25  C   UNL     1     -42.925 -52.577  12.434  1.00  0.00     0.183 C 
HETATM   26  O   UNL     1     -43.964 -53.456  12.918  1.00  0.00    -0.389 OA
HETATM   27  C   UNL     1     -43.138 -53.860  14.036  1.00  0.00     0.183 C 
BRANCH  24  28
HETATM   28  C   UNL     1     -40.950 -54.147  12.732  1.00  0.00     0.179 C 
BRANCH  28  29
HETATM   29  O   UNL     1     -40.527 -53.604  11.486  1.00  0.00    -0.400 OA
HETATM   30  H   UNL     1     -41.225 -53.826  10.834  1.00  0.00     0.209 HD
ENDBRANCH  28  29
ENDBRANCH  24  28
ENDBRANCH  23  24
ENDBRANCH   3  23
TORSDOF 7
ENDMDL
MODEL 7
REMARK VINA RESULT:      -6.2      2.575      6.628
REMARK  7 active torsions:
REMARK  status: ('A' for Active; 'I' for Inactive)
REMARK    1  A    between atoms: C_2  and  N_7 
REMARK    2  A    between atoms: N_3  and  C_16 
REMARK    3  A    between atoms: C_11  and  C_14 
REMARK    4  A    between atoms: C_14  and  C_19 
REMARK    5  A    between atoms: C_15  and  C_16 
REMARK    6  A    between atoms: C_15  and  C_27 
REMARK    7  A    between atoms: C_27  and  O_28 
ROOT
HETATM    1  C   UNL     1     -42.258 -50.798  13.369  1.00  0.00     0.122 A 
HETATM    2  C   UNL     1     -42.504 -52.188  13.213  1.00  0.00     0.136 A 
HETATM    3  N   UNL     1     -41.359 -48.876  12.827  1.00  0.00    -0.326 N 
HETATM    4  C   UNL     1     -41.408 -50.191  12.450  1.00  0.00     0.140 A 
HETATM    5  N   UNL     1     -42.693 -49.864  14.294  1.00  0.00    -0.346 N 
ATOM      6  HN  UNL     1     -43.308 -50.027  15.091  1.00  0.00     0.167 HD
HETATM    7  C   UNL     1     -42.147 -48.726  13.932  1.00  0.00     0.185 A 
HETATM    8  N   UNL     1     -41.850 -52.798  12.176  1.00  0.00    -0.337 N 
ATOM      9  HN  UNL     1     -41.971 -53.797  12.015  1.00  0.00     0.168 HD
HETATM   10  N   UNL     1     -40.762 -50.763  11.421  1.00  0.00    -0.336 N 
ATOM     11  HN  UNL     1     -40.146 -50.271  10.774  1.00  0.00     0.168 HD
HETATM   12  C   UNL     1     -41.044 -52.078  11.366  1.00  0.00     0.183 A 
ENDROOT
BRANCH   2  13
HETATM   13  N   UNL     1     -43.302 -52.965  14.053  1.00  0.00    -0.356 N 
HETATM   14  C   UNL     1     -44.688 -52.539  14.384  1.00  0.00     0.115 C 
HETATM   15  C   UNL     1     -45.076 -53.247  15.703  1.00  0.00     0.193 C 
HETATM   16  O   UNL     1     -45.029 -54.673  15.546  1.00  0.00    -0.388 OA
HETATM   17  C   UNL     1     -43.676 -55.086  15.274  1.00  0.00     0.187 C 
HETATM   18  C   UNL     1     -43.091 -54.424  14.013  1.00  0.00     0.151 C 
BRANCH  14  19
HETATM   19  C   UNL     1     -45.645 -52.887  13.229  1.00  0.00     0.098 C 
BRANCH  19  20
HETATM   20  C   UNL     1     -46.352 -51.677  12.662  1.00  0.00     0.355 C 
HETATM   21  F   UNL     1     -47.205 -52.052  11.679  1.00  0.00    -0.214 F 
HETATM   22  F   UNL     1     -47.110 -51.109  13.636  1.00  0.00    -0.214 F 
ENDBRANCH  19  20
ENDBRANCH  14  19
ENDBRANCH   2  13
BRANCH   3  23
HETATM   23  C   UNL     1     -40.670 -47.800  12.133  1.00  0.00     0.147 C 
BRANCH  23  24
HETATM   24  C   UNL     1     -41.570 -46.950  11.244  1.00  0.00     0.040 C 
HETATM   25  C   UNL     1     -40.896 -45.777  10.502  1.00  0.00     0.183 C 
HETATM   26  O   UNL     1     -41.788 -44.822  11.118  1.00  0.00    -0.389 OA
HETATM   27  C   UNL     1     -42.273 -45.830  12.038  1.00  0.00     0.183 C 
BRANCH  24  28
HETATM   28  C   UNL     1     -42.511 -47.731  10.335  1.00  0.00     0.179 C 
BRANCH  28  29
HETATM   29  O   UNL     1     -41.753 -48.516   9.421  1.00  0.00    -0.400 OA
HETATM   30  H   UNL     1     -40.811 -48.288   9.572  1.00  0.00     0.209 HD
ENDBRANCH  28  29
ENDBRANCH  24  28
ENDBRANCH  23  24
ENDBRANCH   3  23
TORSDOF 7
ENDMDL
MODEL 8
REMARK VINA RESULT:      -6.1      2.842      3.654
REMARK  7 active torsions:
REMARK  status: ('A' for Active; 'I' for Inactive)
REMARK    1  A    between atoms: C_2  and  N_7 
REMARK    2  A    between atoms: N_3  and  C_16 
REMARK    3  A    between atoms: C_11  and  C_14 
REMARK    4  A    between atoms: C_14  and  C_19 
REMARK    5  A    between atoms: C_15  and  C_16 
REMARK    6  A    between atoms: C_15  and  C_27 
REMARK    7  A    between atoms: C_27  and  O_28 
ROOT
HETATM    1  C   UNL     1     -39.455 -48.469  12.717  1.00  0.00     0.122 A 
HETATM    2  C   UNL     1     -40.042 -47.217  13.040  1.00  0.00     0.136 A 
HETATM    3  N   UNL     1     -38.886 -50.547  13.111  1.00  0.00    -0.326 N 
HETATM    4  C   UNL     1     -39.505 -49.469  13.683  1.00  0.00     0.140 A 
HETATM    5  N   UNL     1     -38.796 -48.936  11.593  1.00  0.00    -0.346 N 
ATOM      6  HN  UNL     1     -38.596 -48.419  10.737  1.00  0.00     0.167 HD
HETATM    7  C   UNL     1     -38.482 -50.183  11.858  1.00  0.00     0.185 A 
HETATM    8  N   UNL     1     -40.580 -47.116  14.296  1.00  0.00    -0.337 N 
ATOM      9  HN  UNL     1     -41.005 -46.240  14.598  1.00  0.00     0.168 HD
HETATM   10  N   UNL     1     -40.033 -49.399  14.915  1.00  0.00    -0.336 N 
ATOM     11  HN  UNL     1     -40.043 -50.164  15.589  1.00  0.00     0.168 HD
HETATM   12  C   UNL     1     -40.548 -48.174  15.134  1.00  0.00     0.183 A 
ENDROOT
BRANCH   2  13
HETATM   13  N   UNL     1     -40.060 -46.097  12.211  1.00  0.00    -0.356 N 
HETATM   14  C   UNL     1     -40.449 -46.222  10.781  1.00  0.00     0.115 C 
HETATM   15  C   UNL     1     -39.846 -45.006  10.039  1.00  0.00     0.193 C 
HETATM   16  O   UNL     1     -40.359 -43.778  10.578  1.00  0.00    -0.388 OA
HETATM   17  C   UNL     1     -39.938 -43.637  11.948  1.00  0.00     0.187 C 
HETATM   18  C   UNL     1     -40.400 -44.805  12.838  1.00  0.00     0.151 C 
BRANCH  14  19
HETATM   19  C   UNL     1     -41.981 -46.288  10.647  1.00  0.00     0.098 C 
BRANCH  19  20
HETATM   20  C   UNL     1     -42.459 -47.529   9.928  1.00  0.00     0.355 C 
HETATM   21  F   UNL     1     -41.634 -48.570  10.192  1.00  0.00    -0.214 F 
HETATM   22  F   UNL     1     -43.683 -47.875  10.406  1.00  0.00    -0.214 F 
ENDBRANCH  19  20
ENDBRANCH  14  19
ENDBRANCH   2  13
BRANCH   3  23
HETATM   23  C   UNL     1     -38.753 -51.877  13.684  1.00  0.00     0.147 C 
BRANCH  23  24
HETATM   24  C   UNL     1     -40.012 -52.730  13.585  1.00  0.00     0.040 C 
HETATM   25  C   UNL     1     -40.859 -52.861  14.868  1.00  0.00     0.183 C 
HETATM   26  O   UNL     1     -40.730 -54.300  14.855  1.00  0.00    -0.389 OA
HETATM   27  C   UNL     1     -39.716 -54.225  13.824  1.00  0.00     0.183 C 
BRANCH  24  28
HETATM   28  C   UNL     1     -40.877 -52.472  12.358  1.00  0.00     0.179 C 
BRANCH  28  29
HETATM   29  O   UNL     1     -40.558 -53.411  11.338  1.00  0.00    -0.400 OA
HETATM   30  H   UNL     1     -40.598 -54.299  11.754  1.00  0.00     0.209 HD
ENDBRANCH  28  29
ENDBRANCH  24  28
ENDBRANCH  23  24
ENDBRANCH   3  23
TORSDOF 7
ENDMDL
MODEL 9
REMARK VINA RESULT:      -6.0      1.680      2.011
REMARK  7 active torsions:
REMARK  status: ('A' for Active; 'I' for Inactive)
REMARK    1  A    between atoms: C_2  and  N_7 
REMARK    2  A    between atoms: N_3  and  C_16 
REMARK    3  A    between atoms: C_11  and  C_14 
REMARK    4  A    between atoms: C_14  and  C_19 
REMARK    5  A    between atoms: C_15  and  C_16 
REMARK    6  A    between atoms: C_15  and  C_27 
REMARK    7  A    between atoms: C_27  and  O_28 
ROOT
HETATM    1  C   UNL     1     -41.935 -49.963  12.176  1.00  0.00     0.122 A 
HETATM    2  C   UNL     1     -41.147 -48.863  11.747  1.00  0.00     0.136 A 
HETATM    3  N   UNL     1     -42.290 -52.065  12.676  1.00  0.00    -0.326 N 
HETATM    4  C   UNL     1     -41.320 -51.210  12.230  1.00  0.00     0.140 A 
HETATM    5  N   UNL     1     -43.260 -50.076  12.563  1.00  0.00    -0.346 N 
ATOM      6  HN  UNL     1     -43.955 -49.332  12.603  1.00  0.00     0.167 HD
HETATM    7  C   UNL     1     -43.433 -51.342  12.867  1.00  0.00     0.185 A 
HETATM    8  N   UNL     1     -39.854 -49.154  11.401  1.00  0.00    -0.337 N 
ATOM      9  HN  UNL     1     -39.236 -48.412  11.071  1.00  0.00     0.168 HD
HETATM   10  N   UNL     1     -40.055 -51.519  11.906  1.00  0.00    -0.336 N 
ATOM     11  HN  UNL     1     -39.651 -52.454  11.963  1.00  0.00     0.168 HD
HETATM   12  C   UNL     1     -39.395 -50.420  11.497  1.00  0.00     0.183 A 
ENDROOT
BRANCH   2  13
HETATM   13  N   UNL     1     -41.601 -47.552  11.604  1.00  0.00    -0.356 N 
HETATM   14  C   UNL     1     -42.046 -47.048  10.278  1.00  0.00     0.115 C 
HETATM   15  C   UNL     1     -41.939 -45.505  10.321  1.00  0.00     0.193 C 
HETATM   16  O   UNL     1     -42.779 -44.968  11.354  1.00  0.00    -0.388 OA
HETATM   17  C   UNL     1     -42.315 -45.419  12.640  1.00  0.00     0.187 C 
HETATM   18  C   UNL     1     -42.292 -46.954  12.762  1.00  0.00     0.151 C 
BRANCH  14  19
HETATM   19  C   UNL     1     -43.477 -47.527   9.976  1.00  0.00     0.098 C 
BRANCH  19  20
HETATM   20  C   UNL     1     -43.832 -47.442   8.508  1.00  0.00     0.355 C 
HETATM   21  F   UNL     1     -42.995 -48.217   7.779  1.00  0.00    -0.214 F 
HETATM   22  F   UNL     1     -45.082 -47.944   8.325  1.00  0.00    -0.214 F 
ENDBRANCH  19  20
ENDBRANCH  14  19
ENDBRANCH   2  13
BRANCH   3  23
HETATM   23  C   UNL     1     -42.128 -53.477  12.986  1.00  0.00     0.147 C 
BRANCH  23  24
HETATM   24  C   UNL     1     -41.533 -53.753  14.361  1.00  0.00     0.040 C 
HETATM   25  C   UNL     1     -42.326 -54.709  15.276  1.00  0.00     0.183 C 
HETATM   26  O   UNL     1     -42.437 -53.698  16.303  1.00  0.00    -0.389 OA
HETATM   27  C   UNL     1     -41.945 -52.684  15.393  1.00  0.00     0.183 C 
BRANCH  24  28
HETATM   28  C   UNL     1     -40.041 -54.064  14.373  1.00  0.00     0.179 C 
BRANCH  28  29
HETATM   29  O   UNL     1     -39.586 -54.285  13.043  1.00  0.00    -0.400 OA
HETATM   30  H   UNL     1     -38.789 -53.725  12.924  1.00  0.00     0.209 HD
ENDBRANCH  28  29
ENDBRANCH  24  28
ENDBRANCH  23  24
ENDBRANCH   3  23
TORSDOF 7
ENDMDL
