MODEL 1
REMARK VINA RESULT:      -6.8      0.000      0.000
REMARK  5 active torsions:
REMARK  status: ('A' for Active; 'I' for Inactive)
REMARK    1  A    between atoms: C_5  and  N_8 
REMARK       I    between atoms: N_8  and  C_9 
REMARK    2  A    between atoms: C_9  and  C_11 
REMARK    3  A    between atoms: C_11  and  N_12 
REMARK       I    between atoms: N_12  and  C_13 
REMARK    4  A    between atoms: C_13  and  C_15 
REMARK    5  A    between atoms: C_15  and  N_16 
ROOT
HETATM    1  C   UNL     1     -41.159 -50.539  11.697  1.00  0.00     0.225 C 
ENDROOT
BRANCH   1   2
HETATM    2  C   UNL     1     -41.781 -51.747  12.399  1.00  0.00     0.235 C 
HETATM    3  N   UNL     1     -43.114 -51.591  12.711  1.00  0.00    -0.355 N 
HETATM    4  H   UNL     1     -43.560 -50.709  12.475  1.00  0.00     0.162 HD
HETATM    5  O   UNL     1     -41.110 -52.724  12.721  1.00  0.00    -0.272 OA
BRANCH   3   6
HETATM    6  C   UNL     1     -43.909 -52.642  13.336  1.00  0.00     0.084 C 
HETATM    7  C   UNL     1     -45.285 -52.764  12.666  1.00  0.00     0.025 C 
HETATM    8  C   UNL     1     -46.210 -51.594  13.005  1.00  0.00     0.006 C 
HETATM    9  C   UNL     1     -46.357 -51.363  14.516  1.00  0.00    -0.019 C 
HETATM   10  C   UNL     1     -47.218 -52.445  15.173  1.00  0.00     0.010 C 
HETATM   11  C   UNL     1     -44.982 -51.247  15.187  1.00  0.00     0.006 C 
HETATM   12  C   UNL     1     -44.042 -52.405  14.844  1.00  0.00     0.025 C 
ENDBRANCH   3   6
ENDBRANCH   1   2
BRANCH   1  13
HETATM   13  N   UNL     1     -42.162 -49.524  11.428  1.00  0.00    -0.351 N 
HETATM   14  C   UNL     1     -41.790 -48.239  11.088  1.00  0.00     0.237 C 
HETATM   15  O   UNL     1     -40.612 -47.892  11.042  1.00  0.00    -0.272 OA
HETATM   16  H   UNL     1     -43.093 -49.852  11.195  1.00  0.00     0.163 HD
BRANCH  14  17
HETATM   17  C   UNL     1     -42.935 -47.287  10.822  1.00  0.00     0.252 C 
BRANCH  17  18
HETATM   18  N   UNL     1     -43.537 -47.523   9.531  1.00  0.00    -0.278 N 
HETATM   19  C   UNL     1     -44.856 -47.503   9.200  1.00  0.00     0.201 A 
HETATM   20  N   UNL     1     -44.997 -47.839   7.938  1.00  0.00    -0.346 N 
HETATM   21  C   UNL     1     -43.712 -48.070   7.536  1.00  0.00     0.198 A 
ATOM     22  HN  UNL     1     -45.855 -47.910   7.392  1.00  0.00     0.167 HD
HETATM   23  N   UNL     1     -42.781 -47.901   8.480  1.00  0.00    -0.293 N 
ATOM     24  HN  UNL     1     -41.770 -48.026   8.421  1.00  0.00     0.188 HD
ENDBRANCH  17  18
ENDBRANCH  14  17
ENDBRANCH   1  13
TORSDOF 5
ENDMDL
MODEL 2
REMARK VINA RESULT:      -6.0      2.389      2.884
REMARK  5 active torsions:
REMARK  status: ('A' for Active; 'I' for Inactive)
REMARK    1  A    between atoms: C_5  and  N_8 
REMARK       I    between atoms: N_8  and  C_9 
REMARK    2  A    between atoms: C_9  and  C_11 
REMARK    3  A    between atoms: C_11  and  N_12 
REMARK       I    between atoms: N_12  and  C_13 
REMARK    4  A    between atoms: C_13  and  C_15 
REMARK    5  A    between atoms: C_15  and  N_16 
ROOT
HETATM    1  C   UNL     1     -39.458 -49.821  11.566  1.00  0.00     0.225 C 
ENDROOT
BRANCH   1   2
HETATM    2  C   UNL     1     -39.127 -50.975  12.513  1.00  0.00     0.235 C 
HETATM    3  N   UNL     1     -40.200 -51.416  13.257  1.00  0.00    -0.355 N 
HETATM    4  H   UNL     1     -41.092 -50.945  13.135  1.00  0.00     0.162 HD
HETATM    5  O   UNL     1     -37.982 -51.397  12.644  1.00  0.00    -0.272 OA
BRANCH   3   6
HETATM    6  C   UNL     1     -40.113 -52.540  14.183  1.00  0.00     0.084 C 
HETATM    7  C   UNL     1     -40.347 -53.872  13.456  1.00  0.00     0.025 C 
HETATM    8  C   UNL     1     -41.808 -54.069  13.047  1.00  0.00     0.006 C 
HETATM    9  C   UNL     1     -42.787 -53.909  14.219  1.00  0.00    -0.019 C 
HETATM   10  C   UNL     1     -42.724 -55.101  15.177  1.00  0.00     0.010 C 
HETATM   11  C   UNL     1     -42.549 -52.580  14.950  1.00  0.00     0.006 C 
HETATM   12  C   UNL     1     -41.088 -52.364  15.351  1.00  0.00     0.025 C 
ENDBRANCH   3   6
ENDBRANCH   1   2
BRANCH   1  13
HETATM   13  N   UNL     1     -40.878 -49.519  11.593  1.00  0.00    -0.351 N 
HETATM   14  C   UNL     1     -41.341 -48.275  11.217  1.00  0.00     0.237 C 
HETATM   15  O   UNL     1     -40.579 -47.368  10.889  1.00  0.00    -0.272 OA
HETATM   16  H   UNL     1     -41.513 -50.310  11.590  1.00  0.00     0.163 HD
BRANCH  14  17
HETATM   17  C   UNL     1     -42.841 -48.100  11.280  1.00  0.00     0.252 C 
BRANCH  17  18
HETATM   18  N   UNL     1     -43.401 -47.812   9.981  1.00  0.00    -0.278 N 
HETATM   19  C   UNL     1     -44.645 -47.347   9.684  1.00  0.00     0.201 A 
HETATM   20  N   UNL     1     -44.789 -47.284   8.380  1.00  0.00    -0.346 N 
HETATM   21  C   UNL     1     -43.588 -47.740   7.915  1.00  0.00     0.198 A 
ATOM     22  HN  UNL     1     -45.600 -46.971   7.845  1.00  0.00     0.167 HD
HETATM   23  N   UNL     1     -42.708 -48.089   8.858  1.00  0.00    -0.293 N 
ATOM     24  HN  UNL     1     -41.765 -48.463   8.756  1.00  0.00     0.188 HD
ENDBRANCH  17  18
ENDBRANCH  14  17
ENDBRANCH   1  13
TORSDOF 5
ENDMDL
MODEL 3
REMARK VINA RESULT:      -6.0      1.961      2.481
REMARK  5 active torsions:
REMARK  status: ('A' for Active; 'I' for Inactive)
REMARK    1  A    between atoms: C_5  and  N_8 
REMARK       I    between atoms: N_8  and  C_9 
REMARK    2  A    between atoms: C_9  and  C_11 
REMARK    3  A    between atoms: C_11  and  N_12 
REMARK       I    between atoms: N_12  and  C_13 
REMARK    4  A    between atoms: C_13  and  C_15 
REMARK    5  A    between atoms: C_15  and  N_16 
ROOT
HETATM    1  C   UNL     1     -40.903 -51.581  11.796  1.00  0.00     0.225 C 
ENDROOT
BRANCH   1   2
HETATM    2  C   UNL     1     -41.803 -52.616  12.472  1.00  0.00     0.235 C 
HETATM    3  N   UNL     1     -43.127 -52.243  12.554  1.00  0.00    -0.355 N 
HETATM    4  H   UNL     1     -43.390 -51.332  12.187  1.00  0.00     0.162 HD
HETATM    5  O   UNL     1     -41.349 -53.645  12.966  1.00  0.00    -0.272 OA
BRANCH   3   6
HETATM    6  C   UNL     1     -44.161 -53.107  13.114  1.00  0.00     0.084 C 
HETATM    7  C   UNL     1     -45.543 -52.752  12.547  1.00  0.00     0.025 C 
HETATM    8  C   UNL     1     -46.079 -51.427  13.094  1.00  0.00     0.006 C 
HETATM    9  C   UNL     1     -46.088 -51.369  14.628  1.00  0.00    -0.019 C 
HETATM   10  C   UNL     1     -47.192 -52.248  15.222  1.00  0.00     0.010 C 
HETATM   11  C   UNL     1     -44.708 -51.730  15.195  1.00  0.00     0.006 C 
HETATM   12  C   UNL     1     -44.154 -53.045  14.645  1.00  0.00     0.025 C 
ENDBRANCH   3   6
ENDBRANCH   1   2
BRANCH   1  13
HETATM   13  N   UNL     1     -41.666 -50.407  11.409  1.00  0.00    -0.351 N 
HETATM   14  C   UNL     1     -41.048 -49.181  11.270  1.00  0.00     0.237 C 
HETATM   15  O   UNL     1     -39.852 -49.023  11.507  1.00  0.00    -0.272 OA
HETATM   16  H   UNL     1     -42.558 -50.570  10.955  1.00  0.00     0.163 HD
BRANCH  14  17
HETATM   17  C   UNL     1     -41.956 -48.047  10.850  1.00  0.00     0.252 C 
BRANCH  17  18
HETATM   18  N   UNL     1     -41.329 -46.760  11.044  1.00  0.00    -0.278 N 
HETATM   19  C   UNL     1     -41.731 -45.741  11.849  1.00  0.00     0.201 A 
HETATM   20  N   UNL     1     -40.928 -44.713  11.688  1.00  0.00    -0.346 N 
HETATM   21  C   UNL     1     -40.043 -45.159  10.748  1.00  0.00     0.198 A 
ATOM     22  HN  UNL     1     -40.959 -43.805  12.152  1.00  0.00     0.167 HD
HETATM   23  N   UNL     1     -40.254 -46.404  10.312  1.00  0.00    -0.293 N 
ATOM     24  HN  UNL     1     -39.740 -46.941   9.613  1.00  0.00     0.188 HD
ENDBRANCH  17  18
ENDBRANCH  14  17
ENDBRANCH   1  13
TORSDOF 5
ENDMDL
MODEL 4
REMARK VINA RESULT:      -5.9      3.883      4.758
REMARK  5 active torsions:
REMARK  status: ('A' for Active; 'I' for Inactive)
REMARK    1  A    between atoms: C_5  and  N_8 
REMARK       I    between atoms: N_8  and  C_9 
REMARK    2  A    between atoms: C_9  and  C_11 
REMARK    3  A    between atoms: C_11  and  N_12 
REMARK       I    between atoms: N_12  and  C_13 
REMARK    4  A    between atoms: C_13  and  C_15 
REMARK    5  A    between atoms: C_15  and  N_16 
ROOT
HETATM    1  C   UNL     1     -42.206 -54.362  13.680  1.00  0.00     0.225 C 
ENDROOT
BRANCH   1   2
HETATM    2  C   UNL     1     -43.401 -54.676  14.581  1.00  0.00     0.235 C 
HETATM    3  N   UNL     1     -44.388 -53.715  14.560  1.00  0.00    -0.355 N 
HETATM    4  H   UNL     1     -44.243 -52.892  13.981  1.00  0.00     0.162 HD
HETATM    5  O   UNL     1     -43.418 -55.661  15.312  1.00  0.00    -0.272 OA
BRANCH   3   6
HETATM    6  C   UNL     1     -45.635 -53.845  15.307  1.00  0.00     0.084 C 
HETATM    7  C   UNL     1     -46.794 -53.161  14.567  1.00  0.00     0.025 C 
HETATM    8  C   UNL     1     -46.699 -51.634  14.611  1.00  0.00     0.006 C 
HETATM    9  C   UNL     1     -46.559 -51.081  16.037  1.00  0.00    -0.019 C 
HETATM   10  C   UNL     1     -47.874 -51.184  16.816  1.00  0.00     0.010 C 
HETATM   11  C   UNL     1     -45.405 -51.769  16.778  1.00  0.00     0.006 C 
HETATM   12  C   UNL     1     -45.480 -53.297  16.729  1.00  0.00     0.025 C 
ENDBRANCH   3   6
ENDBRANCH   1   2
BRANCH   1  13
HETATM   13  N   UNL     1     -41.787 -52.980  13.839  1.00  0.00    -0.351 N 
HETATM   14  C   UNL     1     -40.498 -52.595  13.532  1.00  0.00     0.237 C 
HETATM   15  O   UNL     1     -39.648 -53.401  13.158  1.00  0.00    -0.272 OA
HETATM   16  H   UNL     1     -42.521 -52.281  13.874  1.00  0.00     0.163 HD
BRANCH  14  17
HETATM   17  C   UNL     1     -40.200 -51.126  13.731  1.00  0.00     0.252 C 
BRANCH  17  18
HETATM   18  N   UNL     1     -39.298 -50.622  12.722  1.00  0.00    -0.278 N 
HETATM   19  C   UNL     1     -39.604 -49.951  11.579  1.00  0.00     0.201 A 
HETATM   20  N   UNL     1     -38.505 -49.730  10.894  1.00  0.00    -0.346 N 
HETATM   21  C   UNL     1     -37.538 -50.305  11.669  1.00  0.00     0.198 A 
ATOM     22  HN  UNL     1     -38.399 -49.247  10.002  1.00  0.00     0.167 HD
HETATM   23  N   UNL     1     -37.976 -50.876  12.795  1.00  0.00    -0.293 N 
ATOM     24  HN  UNL     1     -37.451 -51.372  13.516  1.00  0.00     0.188 HD
ENDBRANCH  17  18
ENDBRANCH  14  17
ENDBRANCH   1  13
TORSDOF 5
ENDMDL
MODEL 5
REMARK VINA RESULT:      -5.8      3.945      5.324
REMARK  5 active torsions:
REMARK  status: ('A' for Active; 'I' for Inactive)
REMARK    1  A    between atoms: C_5  and  N_8 
REMARK       I    between atoms: N_8  and  C_9 
REMARK    2  A    between atoms: C_9  and  C_11 
REMARK    3  A    between atoms: C_11  and  N_12 
REMARK       I    between atoms: N_12  and  C_13 
REMARK    4  A    between atoms: C_13  and  C_15 
REMARK    5  A    between atoms: C_15  and  N_16 
ROOT
HETATM    1  C   UNL     1     -42.289 -54.042  16.611  1.00  0.00     0.225 C 
ENDROOT
BRANCH   1   2
HETATM    2  C   UNL     1     -43.466 -54.548  15.775  1.00  0.00     0.235 C 
HETATM    3  N   UNL     1     -44.420 -53.590  15.511  1.00  0.00    -0.355 N 
HETATM    4  H   UNL     1     -44.282 -52.659  15.894  1.00  0.00     0.162 HD
HETATM    5  O   UNL     1     -43.569 -55.727  15.451  1.00  0.00    -0.272 OA
BRANCH   3   6
HETATM    6  C   UNL     1     -45.596 -53.850  14.687  1.00  0.00     0.084 C 
HETATM    7  C   UNL     1     -45.214 -53.973  13.205  1.00  0.00     0.025 C 
HETATM    8  C   UNL     1     -44.833 -52.629  12.582  1.00  0.00     0.006 C 
HETATM    9  C   UNL     1     -45.907 -51.549  12.780  1.00  0.00    -0.019 C 
HETATM   10  C   UNL     1     -47.131 -51.797  11.894  1.00  0.00     0.010 C 
HETATM   11  C   UNL     1     -46.294 -51.429  14.261  1.00  0.00     0.006 C 
HETATM   12  C   UNL     1     -46.662 -52.770  14.899  1.00  0.00     0.025 C 
ENDBRANCH   3   6
ENDBRANCH   1   2
BRANCH   1  13
HETATM   13  N   UNL     1     -41.373 -53.262  15.797  1.00  0.00    -0.351 N 
HETATM   14  C   UNL     1     -40.286 -53.860  15.193  1.00  0.00     0.237 C 
HETATM   15  O   UNL     1     -40.025 -55.050  15.350  1.00  0.00    -0.272 OA
HETATM   16  H   UNL     1     -41.718 -52.378  15.442  1.00  0.00     0.163 HD
BRANCH  14  17
HETATM   17  C   UNL     1     -39.422 -52.936  14.364  1.00  0.00     0.252 C 
BRANCH  17  18
HETATM   18  N   UNL     1     -40.135 -52.424  13.217  1.00  0.00    -0.278 N 
HETATM   19  C   UNL     1     -40.823 -53.122  12.273  1.00  0.00     0.201 A 
HETATM   20  N   UNL     1     -41.268 -52.294  11.355  1.00  0.00    -0.346 N 
HETATM   21  C   UNL     1     -40.808 -51.081  11.785  1.00  0.00     0.198 A 
ATOM     22  HN  UNL     1     -41.822 -52.505  10.524  1.00  0.00     0.167 HD
HETATM   23  N   UNL     1     -40.097 -51.111  12.915  1.00  0.00    -0.293 N 
ATOM     24  HN  UNL     1     -39.647 -50.344  13.416  1.00  0.00     0.188 HD
ENDBRANCH  17  18
ENDBRANCH  14  17
ENDBRANCH   1  13
TORSDOF 5
ENDMDL
MODEL 6
REMARK VINA RESULT:      -5.7      2.530      3.080
REMARK  5 active torsions:
REMARK  status: ('A' for Active; 'I' for Inactive)
REMARK    1  A    between atoms: C_5  and  N_8 
REMARK       I    between atoms: N_8  and  C_9 
REMARK    2  A    between atoms: C_9  and  C_11 
REMARK    3  A    between atoms: C_11  and  N_12 
REMARK       I    between atoms: N_12  and  C_13 
REMARK    4  A    between atoms: C_13  and  C_15 
REMARK    5  A    between atoms: C_15  and  N_16 
ROOT
HETATM    1  C   UNL     1     -42.290 -49.974  12.784  1.00  0.00     0.225 C 
ENDROOT
BRANCH   1   2
HETATM    2  C   UNL     1     -41.573 -51.324  12.756  1.00  0.00     0.235 C 
HETATM    3  N   UNL     1     -41.797 -52.103  13.870  1.00  0.00    -0.355 N 
HETATM    4  H   UNL     1     -42.388 -51.725  14.607  1.00  0.00     0.162 HD
HETATM    5  O   UNL     1     -40.804 -51.629  11.849  1.00  0.00    -0.272 OA
BRANCH   3   6
HETATM    6  C   UNL     1     -41.250 -53.447  14.020  1.00  0.00     0.084 C 
HETATM    7  C   UNL     1     -42.334 -54.511  13.800  1.00  0.00     0.025 C 
HETATM    8  C   UNL     1     -43.334 -54.578  14.956  1.00  0.00     0.006 C 
HETATM    9  C   UNL     1     -42.660 -54.761  16.324  1.00  0.00    -0.019 C 
HETATM   10  C   UNL     1     -42.112 -56.180  16.501  1.00  0.00     0.010 C 
HETATM   11  C   UNL     1     -41.572 -53.701  16.541  1.00  0.00     0.006 C 
HETATM   12  C   UNL     1     -40.574 -53.613  15.385  1.00  0.00     0.025 C 
ENDBRANCH   3   6
ENDBRANCH   1   2
BRANCH   1  13
HETATM   13  N   UNL     1     -42.372 -49.403  11.451  1.00  0.00    -0.351 N 
HETATM   14  C   UNL     1     -42.821 -48.112  11.264  1.00  0.00     0.237 C 
HETATM   15  O   UNL     1     -43.207 -47.414  12.199  1.00  0.00    -0.272 OA
HETATM   16  H   UNL     1     -41.815 -49.847  10.729  1.00  0.00     0.163 HD
BRANCH  14  17
HETATM   17  C   UNL     1     -42.844 -47.640   9.827  1.00  0.00     0.252 C 
BRANCH  17  18
HETATM   18  N   UNL     1     -44.164 -47.216   9.425  1.00  0.00    -0.278 N 
HETATM   19  C   UNL     1     -44.535 -46.032   8.867  1.00  0.00     0.201 A 
HETATM   20  N   UNL     1     -45.839 -46.010   8.714  1.00  0.00    -0.346 N 
HETATM   21  C   UNL     1     -46.229 -47.220   9.214  1.00  0.00     0.198 A 
ATOM     22  HN  UNL     1     -46.420 -45.270   8.319  1.00  0.00     0.167 HD
HETATM   23  N   UNL     1     -45.239 -47.991   9.674  1.00  0.00    -0.293 N 
ATOM     24  HN  UNL     1     -45.285 -48.917  10.099  1.00  0.00     0.188 HD
ENDBRANCH  17  18
ENDBRANCH  14  17
ENDBRANCH   1  13
TORSDOF 5
ENDMDL
MODEL 7
REMARK VINA RESULT:      -5.5      2.441      6.312
REMARK  5 active torsions:
REMARK  status: ('A' for Active; 'I' for Inactive)
REMARK    1  A    between atoms: C_5  and  N_8 
REMARK       I    between atoms: N_8  and  C_9 
REMARK    2  A    between atoms: C_9  and  C_11 
REMARK    3  A    between atoms: C_11  and  N_12 
REMARK       I    between atoms: N_12  and  C_13 
REMARK    4  A    between atoms: C_13  and  C_15 
REMARK    5  A    between atoms: C_15  and  N_16 
ROOT
HETATM    1  C   UNL     1     -41.119 -52.389  11.823  1.00  0.00     0.225 C 
ENDROOT
BRANCH   1   2
HETATM    2  C   UNL     1     -40.446 -51.016  11.797  1.00  0.00     0.235 C 
HETATM    3  N   UNL     1     -41.249 -50.005  11.315  1.00  0.00    -0.355 N 
HETATM    4  H   UNL     1     -42.188 -50.246  11.009  1.00  0.00     0.162 HD
HETATM    5  O   UNL     1     -39.267 -50.868  12.104  1.00  0.00    -0.272 OA
BRANCH   3   6
HETATM    6  C   UNL     1     -40.819 -48.612  11.255  1.00  0.00     0.084 C 
HETATM    7  C   UNL     1     -40.660 -48.024  12.664  1.00  0.00     0.025 C 
HETATM    8  C   UNL     1     -42.004 -47.783  13.356  1.00  0.00     0.006 C 
HETATM    9  C   UNL     1     -42.969 -46.934  12.515  1.00  0.00    -0.019 C 
HETATM   10  C   UNL     1     -42.541 -45.464  12.475  1.00  0.00     0.010 C 
HETATM   11  C   UNL     1     -43.123 -47.519  11.105  1.00  0.00     0.006 C 
HETATM   12  C   UNL     1     -41.786 -47.778  10.408  1.00  0.00     0.025 C 
ENDBRANCH   3   6
ENDBRANCH   1   2
BRANCH   1  13
HETATM   13  N   UNL     1     -42.562 -52.256  11.918  1.00  0.00    -0.351 N 
HETATM   14  C   UNL     1     -43.194 -52.294  13.144  1.00  0.00     0.237 C 
HETATM   15  O   UNL     1     -42.577 -52.483  14.190  1.00  0.00    -0.272 OA
HETATM   16  H   UNL     1     -43.035 -51.834  11.126  1.00  0.00     0.163 HD
BRANCH  14  17
HETATM   17  C   UNL     1     -44.697 -52.130  13.099  1.00  0.00     0.252 C 
BRANCH  17  18
HETATM   18  N   UNL     1     -45.378 -53.328  13.531  1.00  0.00    -0.278 N 
HETATM   19  C   UNL     1     -46.518 -53.430  14.266  1.00  0.00     0.201 A 
HETATM   20  N   UNL     1     -46.771 -54.696  14.508  1.00  0.00    -0.346 N 
HETATM   21  C   UNL     1     -45.731 -55.340  13.898  1.00  0.00     0.198 A 
ATOM     22  HN  UNL     1     -47.552 -55.100  15.025  1.00  0.00     0.167 HD
HETATM   23  N   UNL     1     -44.844 -54.543  13.296  1.00  0.00    -0.293 N 
ATOM     24  HN  UNL     1     -43.991 -54.789  12.793  1.00  0.00     0.188 HD
ENDBRANCH  17  18
ENDBRANCH  14  17
ENDBRANCH   1  13
TORSDOF 5
ENDMDL
MODEL 8
REMARK VINA RESULT:      -5.5      2.498      3.376
REMARK  5 active torsions:
REMARK  status: ('A' for Active; 'I' for Inactive)
REMARK    1  A    between atoms: C_5  and  N_8 
REMARK       I    between atoms: N_8  and  C_9 
REMARK    2  A    between atoms: C_9  and  C_11 
REMARK    3  A    between atoms: C_11  and  N_12 
REMARK       I    between atoms: N_12  and  C_13 
REMARK    4  A    between atoms: C_13  and  C_15 
REMARK    5  A    between atoms: C_15  and  N_16 
ROOT
HETATM    1  C   UNL     1     -39.171 -52.130  14.482  1.00  0.00     0.225 C 
ENDROOT
BRANCH   1   2
HETATM    2  C   UNL     1     -39.959 -53.342  13.982  1.00  0.00     0.235 C 
HETATM    3  N   UNL     1     -41.325 -53.218  14.113  1.00  0.00    -0.355 N 
HETATM    4  H   UNL     1     -41.689 -52.368  14.534  1.00  0.00     0.162 HD
HETATM    5  O   UNL     1     -39.397 -54.357  13.581  1.00  0.00    -0.272 OA
BRANCH   3   6
HETATM    6  C   UNL     1     -42.260 -54.237  13.650  1.00  0.00     0.084 C 
HETATM    7  C   UNL     1     -43.385 -53.612  12.813  1.00  0.00     0.025 C 
HETATM    8  C   UNL     1     -44.374 -52.811  13.662  1.00  0.00     0.006 C 
HETATM    9  C   UNL     1     -44.951 -53.619  14.835  1.00  0.00    -0.019 C 
HETATM   10  C   UNL     1     -45.959 -54.668  14.359  1.00  0.00     0.010 C 
HETATM   11  C   UNL     1     -43.827 -54.248  15.668  1.00  0.00     0.006 C 
HETATM   12  C   UNL     1     -42.822 -55.040  14.829  1.00  0.00     0.025 C 
ENDBRANCH   3   6
ENDBRANCH   1   2
BRANCH   1  13
HETATM   13  N   UNL     1     -38.793 -51.267  13.377  1.00  0.00    -0.351 N 
HETATM   14  C   UNL     1     -39.647 -50.279  12.931  1.00  0.00     0.237 C 
HETATM   15  O   UNL     1     -40.766 -50.118  13.414  1.00  0.00    -0.272 OA
HETATM   16  H   UNL     1     -37.803 -51.204  13.164  1.00  0.00     0.163 HD
BRANCH  14  17
HETATM   17  C   UNL     1     -39.123 -49.445  11.784  1.00  0.00     0.252 C 
BRANCH  17  18
HETATM   18  N   UNL     1     -40.149 -48.593  11.230  1.00  0.00    -0.278 N 
HETATM   19  C   UNL     1     -40.331 -47.259  11.422  1.00  0.00     0.201 A 
HETATM   20  N   UNL     1     -41.420 -46.871  10.799  1.00  0.00    -0.346 N 
HETATM   21  C   UNL     1     -41.884 -48.029  10.241  1.00  0.00     0.198 A 
ATOM     22  HN  UNL     1     -41.822 -45.935  10.746  1.00  0.00     0.167 HD
HETATM   23  N   UNL     1     -41.146 -49.115  10.487  1.00  0.00    -0.293 N 
ATOM     24  HN  UNL     1     -41.297 -50.079  10.191  1.00  0.00     0.188 HD
ENDBRANCH  17  18
ENDBRANCH  14  17
ENDBRANCH   1  13
TORSDOF 5
ENDMDL
MODEL 9
REMARK VINA RESULT:      -5.3     13.395     14.455
REMARK  5 active torsions:
REMARK  status: ('A' for Active; 'I' for Inactive)
REMARK    1  A    between atoms: C_5  and  N_8 
REMARK       I    between atoms: N_8  and  C_9 
REMARK    2  A    between atoms: C_9  and  C_11 
REMARK    3  A    between atoms: C_11  and  N_12 
REMARK       I    between atoms: N_12  and  C_13 
REMARK    4  A    between atoms: C_13  and  C_15 
REMARK    5  A    between atoms: C_15  and  N_16 
ROOT
HETATM    1  C   UNL     1     -47.484 -49.838  -2.682  1.00  0.00     0.225 C 
ENDROOT
BRANCH   1   2
HETATM    2  C   UNL     1     -47.858 -50.857  -1.605  1.00  0.00     0.235 C 
HETATM    3  N   UNL     1     -48.929 -51.659  -1.936  1.00  0.00    -0.355 N 
HETATM    4  H   UNL     1     -49.382 -51.504  -2.833  1.00  0.00     0.162 HD
HETATM    5  O   UNL     1     -47.294 -50.882  -0.514  1.00  0.00    -0.272 OA
BRANCH   3   6
HETATM    6  C   UNL     1     -49.414 -52.729  -1.072  1.00  0.00     0.084 C 
HETATM    7  C   UNL     1     -49.933 -53.913  -1.900  1.00  0.00     0.025 C 
HETATM    8  C   UNL     1     -51.261 -53.607  -2.595  1.00  0.00     0.006 C 
HETATM    9  C   UNL     1     -52.343 -53.102  -1.630  1.00  0.00    -0.019 C 
HETATM   10  C   UNL     1     -52.880 -54.227  -0.742  1.00  0.00     0.010 C 
HETATM   11  C   UNL     1     -51.822 -51.922  -0.798  1.00  0.00     0.006 C 
HETATM   12  C   UNL     1     -50.487 -52.210  -0.109  1.00  0.00     0.025 C 
ENDBRANCH   3   6
ENDBRANCH   1   2
BRANCH   1  13
HETATM   13  N   UNL     1     -47.056 -48.586  -2.084  1.00  0.00    -0.351 N 
HETATM   14  C   UNL     1     -45.777 -48.109  -2.287  1.00  0.00     0.237 C 
HETATM   15  O   UNL     1     -44.943 -48.737  -2.936  1.00  0.00    -0.272 OA
HETATM   16  H   UNL     1     -47.787 -47.945  -1.793  1.00  0.00     0.163 HD
BRANCH  14  17
HETATM   17  C   UNL     1     -45.469 -46.789  -1.618  1.00  0.00     0.252 C 
BRANCH  17  18
HETATM   18  N   UNL     1     -44.054 -46.500  -1.633  1.00  0.00    -0.278 N 
HETATM   19  C   UNL     1     -43.415 -45.448  -2.211  1.00  0.00     0.201 A 
HETATM   20  N   UNL     1     -42.118 -45.586  -2.060  1.00  0.00    -0.346 N 
HETATM   21  C   UNL     1     -42.011 -46.766  -1.380  1.00  0.00     0.198 A 
ATOM     22  HN  UNL     1     -41.372 -44.965  -2.374  1.00  0.00     0.167 HD
HETATM   23  N   UNL     1     -43.170 -47.371  -1.105  1.00  0.00    -0.293 N 
ATOM     24  HN  UNL     1     -43.340 -48.255  -0.625  1.00  0.00     0.188 HD
ENDBRANCH  17  18
ENDBRANCH  14  17
ENDBRANCH   1  13
TORSDOF 5
ENDMDL
