MODEL 1
REMARK VINA RESULT:      -7.1      0.000      0.000
REMARK  4 active torsions:
REMARK  status: ('A' for Active; 'I' for Inactive)
REMARK    1  A    between atoms: C_5  and  N_6 
REMARK       I    between atoms: N_6  and  C_7 
REMARK       I    between atoms: C_7  and  N_9 
REMARK    2  A    between atoms: N_9  and  C_10 
REMARK    3  A    between atoms: C_10  and  C_11 
REMARK    4  A    between atoms: N_13  and  C_14 
ROOT
HETATM    1  N   UNL     1     -40.862 -48.676  10.694  1.00  0.00    -0.295 N 
HETATM    2  C   UNL     1     -40.551 -49.859  11.296  1.00  0.00     0.321 C 
HETATM    3  O   UNL     1     -39.382 -50.117  11.575  1.00  0.00    -0.247 OA
HETATM    4  N   UNL     1     -41.582 -50.705  11.561  1.00  0.00    -0.342 N 
HETATM    5  H   UNL     1     -40.058 -48.089  10.531  1.00  0.00     0.172 HD
HETATM    6  H   UNL     1     -42.487 -50.403  11.203  1.00  0.00     0.164 HD
ENDROOT
BRANCH   1   7
HETATM    7  C   UNL     1     -42.115 -48.227  10.264  1.00  0.00     0.108 A 
HETATM    8  C   UNL     1     -43.062 -47.892  11.224  1.00  0.00     0.049 A 
HETATM    9  C   UNL     1     -44.300 -47.401  10.806  1.00  0.00     0.012 A 
HETATM   10  C   UNL     1     -44.563 -47.257   9.444  1.00  0.00    -0.046 A 
HETATM   11  C   UNL     1     -45.854 -46.708   8.926  1.00  0.00     0.049 C 
HETATM   12  C   UNL     1     -43.568 -47.644   8.560  1.00  0.00     0.096 A 
HETATM   13  N   UNL     1     -42.363 -48.117   8.939  1.00  0.00    -0.352 N 
ATOM     14  HN  UNL     1     -41.661 -48.383   8.249  1.00  0.00     0.166 HD
ENDBRANCH   1   7
BRANCH   4  15
HETATM   15  C   UNL     1     -41.406 -52.011  12.134  1.00  0.00     0.131 C 
BRANCH  15  16
HETATM   16  C   UNL     1     -42.727 -52.731  12.374  1.00  0.00     0.030 C 
HETATM   17  C   UNL     1     -43.686 -51.858  13.169  1.00  0.00     0.133 C 
HETATM   18  N   UNL     1     -44.518 -52.794  13.876  1.00  0.00    -0.347 N 
HETATM   19  C   UNL     1     -43.900 -54.040  13.998  1.00  0.00     0.220 C 
HETATM   20  O   UNL     1     -44.278 -54.985  14.673  1.00  0.00    -0.273 OA
HETATM   21  C   UNL     1     -42.602 -53.996  13.228  1.00  0.00     0.110 C 
BRANCH  18  22
HETATM   22  C   UNL     1     -45.493 -52.344  14.822  1.00  0.00     0.087 A 
HETATM   23  C   UNL     1     -46.892 -52.895  14.801  1.00  0.00     0.027 A 
HETATM   24  C   UNL     1     -46.650 -51.460  14.439  1.00  0.00     0.027 A 
ENDBRANCH  18  22
ENDBRANCH  15  16
ENDBRANCH   4  15
TORSDOF 4
ENDMDL
MODEL 2
REMARK VINA RESULT:      -6.9      2.439      6.601
REMARK  4 active torsions:
REMARK  status: ('A' for Active; 'I' for Inactive)
REMARK    1  A    between atoms: C_5  and  N_6 
REMARK       I    between atoms: N_6  and  C_7 
REMARK       I    between atoms: C_7  and  N_9 
REMARK    2  A    between atoms: N_9  and  C_10 
REMARK    3  A    between atoms: C_10  and  C_11 
REMARK    4  A    between atoms: N_13  and  C_14 
ROOT
HETATM    1  N   UNL     1     -40.885 -51.694  11.445  1.00  0.00    -0.295 N 
HETATM    2  C   UNL     1     -40.618 -50.381  11.697  1.00  0.00     0.321 C 
HETATM    3  O   UNL     1     -39.765 -49.790  11.038  1.00  0.00    -0.247 OA
HETATM    4  N   UNL     1     -41.334 -49.787  12.689  1.00  0.00    -0.342 N 
HETATM    5  H   UNL     1     -40.329 -52.076  10.696  1.00  0.00     0.172 HD
HETATM    6  H   UNL     1     -41.948 -50.412  13.209  1.00  0.00     0.164 HD
ENDROOT
BRANCH   1   7
HETATM    7  C   UNL     1     -41.779 -52.539  12.112  1.00  0.00     0.108 A 
HETATM    8  C   UNL     1     -41.293 -53.332  13.144  1.00  0.00     0.049 A 
HETATM    9  C   UNL     1     -42.186 -54.146  13.844  1.00  0.00     0.012 A 
HETATM   10  C   UNL     1     -43.537 -54.149  13.498  1.00  0.00    -0.046 A 
HETATM   11  C   UNL     1     -44.554 -54.970  14.224  1.00  0.00     0.049 C 
HETATM   12  C   UNL     1     -43.923 -53.346  12.436  1.00  0.00     0.096 A 
HETATM   13  N   UNL     1     -43.081 -52.548  11.747  1.00  0.00    -0.352 N 
ATOM     14  HN  UNL     1     -43.415 -51.970  10.976  1.00  0.00     0.166 HD
ENDBRANCH   1   7
BRANCH   4  15
HETATM   15  C   UNL     1     -41.124 -48.429  13.111  1.00  0.00     0.131 C 
BRANCH  15  16
HETATM   16  C   UNL     1     -42.168 -47.470  12.551  1.00  0.00     0.030 C 
HETATM   17  C   UNL     1     -43.012 -48.149  11.483  1.00  0.00     0.133 C 
HETATM   18  N   UNL     1     -43.426 -47.077  10.619  1.00  0.00    -0.347 N 
HETATM   19  C   UNL     1     -42.577 -45.974  10.730  1.00  0.00     0.220 C 
HETATM   20  O   UNL     1     -42.570 -44.978  10.022  1.00  0.00    -0.273 OA
HETATM   21  C   UNL     1     -41.577 -46.260  11.824  1.00  0.00     0.110 C 
BRANCH  18  22
HETATM   22  C   UNL     1     -44.165 -47.338   9.422  1.00  0.00     0.087 A 
HETATM   23  C   UNL     1     -45.161 -46.338   8.903  1.00  0.00     0.027 A 
HETATM   24  C   UNL     1     -45.636 -47.659   9.429  1.00  0.00     0.027 A 
ENDBRANCH  18  22
ENDBRANCH  15  16
ENDBRANCH   4  15
TORSDOF 4
ENDMDL
MODEL 3
REMARK VINA RESULT:      -6.7      2.457      3.487
REMARK  4 active torsions:
REMARK  status: ('A' for Active; 'I' for Inactive)
REMARK    1  A    between atoms: C_5  and  N_6 
REMARK       I    between atoms: N_6  and  C_7 
REMARK       I    between atoms: C_7  and  N_9 
REMARK    2  A    between atoms: N_9  and  C_10 
REMARK    3  A    between atoms: C_10  and  C_11 
REMARK    4  A    between atoms: N_13  and  C_14 
ROOT
HETATM    1  N   UNL     1     -41.983 -46.117   9.753  1.00  0.00    -0.295 N 
HETATM    2  C   UNL     1     -40.938 -46.572  10.502  1.00  0.00     0.321 C 
HETATM    3  O   UNL     1     -40.026 -45.808  10.811  1.00  0.00    -0.247 OA
HETATM    4  N   UNL     1     -40.970 -47.880  10.873  1.00  0.00    -0.342 N 
HETATM    5  H   UNL     1     -41.907 -45.140   9.516  1.00  0.00     0.172 HD
HETATM    6  H   UNL     1     -41.740 -48.419  10.480  1.00  0.00     0.164 HD
ENDROOT
BRANCH   1   7
HETATM    7  C   UNL     1     -43.080 -46.839   9.270  1.00  0.00     0.108 A 
HETATM    8  C   UNL     1     -44.228 -46.897  10.051  1.00  0.00     0.049 A 
HETATM    9  C   UNL     1     -45.343 -47.577   9.558  1.00  0.00     0.012 A 
HETATM   10  C   UNL     1     -45.286 -48.181   8.301  1.00  0.00    -0.046 A 
HETATM   11  C   UNL     1     -46.451 -48.897   7.698  1.00  0.00     0.049 C 
HETATM   12  C   UNL     1     -44.089 -48.093   7.608  1.00  0.00     0.096 A 
HETATM   13  N   UNL     1     -43.000 -47.439   8.061  1.00  0.00    -0.352 N 
ATOM     14  HN  UNL     1     -42.143 -47.398   7.509  1.00  0.00     0.166 HD
ENDBRANCH   1   7
BRANCH   4  15
HETATM   15  C   UNL     1     -39.914 -48.519  11.609  1.00  0.00     0.131 C 
BRANCH  15  16
HETATM   16  C   UNL     1     -40.019 -50.039  11.589  1.00  0.00     0.030 C 
HETATM   17  C   UNL     1     -41.382 -50.496  12.086  1.00  0.00     0.133 C 
HETATM   18  N   UNL     1     -41.139 -51.799  12.645  1.00  0.00    -0.347 N 
HETATM   19  C   UNL     1     -39.796 -51.968  12.986  1.00  0.00     0.220 C 
HETATM   20  O   UNL     1     -39.309 -52.894  13.617  1.00  0.00    -0.273 OA
HETATM   21  C   UNL     1     -39.039 -50.745  12.529  1.00  0.00     0.110 C 
BRANCH  18  22
HETATM   22  C   UNL     1     -42.180 -52.520  13.312  1.00  0.00     0.087 A 
HETATM   23  C   UNL     1     -42.272 -54.016  13.196  1.00  0.00     0.027 A 
HETATM   24  C   UNL     1     -43.331 -53.153  12.577  1.00  0.00     0.027 A 
ENDBRANCH  18  22
ENDBRANCH  15  16
ENDBRANCH   4  15
TORSDOF 4
ENDMDL
MODEL 4
REMARK VINA RESULT:      -6.7      1.788      2.300
REMARK  4 active torsions:
REMARK  status: ('A' for Active; 'I' for Inactive)
REMARK    1  A    between atoms: C_5  and  N_6 
REMARK       I    between atoms: N_6  and  C_7 
REMARK       I    between atoms: C_7  and  N_9 
REMARK    2  A    between atoms: N_9  and  C_10 
REMARK    3  A    between atoms: C_10  and  C_11 
REMARK    4  A    between atoms: N_13  and  C_14 
ROOT
HETATM    1  N   UNL     1     -39.247 -50.205  11.937  1.00  0.00    -0.295 N 
HETATM    2  C   UNL     1     -39.556 -51.260  12.744  1.00  0.00     0.321 C 
HETATM    3  O   UNL     1     -38.732 -52.152  12.932  1.00  0.00    -0.247 OA
HETATM    4  N   UNL     1     -40.792 -51.259  13.311  1.00  0.00    -0.342 N 
HETATM    5  H   UNL     1     -38.316 -50.258  11.554  1.00  0.00     0.172 HD
HETATM    6  H   UNL     1     -41.404 -50.504  13.006  1.00  0.00     0.164 HD
ENDROOT
BRANCH   1   7
HETATM    7  C   UNL     1     -40.060 -49.127  11.572  1.00  0.00     0.108 A 
HETATM    8  C   UNL     1     -39.857 -47.905  12.200  1.00  0.00     0.049 A 
HETATM    9  C   UNL     1     -40.634 -46.811  11.811  1.00  0.00     0.012 A 
HETATM   10  C   UNL     1     -41.592 -46.965  10.808  1.00  0.00    -0.046 A 
HETATM   11  C   UNL     1     -42.435 -45.831  10.320  1.00  0.00     0.049 C 
HETATM   12  C   UNL     1     -41.741 -48.229  10.260  1.00  0.00     0.096 A 
HETATM   13  N   UNL     1     -41.000 -49.299  10.616  1.00  0.00    -0.352 N 
ATOM     14  HN  UNL     1     -41.145 -50.209  10.178  1.00  0.00     0.166 HD
ENDBRANCH   1   7
BRANCH   4  15
HETATM   15  C   UNL     1     -41.285 -52.330  14.133  1.00  0.00     0.131 C 
BRANCH  15  16
HETATM   16  C   UNL     1     -42.395 -53.127  13.457  1.00  0.00     0.030 C 
HETATM   17  C   UNL     1     -43.659 -52.292  13.321  1.00  0.00     0.133 C 
HETATM   18  N   UNL     1     -44.727 -53.254  13.334  1.00  0.00    -0.347 N 
HETATM   19  C   UNL     1     -44.330 -54.452  13.933  1.00  0.00     0.220 C 
HETATM   20  O   UNL     1     -45.045 -55.396  14.233  1.00  0.00    -0.273 OA
HETATM   21  C   UNL     1     -42.859 -54.350  14.253  1.00  0.00     0.110 C 
BRANCH  18  22
HETATM   22  C   UNL     1     -46.095 -52.837  13.326  1.00  0.00     0.087 A 
HETATM   23  C   UNL     1     -46.509 -51.580  12.612  1.00  0.00     0.027 A 
HETATM   24  C   UNL     1     -46.587 -51.648  14.107  1.00  0.00     0.027 A 
ENDBRANCH  18  22
ENDBRANCH  15  16
ENDBRANCH   4  15
TORSDOF 4
ENDMDL
MODEL 5
REMARK VINA RESULT:      -6.3      1.950      6.510
REMARK  4 active torsions:
REMARK  status: ('A' for Active; 'I' for Inactive)
REMARK    1  A    between atoms: C_5  and  N_6 
REMARK       I    between atoms: N_6  and  C_7 
REMARK       I    between atoms: C_7  and  N_9 
REMARK    2  A    between atoms: N_9  and  C_10 
REMARK    3  A    between atoms: C_10  and  C_11 
REMARK    4  A    between atoms: N_13  and  C_14 
ROOT
HETATM    1  N   UNL     1     -41.480 -52.499  13.111  1.00  0.00    -0.295 N 
HETATM    2  C   UNL     1     -40.581 -51.612  12.596  1.00  0.00     0.321 C 
HETATM    3  O   UNL     1     -39.430 -51.971  12.359  1.00  0.00    -0.247 OA
HETATM    4  N   UNL     1     -41.027 -50.348  12.365  1.00  0.00    -0.342 N 
HETATM    5  H   UNL     1     -41.093 -53.419  13.253  1.00  0.00     0.172 HD
HETATM    6  H   UNL     1     -41.978 -50.163  12.683  1.00  0.00     0.164 HD
ENDROOT
BRANCH   1   7
HETATM    7  C   UNL     1     -42.808 -52.267  13.484  1.00  0.00     0.108 A 
HETATM    8  C   UNL     1     -43.068 -51.870  14.789  1.00  0.00     0.049 A 
HETATM    9  C   UNL     1     -44.386 -51.594  15.159  1.00  0.00     0.012 A 
HETATM   10  C   UNL     1     -45.409 -51.721  14.219  1.00  0.00    -0.046 A 
HETATM   11  C   UNL     1     -46.837 -51.411  14.535  1.00  0.00     0.049 C 
HETATM   12  C   UNL     1     -45.056 -52.150  12.949  1.00  0.00     0.096 A 
HETATM   13  N   UNL     1     -43.791 -52.419  12.567  1.00  0.00    -0.352 N 
ATOM     14  HN  UNL     1     -43.581 -52.727  11.617  1.00  0.00     0.166 HD
ENDBRANCH   1   7
BRANCH   4  15
HETATM   15  C   UNL     1     -40.184 -49.288  11.883  1.00  0.00     0.131 C 
BRANCH  15  16
HETATM   16  C   UNL     1     -40.907 -47.948  11.811  1.00  0.00     0.030 C 
HETATM   17  C   UNL     1     -42.146 -48.045  10.934  1.00  0.00     0.133 C 
HETATM   18  N   UNL     1     -42.320 -46.716  10.413  1.00  0.00    -0.347 N 
HETATM   19  C   UNL     1     -41.128 -45.990  10.455  1.00  0.00     0.220 C 
HETATM   20  O   UNL     1     -40.914 -44.899   9.949  1.00  0.00    -0.273 OA
HETATM   21  C   UNL     1     -40.090 -46.833  11.154  1.00  0.00     0.110 C 
BRANCH  18  22
HETATM   22  C   UNL     1     -43.340 -46.429   9.452  1.00  0.00     0.087 A 
HETATM   23  C   UNL     1     -44.575 -47.282   9.367  1.00  0.00     0.027 A 
HETATM   24  C   UNL     1     -43.584 -47.291   8.243  1.00  0.00     0.027 A 
ENDBRANCH  18  22
ENDBRANCH  15  16
ENDBRANCH   4  15
TORSDOF 4
ENDMDL
MODEL 6
REMARK VINA RESULT:      -6.1      1.580      1.925
REMARK  4 active torsions:
REMARK  status: ('A' for Active; 'I' for Inactive)
REMARK    1  A    between atoms: C_5  and  N_6 
REMARK       I    between atoms: N_6  and  C_7 
REMARK       I    between atoms: C_7  and  N_9 
REMARK    2  A    between atoms: N_9  and  C_10 
REMARK    3  A    between atoms: C_10  and  C_11 
REMARK    4  A    between atoms: N_13  and  C_14 
ROOT
HETATM    1  N   UNL     1     -40.962 -50.038  12.397  1.00  0.00    -0.295 N 
HETATM    2  C   UNL     1     -41.333 -51.335  12.593  1.00  0.00     0.321 C 
HETATM    3  O   UNL     1     -40.588 -52.101  13.200  1.00  0.00    -0.247 OA
HETATM    4  N   UNL     1     -42.540 -51.712  12.095  1.00  0.00    -0.342 N 
HETATM    5  H   UNL     1     -40.062 -49.817  12.795  1.00  0.00     0.172 HD
HETATM    6  H   UNL     1     -43.018 -51.001  11.543  1.00  0.00     0.164 HD
ENDROOT
BRANCH   1   7
HETATM    7  C   UNL     1     -41.648 -49.037  11.700  1.00  0.00     0.108 A 
HETATM    8  C   UNL     1     -42.484 -48.190  12.415  1.00  0.00     0.049 A 
HETATM    9  C   UNL     1     -43.139 -47.160  11.736  1.00  0.00     0.012 A 
HETATM   10  C   UNL     1     -42.944 -47.003  10.363  1.00  0.00    -0.046 A 
HETATM   11  C   UNL     1     -43.587 -45.905   9.579  1.00  0.00     0.049 C 
HETATM   12  C   UNL     1     -42.113 -47.914   9.731  1.00  0.00     0.096 A 
HETATM   13  N   UNL     1     -41.467 -48.914  10.365  1.00  0.00    -0.352 N 
ATOM     14  HN  UNL     1     -40.860 -49.556   9.855  1.00  0.00     0.166 HD
ENDBRANCH   1   7
BRANCH   4  15
HETATM   15  C   UNL     1     -43.040 -53.057  12.169  1.00  0.00     0.131 C 
BRANCH  15  16
HETATM   16  C   UNL     1     -44.474 -53.125  12.682  1.00  0.00     0.030 C 
HETATM   17  C   UNL     1     -44.657 -52.235  13.902  1.00  0.00     0.133 C 
HETATM   18  N   UNL     1     -45.718 -52.860  14.645  1.00  0.00    -0.347 N 
HETATM   19  C   UNL     1     -45.850 -54.210  14.311  1.00  0.00     0.220 C 
HETATM   20  O   UNL     1     -46.547 -55.041  14.873  1.00  0.00    -0.273 OA
HETATM   21  C   UNL     1     -44.893 -54.509  13.183  1.00  0.00     0.110 C 
BRANCH  18  22
HETATM   22  C   UNL     1     -46.114 -52.362  15.926  1.00  0.00     0.087 A 
HETATM   23  C   UNL     1     -47.405 -51.609  16.090  1.00  0.00     0.027 A 
HETATM   24  C   UNL     1     -46.098 -50.896  16.268  1.00  0.00     0.027 A 
ENDBRANCH  18  22
ENDBRANCH  15  16
ENDBRANCH   4  15
TORSDOF 4
ENDMDL
MODEL 7
REMARK VINA RESULT:      -5.9      3.340      4.099
REMARK  4 active torsions:
REMARK  status: ('A' for Active; 'I' for Inactive)
REMARK    1  A    between atoms: C_5  and  N_6 
REMARK       I    between atoms: N_6  and  C_7 
REMARK       I    between atoms: C_7  and  N_9 
REMARK    2  A    between atoms: N_9  and  C_10 
REMARK    3  A    between atoms: C_10  and  C_11 
REMARK    4  A    between atoms: N_13  and  C_14 
ROOT
HETATM    1  N   UNL     1     -38.670 -51.799  14.198  1.00  0.00    -0.295 N 
HETATM    2  C   UNL     1     -39.325 -52.990  14.083  1.00  0.00     0.321 C 
HETATM    3  O   UNL     1     -38.933 -53.969  14.714  1.00  0.00    -0.247 OA
HETATM    4  N   UNL     1     -40.404 -53.021  13.257  1.00  0.00    -0.342 N 
HETATM    5  H   UNL     1     -37.884 -51.837  14.829  1.00  0.00     0.172 HD
HETATM    6  H   UNL     1     -40.569 -52.162  12.734  1.00  0.00     0.164 HD
ENDROOT
BRANCH   1   7
HETATM    7  C   UNL     1     -38.936 -50.597  13.534  1.00  0.00     0.108 A 
HETATM    8  C   UNL     1     -38.225 -50.311  12.375  1.00  0.00     0.049 A 
HETATM    9  C   UNL     1     -38.515 -49.135  11.681  1.00  0.00     0.012 A 
HETATM   10  C   UNL     1     -39.504 -48.275  12.159  1.00  0.00    -0.046 A 
HETATM   11  C   UNL     1     -39.888 -47.016  11.450  1.00  0.00     0.049 C 
HETATM   12  C   UNL     1     -40.140 -48.631  13.337  1.00  0.00     0.096 A 
HETATM   13  N   UNL     1     -39.881 -49.762  14.024  1.00  0.00    -0.352 N 
ATOM     14  HN  UNL     1     -40.381 -49.982  14.886  1.00  0.00     0.166 HD
ENDBRANCH   1   7
BRANCH   4  15
HETATM   15  C   UNL     1     -41.158 -54.214  12.986  1.00  0.00     0.131 C 
BRANCH  15  16
HETATM   16  C   UNL     1     -42.588 -54.138  13.506  1.00  0.00     0.030 C 
HETATM   17  C   UNL     1     -43.354 -53.013  12.825  1.00  0.00     0.133 C 
HETATM   18  N   UNL     1     -44.340 -52.615  13.794  1.00  0.00    -0.347 N 
HETATM   19  C   UNL     1     -43.967 -52.987  15.087  1.00  0.00     0.220 C 
HETATM   20  O   UNL     1     -44.509 -52.659  16.131  1.00  0.00    -0.273 OA
HETATM   21  C   UNL     1     -42.695 -53.794  14.994  1.00  0.00     0.110 C 
BRANCH  18  22
HETATM   22  C   UNL     1     -45.200 -51.498  13.553  1.00  0.00     0.087 A 
HETATM   23  C   UNL     1     -46.580 -51.450  14.149  1.00  0.00     0.027 A 
HETATM   24  C   UNL     1     -46.413 -51.582  12.665  1.00  0.00     0.027 A 
ENDBRANCH  18  22
ENDBRANCH  15  16
ENDBRANCH   4  15
TORSDOF 4
ENDMDL
MODEL 8
REMARK VINA RESULT:      -5.9      3.791      5.859
REMARK  4 active torsions:
REMARK  status: ('A' for Active; 'I' for Inactive)
REMARK    1  A    between atoms: C_5  and  N_6 
REMARK       I    between atoms: N_6  and  C_7 
REMARK       I    between atoms: C_7  and  N_9 
REMARK    2  A    between atoms: N_9  and  C_10 
REMARK    3  A    between atoms: C_10  and  C_11 
REMARK    4  A    between atoms: N_13  and  C_14 
ROOT
HETATM    1  N   UNL     1     -43.821 -53.099  12.020  1.00  0.00    -0.295 N 
HETATM    2  C   UNL     1     -45.027 -52.717  12.530  1.00  0.00     0.321 C 
HETATM    3  O   UNL     1     -46.067 -53.148  12.035  1.00  0.00    -0.247 OA
HETATM    4  N   UNL     1     -45.005 -51.862  13.586  1.00  0.00    -0.342 N 
HETATM    5  H   UNL     1     -43.902 -53.739  11.244  1.00  0.00     0.172 HD
HETATM    6  H   UNL     1     -44.080 -51.520  13.843  1.00  0.00     0.164 HD
ENDROOT
BRANCH   1   7
HETATM    7  C   UNL     1     -42.544 -52.687  12.415  1.00  0.00     0.108 A 
HETATM    8  C   UNL     1     -41.849 -53.473  13.325  1.00  0.00     0.049 A 
HETATM    9  C   UNL     1     -40.556 -53.094  13.692  1.00  0.00     0.012 A 
HETATM   10  C   UNL     1     -39.991 -51.942  13.145  1.00  0.00    -0.046 A 
HETATM   11  C   UNL     1     -38.602 -51.493  13.468  1.00  0.00     0.049 C 
HETATM   12  C   UNL     1     -40.772 -51.206  12.268  1.00  0.00     0.096 A 
HETATM   13  N   UNL     1     -42.021 -51.554  11.894  1.00  0.00    -0.352 N 
ATOM     14  HN  UNL     1     -42.554 -50.981  11.239  1.00  0.00     0.166 HD
ENDBRANCH   1   7
BRANCH   4  15
HETATM   15  C   UNL     1     -46.192 -51.323  14.191  1.00  0.00     0.131 C 
BRANCH  15  16
HETATM   16  C   UNL     1     -46.138 -51.344  15.714  1.00  0.00     0.030 C 
HETATM   17  C   UNL     1     -45.616 -52.680  16.221  1.00  0.00     0.133 C 
HETATM   18  N   UNL     1     -46.221 -52.831  17.517  1.00  0.00    -0.347 N 
HETATM   19  C   UNL     1     -47.370 -52.047  17.641  1.00  0.00     0.220 C 
HETATM   20  O   UNL     1     -48.184 -52.074  18.551  1.00  0.00    -0.273 OA
HETATM   21  C   UNL     1     -47.505 -51.214  16.390  1.00  0.00     0.110 C 
BRANCH  18  22
HETATM   22  C   UNL     1     -46.046 -54.031  18.276  1.00  0.00     0.087 A 
HETATM   23  C   UNL     1     -45.710 -53.970  19.741  1.00  0.00     0.027 A 
HETATM   24  C   UNL     1     -44.700 -54.495  18.765  1.00  0.00     0.027 A 
ENDBRANCH  18  22
ENDBRANCH  15  16
ENDBRANCH   4  15
TORSDOF 4
ENDMDL
MODEL 9
REMARK VINA RESULT:      -5.9      3.006      6.568
REMARK  4 active torsions:
REMARK  status: ('A' for Active; 'I' for Inactive)
REMARK    1  A    between atoms: C_5  and  N_6 
REMARK       I    between atoms: N_6  and  C_7 
REMARK       I    between atoms: C_7  and  N_9 
REMARK    2  A    between atoms: N_9  and  C_10 
REMARK    3  A    between atoms: C_10  and  C_11 
REMARK    4  A    between atoms: N_13  and  C_14 
ROOT
HETATM    1  N   UNL     1     -41.095 -54.412  13.175  1.00  0.00    -0.295 N 
HETATM    2  C   UNL     1     -39.996 -53.826  13.731  1.00  0.00     0.321 C 
HETATM    3  O   UNL     1     -38.887 -54.331  13.576  1.00  0.00    -0.247 OA
HETATM    4  N   UNL     1     -40.200 -52.684  14.440  1.00  0.00    -0.342 N 
HETATM    5  H   UNL     1     -40.880 -55.249  12.656  1.00  0.00     0.172 HD
HETATM    6  H   UNL     1     -41.178 -52.421  14.559  1.00  0.00     0.164 HD
ENDROOT
BRANCH   1   7
HETATM    7  C   UNL     1     -42.433 -54.014  13.276  1.00  0.00     0.108 A 
HETATM    8  C   UNL     1     -43.173 -54.458  14.364  1.00  0.00     0.049 A 
HETATM    9  C   UNL     1     -44.496 -54.030  14.498  1.00  0.00     0.012 A 
HETATM   10  C   UNL     1     -45.045 -53.173  13.545  1.00  0.00    -0.046 A 
HETATM   11  C   UNL     1     -46.443 -52.651  13.641  1.00  0.00     0.049 C 
HETATM   12  C   UNL     1     -44.239 -52.807  12.479  1.00  0.00     0.096 A 
HETATM   13  N   UNL     1     -42.958 -53.203  12.330  1.00  0.00    -0.352 N 
ATOM     14  HN  UNL     1     -42.403 -52.900  11.529  1.00  0.00     0.166 HD
ENDBRANCH   1   7
BRANCH   4  15
HETATM   15  C   UNL     1     -39.152 -51.988  15.135  1.00  0.00     0.131 C 
BRANCH  15  16
HETATM   16  C   UNL     1     -38.721 -50.712  14.422  1.00  0.00     0.030 C 
HETATM   17  C   UNL     1     -39.912 -50.021  13.774  1.00  0.00     0.133 C 
HETATM   18  N   UNL     1     -39.349 -49.313  12.656  1.00  0.00    -0.347 N 
HETATM   19  C   UNL     1     -38.124 -49.859  12.268  1.00  0.00     0.220 C 
HETATM   20  O   UNL     1     -37.481 -49.583  11.266  1.00  0.00    -0.273 OA
HETATM   21  C   UNL     1     -37.762 -50.944  13.252  1.00  0.00     0.110 C 
BRANCH  18  22
HETATM   22  C   UNL     1     -40.186 -48.613  11.731  1.00  0.00     0.087 A 
HETATM   23  C   UNL     1     -39.929 -47.168  11.405  1.00  0.00     0.027 A 
HETATM   24  C   UNL     1     -41.166 -47.553  12.161  1.00  0.00     0.027 A 
ENDBRANCH  18  22
ENDBRANCH  15  16
ENDBRANCH   4  15
TORSDOF 4
ENDMDL
