MODEL 1
REMARK VINA RESULT:      -5.6      0.000      0.000
REMARK  3 active torsions:
REMARK  status: ('A' for Active; 'I' for Inactive)
REMARK    1  A    between atoms: C_2  and  N_3 
REMARK    2  A    between atoms: C_2  and  C_13 
REMARK       I    between atoms: N_3  and  C_4 
REMARK       I    between atoms: C_4  and  N_6 
REMARK    3  A    between atoms: N_6  and  C_7 
ROOT
HETATM    1  N   UNL     1     -40.530 -49.460  10.665  1.00  0.00    -0.338 N 
HETATM    2  C   UNL     1     -41.560 -48.542  10.703  1.00  0.00     0.323 C 
HETATM    3  O   UNL     1     -41.991 -48.090  11.755  1.00  0.00    -0.247 OA
HETATM    4  N   UNL     1     -41.992 -48.209   9.446  1.00  0.00    -0.274 N 
HETATM    5  H   UNL     1     -40.453 -50.029   9.833  1.00  0.00     0.164 HD
HETATM    6  H   UNL     1     -41.340 -48.214   8.683  1.00  0.00     0.174 HD
ENDROOT
BRANCH   1   7
HETATM    7  C   UNL     1     -39.893 -49.953  11.889  1.00  0.00     0.086 C 
HETATM    8  C   UNL     1     -38.386 -49.716  11.756  1.00  0.00     0.032 C 
BRANCH   7   9
HETATM    9  C   UNL     1     -40.235 -51.449  12.172  1.00  0.00     0.012 C 
HETATM   10  C   UNL     1     -41.748 -51.748  12.209  1.00  0.00     0.033 C 
HETATM   11  C   UNL     1     -42.416 -51.194  13.467  1.00  0.00     0.168 C 
HETATM   12  O   UNL     1     -41.772 -51.683  14.646  1.00  0.00    -0.391 OA
HETATM   13  C   UNL     1     -40.388 -51.348  14.699  1.00  0.00     0.168 C 
HETATM   14  C   UNL     1     -39.655 -51.959  13.509  1.00  0.00     0.033 C 
ENDBRANCH   7   9
ENDBRANCH   1   7
BRANCH   4  15
HETATM   15  C   UNL     1     -43.101 -47.437   9.264  1.00  0.00     0.231 A 
HETATM   16  N   UNL     1     -44.341 -47.808   9.494  1.00  0.00    -0.330 N 
HETATM   17  C   UNL     1     -45.078 -46.688   9.184  1.00  0.00     0.116 A 
ATOM     18  HN  UNL     1     -44.677 -48.712   9.824  1.00  0.00     0.168 HD
HETATM   19  C   UNL     1     -44.240 -45.663   8.826  1.00  0.00     0.162 A 
HETATM   20  O   UNL     1     -42.966 -46.133   8.878  1.00  0.00    -0.290 OA
ENDBRANCH   4  15
TORSDOF 3
ENDMDL
MODEL 2
REMARK VINA RESULT:      -5.6      3.182      4.664
REMARK  3 active torsions:
REMARK  status: ('A' for Active; 'I' for Inactive)
REMARK    1  A    between atoms: C_2  and  N_3 
REMARK    2  A    between atoms: C_2  and  C_13 
REMARK       I    between atoms: N_3  and  C_4 
REMARK       I    between atoms: C_4  and  N_6 
REMARK    3  A    between atoms: N_6  and  C_7 
ROOT
HETATM    1  N   UNL     1     -42.479 -52.599  12.556  1.00  0.00    -0.338 N 
HETATM    2  C   UNL     1     -42.348 -51.225  12.562  1.00  0.00     0.323 C 
HETATM    3  O   UNL     1     -42.930 -50.519  13.375  1.00  0.00    -0.247 OA
HETATM    4  N   UNL     1     -41.489 -50.791  11.587  1.00  0.00    -0.274 N 
HETATM    5  H   UNL     1     -42.261 -53.076  11.692  1.00  0.00     0.164 HD
HETATM    6  H   UNL     1     -40.724 -51.376  11.308  1.00  0.00     0.174 HD
ENDROOT
BRANCH   1   7
HETATM    7  C   UNL     1     -43.332 -53.295  13.523  1.00  0.00     0.086 C 
HETATM    8  C   UNL     1     -42.487 -54.385  14.188  1.00  0.00     0.032 C 
BRANCH   7   9
HETATM    9  C   UNL     1     -44.626 -53.868  12.865  1.00  0.00     0.012 C 
HETATM   10  C   UNL     1     -45.677 -52.794  12.515  1.00  0.00     0.033 C 
HETATM   11  C   UNL     1     -46.369 -52.236  13.758  1.00  0.00     0.168 C 
HETATM   12  O   UNL     1     -46.953 -53.285  14.534  1.00  0.00    -0.391 OA
HETATM   13  C   UNL     1     -45.998 -54.254  14.959  1.00  0.00     0.168 C 
HETATM   14  C   UNL     1     -45.343 -54.911  13.748  1.00  0.00     0.033 C 
ENDBRANCH   7   9
ENDBRANCH   1   7
BRANCH   4  15
HETATM   15  C   UNL     1     -41.338 -49.462  11.322  1.00  0.00     0.231 A 
HETATM   16  N   UNL     1     -42.210 -48.698  10.704  1.00  0.00    -0.330 N 
HETATM   17  C   UNL     1     -41.615 -47.457  10.704  1.00  0.00     0.116 A 
ATOM     18  HN  UNL     1     -43.115 -48.962  10.316  1.00  0.00     0.168 HD
HETATM   19  C   UNL     1     -40.420 -47.515  11.374  1.00  0.00     0.162 A 
HETATM   20  O   UNL     1     -40.234 -48.799  11.780  1.00  0.00    -0.290 OA
ENDBRANCH   4  15
TORSDOF 3
ENDMDL
MODEL 3
REMARK VINA RESULT:      -5.4      2.593      6.100
REMARK  3 active torsions:
REMARK  status: ('A' for Active; 'I' for Inactive)
REMARK    1  A    between atoms: C_2  and  N_3 
REMARK    2  A    between atoms: C_2  and  C_13 
REMARK       I    between atoms: N_3  and  C_4 
REMARK       I    between atoms: C_4  and  N_6 
REMARK    3  A    between atoms: N_6  and  C_7 
ROOT
HETATM    1  N   UNL     1     -41.123 -49.202  10.697  1.00  0.00    -0.338 N 
HETATM    2  C   UNL     1     -41.462 -50.208  11.579  1.00  0.00     0.323 C 
HETATM    3  O   UNL     1     -42.283 -50.042  12.472  1.00  0.00    -0.247 OA
HETATM    4  N   UNL     1     -40.794 -51.372  11.306  1.00  0.00    -0.274 N 
HETATM    5  H   UNL     1     -40.233 -49.286  10.226  1.00  0.00     0.164 HD
HETATM    6  H   UNL     1     -40.545 -51.587  10.358  1.00  0.00     0.174 HD
ENDROOT
BRANCH   1   7
HETATM    7  C   UNL     1     -41.725 -47.869  10.782  1.00  0.00     0.086 C 
HETATM    8  C   UNL     1     -42.645 -47.696   9.570  1.00  0.00     0.032 C 
BRANCH   7   9
HETATM    9  C   UNL     1     -40.652 -46.740  10.877  1.00  0.00     0.012 C 
HETATM   10  C   UNL     1     -39.800 -46.793  12.162  1.00  0.00     0.033 C 
HETATM   11  C   UNL     1     -40.590 -46.361  13.397  1.00  0.00     0.168 C 
HETATM   12  O   UNL     1     -41.154 -45.061  13.215  1.00  0.00    -0.391 OA
HETATM   13  C   UNL     1     -42.024 -44.989  12.089  1.00  0.00     0.168 C 
HETATM   14  C   UNL     1     -41.258 -45.322  10.812  1.00  0.00     0.033 C 
ENDBRANCH   7   9
ENDBRANCH   1   7
BRANCH   4  15
HETATM   15  C   UNL     1     -40.868 -52.442  12.148  1.00  0.00     0.231 A 
HETATM   16  N   UNL     1     -41.907 -53.232  12.297  1.00  0.00    -0.330 N 
HETATM   17  C   UNL     1     -41.485 -54.155  13.226  1.00  0.00     0.116 A 
ATOM     18  HN  UNL     1     -42.814 -53.174  11.833  1.00  0.00     0.168 HD
HETATM   19  C   UNL     1     -40.178 -53.910  13.563  1.00  0.00     0.162 A 
HETATM   20  O   UNL     1     -39.770 -52.813  12.872  1.00  0.00    -0.290 OA
ENDBRANCH   4  15
TORSDOF 3
ENDMDL
MODEL 4
REMARK VINA RESULT:      -5.4      3.195      5.683
REMARK  3 active torsions:
REMARK  status: ('A' for Active; 'I' for Inactive)
REMARK    1  A    between atoms: C_2  and  N_3 
REMARK    2  A    between atoms: C_2  and  C_13 
REMARK       I    between atoms: N_3  and  C_4 
REMARK       I    between atoms: C_4  and  N_6 
REMARK    3  A    between atoms: N_6  and  C_7 
ROOT
HETATM    1  N   UNL     1     -41.633 -51.134  11.594  1.00  0.00    -0.338 N 
HETATM    2  C   UNL     1     -42.369 -51.783  12.564  1.00  0.00     0.323 C 
HETATM    3  O   UNL     1     -42.390 -51.404  13.728  1.00  0.00    -0.247 OA
HETATM    4  N   UNL     1     -43.060 -52.849  12.052  1.00  0.00    -0.274 N 
HETATM    5  H   UNL     1     -41.390 -51.666  10.770  1.00  0.00     0.164 HD
HETATM    6  H   UNL     1     -43.382 -52.817  11.103  1.00  0.00     0.174 HD
ENDROOT
BRANCH   1   7
HETATM    7  C   UNL     1     -40.826 -49.950  11.903  1.00  0.00     0.086 C 
HETATM    8  C   UNL     1     -41.214 -48.851  10.910  1.00  0.00     0.032 C 
BRANCH   7   9
HETATM    9  C   UNL     1     -39.296 -50.255  11.880  1.00  0.00     0.012 C 
HETATM   10  C   UNL     1     -38.833 -51.212  12.998  1.00  0.00     0.033 C 
HETATM   11  C   UNL     1     -38.838 -50.541  14.371  1.00  0.00     0.168 C 
HETATM   12  O   UNL     1     -38.048 -49.351  14.362  1.00  0.00    -0.391 OA
HETATM   13  C   UNL     1     -38.498 -48.396  13.405  1.00  0.00     0.168 C 
HETATM   14  C   UNL     1     -38.424 -48.987  12.000  1.00  0.00     0.033 C 
ENDBRANCH   7   9
ENDBRANCH   1   7
BRANCH   4  15
HETATM   15  C   UNL     1     -43.725 -53.715  12.868  1.00  0.00     0.231 A 
HETATM   16  N   UNL     1     -43.277 -54.196  14.006  1.00  0.00    -0.330 N 
HETATM   17  C   UNL     1     -44.307 -54.992  14.452  1.00  0.00     0.116 A 
ATOM     18  HN  UNL     1     -42.377 -54.021  14.453  1.00  0.00     0.168 HD
HETATM   19  C   UNL     1     -45.364 -54.916  13.581  1.00  0.00     0.162 A 
HETATM   20  O   UNL     1     -45.002 -54.094  12.560  1.00  0.00    -0.290 OA
ENDBRANCH   4  15
TORSDOF 3
ENDMDL
MODEL 5
REMARK VINA RESULT:      -5.2      1.842      2.347
REMARK  3 active torsions:
REMARK  status: ('A' for Active; 'I' for Inactive)
REMARK    1  A    between atoms: C_2  and  N_3 
REMARK    2  A    between atoms: C_2  and  C_13 
REMARK       I    between atoms: N_3  and  C_4 
REMARK       I    between atoms: C_4  and  N_6 
REMARK    3  A    between atoms: N_6  and  C_7 
ROOT
HETATM    1  N   UNL     1     -39.534 -47.520  11.882  1.00  0.00    -0.338 N 
HETATM    2  C   UNL     1     -40.872 -47.484  11.545  1.00  0.00     0.323 C 
HETATM    3  O   UNL     1     -41.744 -47.899  12.297  1.00  0.00    -0.247 OA
HETATM    4  N   UNL     1     -41.073 -46.918  10.314  1.00  0.00    -0.274 N 
HETATM    5  H   UNL     1     -38.869 -47.486  11.121  1.00  0.00     0.164 HD
HETATM    6  H   UNL     1     -40.446 -46.205   9.990  1.00  0.00     0.174 HD
ENDROOT
BRANCH   1   7
HETATM    7  C   UNL     1     -39.077 -48.065  13.163  1.00  0.00     0.086 C 
HETATM    8  C   UNL     1     -38.631 -46.889  14.036  1.00  0.00     0.032 C 
BRANCH   7   9
HETATM    9  C   UNL     1     -37.951 -49.131  12.984  1.00  0.00     0.012 C 
HETATM   10  C   UNL     1     -38.310 -50.259  11.996  1.00  0.00     0.033 C 
HETATM   11  C   UNL     1     -39.346 -51.224  12.571  1.00  0.00     0.168 C 
HETATM   12  O   UNL     1     -38.908 -51.762  13.819  1.00  0.00    -0.391 OA
HETATM   13  C   UNL     1     -38.653 -50.757  14.796  1.00  0.00     0.168 C 
HETATM   14  C   UNL     1     -37.553 -49.818  14.308  1.00  0.00     0.033 C 
ENDBRANCH   7   9
ENDBRANCH   1   7
BRANCH   4  15
HETATM   15  C   UNL     1     -42.304 -46.926   9.727  1.00  0.00     0.231 A 
HETATM   16  N   UNL     1     -43.057 -47.985   9.536  1.00  0.00    -0.330 N 
HETATM   17  C   UNL     1     -44.189 -47.477   8.941  1.00  0.00     0.116 A 
ATOM     18  HN  UNL     1     -42.851 -48.955   9.773  1.00  0.00     0.168 HD
HETATM   19  C   UNL     1     -44.090 -46.113   8.843  1.00  0.00     0.162 A 
HETATM   20  O   UNL     1     -42.884 -45.747   9.350  1.00  0.00    -0.290 OA
ENDBRANCH   4  15
TORSDOF 3
ENDMDL
MODEL 6
REMARK VINA RESULT:      -5.2      1.674      1.973
REMARK  3 active torsions:
REMARK  status: ('A' for Active; 'I' for Inactive)
REMARK    1  A    between atoms: C_2  and  N_3 
REMARK    2  A    between atoms: C_2  and  C_13 
REMARK       I    between atoms: N_3  and  C_4 
REMARK       I    between atoms: C_4  and  N_6 
REMARK    3  A    between atoms: N_6  and  C_7 
ROOT
HETATM    1  N   UNL     1     -40.325 -50.806  11.743  1.00  0.00    -0.338 N 
HETATM    2  C   UNL     1     -41.185 -49.727  11.697  1.00  0.00     0.323 C 
HETATM    3  O   UNL     1     -41.940 -49.457  12.621  1.00  0.00    -0.247 OA
HETATM    4  N   UNL     1     -41.056 -49.022  10.530  1.00  0.00    -0.274 N 
HETATM    5  H   UNL     1     -39.992 -51.164  10.859  1.00  0.00     0.164 HD
HETATM    6  H   UNL     1     -40.164 -48.983  10.073  1.00  0.00     0.174 HD
ENDROOT
BRANCH   1   7
HETATM    7  C   UNL     1     -40.270 -51.697  12.904  1.00  0.00     0.086 C 
HETATM    8  C   UNL     1     -38.811 -51.774  13.363  1.00  0.00     0.032 C 
BRANCH   7   9
HETATM    9  C   UNL     1     -40.869 -53.105  12.598  1.00  0.00     0.012 C 
HETATM   10  C   UNL     1     -42.411 -53.137  12.578  1.00  0.00     0.033 C 
HETATM   11  C   UNL     1     -43.010 -53.015  13.979  1.00  0.00     0.168 C 
HETATM   12  O   UNL     1     -42.492 -54.025  14.846  1.00  0.00    -0.391 OA
HETATM   13  C   UNL     1     -41.073 -53.974  14.968  1.00  0.00     0.168 C 
HETATM   14  C   UNL     1     -40.422 -54.186  13.605  1.00  0.00     0.033 C 
ENDBRANCH   7   9
ENDBRANCH   1   7
BRANCH   4  15
HETATM   15  C   UNL     1     -41.919 -48.013  10.217  1.00  0.00     0.231 A 
HETATM   16  N   UNL     1     -43.186 -48.156   9.901  1.00  0.00    -0.330 N 
HETATM   17  C   UNL     1     -43.620 -46.866   9.700  1.00  0.00     0.116 A 
ATOM     18  HN  UNL     1     -43.722 -49.021   9.824  1.00  0.00     0.168 HD
HETATM   19  C   UNL     1     -42.599 -45.987   9.955  1.00  0.00     0.162 A 
HETATM   20  O   UNL     1     -41.501 -46.714  10.293  1.00  0.00    -0.290 OA
ENDBRANCH   4  15
TORSDOF 3
ENDMDL
MODEL 7
REMARK VINA RESULT:      -4.9      3.604      6.024
REMARK  3 active torsions:
REMARK  status: ('A' for Active; 'I' for Inactive)
REMARK    1  A    between atoms: C_2  and  N_3 
REMARK    2  A    between atoms: C_2  and  C_13 
REMARK       I    between atoms: N_3  and  C_4 
REMARK       I    between atoms: C_4  and  N_6 
REMARK    3  A    between atoms: N_6  and  C_7 
ROOT
HETATM    1  N   UNL     1     -43.992 -53.187  12.687  1.00  0.00    -0.338 N 
HETATM    2  C   UNL     1     -42.813 -52.521  12.959  1.00  0.00     0.323 C 
HETATM    3  O   UNL     1     -42.451 -52.278  14.102  1.00  0.00    -0.247 OA
HETATM    4  N   UNL     1     -42.129 -52.210  11.814  1.00  0.00    -0.274 N 
HETATM    5  H   UNL     1     -44.388 -53.060  11.767  1.00  0.00     0.164 HD
HETATM    6  H   UNL     1     -42.202 -52.813  11.016  1.00  0.00     0.174 HD
ENDROOT
BRANCH   1   7
HETATM    7  C   UNL     1     -44.884 -53.638  13.758  1.00  0.00     0.086 C 
HETATM    8  C   UNL     1     -45.159 -55.128  13.537  1.00  0.00     0.032 C 
BRANCH   7   9
HETATM    9  C   UNL     1     -46.197 -52.797  13.827  1.00  0.00     0.012 C 
HETATM   10  C   UNL     1     -45.961 -51.278  13.950  1.00  0.00     0.033 C 
HETATM   11  C   UNL     1     -45.451 -50.883  15.335  1.00  0.00     0.168 C 
HETATM   12  O   UNL     1     -46.336 -51.344  16.357  1.00  0.00    -0.391 OA
HETATM   13  C   UNL     1     -46.511 -52.758  16.340  1.00  0.00     0.168 C 
HETATM   14  C   UNL     1     -47.109 -53.196  15.007  1.00  0.00     0.033 C 
ENDBRANCH   7   9
ENDBRANCH   1   7
BRANCH   4  15
HETATM   15  C   UNL     1     -41.019 -51.418  11.849  1.00  0.00     0.231 A 
HETATM   16  N   UNL     1     -39.844 -51.764  12.325  1.00  0.00    -0.330 N 
HETATM   17  C   UNL     1     -39.067 -50.648  12.116  1.00  0.00     0.116 A 
ATOM     18  HN  UNL     1     -39.573 -52.651  12.749  1.00  0.00     0.168 HD
HETATM   19  C   UNL     1     -39.799 -49.685  11.471  1.00  0.00     0.162 A 
HETATM   20  O   UNL     1     -41.055 -50.172  11.290  1.00  0.00    -0.290 OA
ENDBRANCH   4  15
TORSDOF 3
ENDMDL
MODEL 8
REMARK VINA RESULT:      -4.7      3.584      5.787
REMARK  3 active torsions:
REMARK  status: ('A' for Active; 'I' for Inactive)
REMARK    1  A    between atoms: C_2  and  N_3 
REMARK    2  A    between atoms: C_2  and  C_13 
REMARK       I    between atoms: N_3  and  C_4 
REMARK       I    between atoms: C_4  and  N_6 
REMARK    3  A    between atoms: N_6  and  C_7 
ROOT
HETATM    1  N   UNL     1     -44.112 -51.162  13.443  1.00  0.00    -0.338 N 
HETATM    2  C   UNL     1     -42.874 -51.287  12.845  1.00  0.00     0.323 C 
HETATM    3  O   UNL     1     -42.564 -52.273  12.190  1.00  0.00    -0.247 OA
HETATM    4  N   UNL     1     -42.089 -50.186  13.064  1.00  0.00    -0.274 N 
HETATM    5  H   UNL     1     -44.184 -50.518  14.218  1.00  0.00     0.164 HD
HETATM    6  H   UNL     1     -42.519 -49.285  13.162  1.00  0.00     0.174 HD
ENDROOT
BRANCH   1   7
HETATM    7  C   UNL     1     -45.130 -52.209  13.330  1.00  0.00     0.086 C 
HETATM    8  C   UNL     1     -46.393 -51.569  12.745  1.00  0.00     0.032 C 
BRANCH   7   9
HETATM    9  C   UNL     1     -45.403 -52.918  14.693  1.00  0.00     0.012 C 
HETATM   10  C   UNL     1     -44.126 -53.395  15.416  1.00  0.00     0.033 C 
HETATM   11  C   UNL     1     -43.495 -54.607  14.734  1.00  0.00     0.168 C 
HETATM   12  O   UNL     1     -44.437 -55.674  14.611  1.00  0.00    -0.391 OA
HETATM   13  C   UNL     1     -45.596 -55.305  13.867  1.00  0.00     0.168 C 
HETATM   14  C   UNL     1     -46.319 -54.154  14.560  1.00  0.00     0.033 C 
ENDBRANCH   7   9
ENDBRANCH   1   7
BRANCH   4  15
HETATM   15  C   UNL     1     -40.777 -50.171  12.692  1.00  0.00     0.231 A 
HETATM   16  N   UNL     1     -39.911 -51.138  12.893  1.00  0.00    -0.330 N 
HETATM   17  C   UNL     1     -38.752 -50.660  12.326  1.00  0.00     0.116 A 
ATOM     18  HN  UNL     1     -40.062 -52.031  13.360  1.00  0.00     0.168 HD
HETATM   19  C   UNL     1     -38.984 -49.434  11.756  1.00  0.00     0.162 A 
HETATM   20  O   UNL     1     -40.285 -49.112  11.981  1.00  0.00    -0.290 OA
ENDBRANCH   4  15
TORSDOF 3
ENDMDL
MODEL 9
REMARK VINA RESULT:      -4.6      3.929      6.129
REMARK  3 active torsions:
REMARK  status: ('A' for Active; 'I' for Inactive)
REMARK    1  A    between atoms: C_2  and  N_3 
REMARK    2  A    between atoms: C_2  and  C_13 
REMARK       I    between atoms: N_3  and  C_4 
REMARK       I    between atoms: C_4  and  N_6 
REMARK    3  A    between atoms: N_6  and  C_7 
ROOT
HETATM    1  N   UNL     1     -42.641 -51.521  14.571  1.00  0.00    -0.338 N 
HETATM    2  C   UNL     1     -41.637 -50.907  13.850  1.00  0.00     0.323 C 
HETATM    3  O   UNL     1     -41.822 -49.869  13.230  1.00  0.00    -0.247 OA
HETATM    4  N   UNL     1     -40.452 -51.588  13.947  1.00  0.00    -0.274 N 
HETATM    5  H   UNL     1     -42.529 -52.506  14.767  1.00  0.00     0.164 HD
HETATM    6  H   UNL     1     -40.241 -52.094  14.787  1.00  0.00     0.174 HD
ENDROOT
BRANCH   1   7
HETATM    7  C   UNL     1     -43.995 -50.964  14.632  1.00  0.00     0.086 C 
HETATM    8  C   UNL     1     -44.045 -49.991  15.813  1.00  0.00     0.032 C 
BRANCH   7   9
HETATM    9  C   UNL     1     -45.088 -52.074  14.732  1.00  0.00     0.012 C 
HETATM   10  C   UNL     1     -44.700 -53.396  14.039  1.00  0.00     0.033 C 
HETATM   11  C   UNL     1     -44.735 -53.282  12.516  1.00  0.00     0.168 C 
HETATM   12  O   UNL     1     -46.013 -52.828  12.065  1.00  0.00    -0.391 OA
HETATM   13  C   UNL     1     -46.372 -51.561  12.610  1.00  0.00     0.168 C 
HETATM   14  C   UNL     1     -46.443 -51.645  14.132  1.00  0.00     0.033 C 
ENDBRANCH   7   9
ENDBRANCH   1   7
BRANCH   4  15
HETATM   15  C   UNL     1     -39.374 -51.237  13.189  1.00  0.00     0.231 A 
HETATM   16  N   UNL     1     -39.420 -50.687  11.996  1.00  0.00    -0.330 N 
HETATM   17  C   UNL     1     -38.096 -50.510  11.668  1.00  0.00     0.116 A 
ATOM     18  HN  UNL     1     -40.244 -50.449  11.445  1.00  0.00     0.168 HD
HETATM   19  C   UNL     1     -37.300 -50.917  12.708  1.00  0.00     0.162 A 
HETATM   20  O   UNL     1     -38.112 -51.383  13.694  1.00  0.00    -0.290 OA
ENDBRANCH   4  15
TORSDOF 3
ENDMDL
