MODEL 1
REMARK VINA RESULT:      -5.9      0.000      0.000
REMARK  4 active torsions:
REMARK  status: ('A' for Active; 'I' for Inactive)
REMARK    1  A    between atoms: C_9  and  C_10 
REMARK    2  A    between atoms: C_10  and  C_11 
REMARK       I    between atoms: C_11  and  N_13 
REMARK    3  A    between atoms: N_13  and  C_14 
REMARK    4  A    between atoms: C_14  and  C_15 
ROOT
HETATM    1  C   UNL     1     -39.576 -52.722  14.142  1.00  0.00     0.222 C 
HETATM    2  O   UNL     1     -38.863 -53.596  13.651  1.00  0.00    -0.273 OA
HETATM    3  N   UNL     1     -40.753 -53.018  14.805  1.00  0.00    -0.360 N 
HETATM    4  H   UNL     1     -41.400 -52.255  14.966  1.00  0.00     0.162 HD
ENDROOT
BRANCH   1   5
HETATM    5  C   UNL     1     -39.187 -51.252  14.118  1.00  0.00     0.145 C 
BRANCH   5   6
HETATM    6  C   UNL     1     -39.601 -50.469  12.906  1.00  0.00    -0.002 A 
HETATM    7  C   UNL     1     -38.846 -50.031  11.775  1.00  0.00     0.030 A 
HETATM    8  C   UNL     1     -37.414 -50.239  11.443  1.00  0.00     0.070 C 
HETATM    9  N   UNL     1     -39.593 -49.315  10.928  1.00  0.00    -0.303 N 
HETATM   10  N   UNL     1     -40.796 -49.239  11.510  1.00  0.00    -0.300 N 
ATOM     11  HN  UNL     1     -39.308 -48.914  10.035  1.00  0.00     0.186 HD
HETATM   12  C   UNL     1     -41.838 -48.478  10.861  1.00  0.00     0.177 C 
HETATM   13  C   UNL     1     -40.864 -49.918  12.698  1.00  0.00     0.033 A 
HETATM   14  C   UNL     1     -42.085 -49.962  13.548  1.00  0.00     0.070 C 
ENDBRANCH   5   6
ENDBRANCH   1   5
BRANCH   3  15
HETATM   15  C   UNL     1     -41.290 -54.372  14.819  1.00  0.00     0.128 C 
BRANCH  15  16
HETATM   16  C   UNL     1     -42.691 -54.538  14.215  1.00  0.00     0.018 C 
HETATM   17  C   UNL     1     -42.987 -53.614  13.021  1.00  0.00     0.022 C 
HETATM   18  C   UNL     1     -44.495 -53.634  12.737  1.00  0.00     0.141 C 
HETATM   19  S   UNL     1     -45.287 -54.363  14.158  1.00  0.00     0.144 S 
HETATM   20  O   UNL     1     -46.275 -53.440  14.679  1.00  0.00    -0.228 OA
HETATM   21  O   UNL     1     -45.606 -55.741  13.844  1.00  0.00    -0.228 OA
HETATM   22  C   UNL     1     -43.843 -54.338  15.199  1.00  0.00     0.146 C 
ENDBRANCH  15  16
ENDBRANCH   3  15
TORSDOF 4
ENDMDL
MODEL 2
REMARK VINA RESULT:      -5.7      2.831      3.952
REMARK  4 active torsions:
REMARK  status: ('A' for Active; 'I' for Inactive)
REMARK    1  A    between atoms: C_9  and  C_10 
REMARK    2  A    between atoms: C_10  and  C_11 
REMARK       I    between atoms: C_11  and  N_13 
REMARK    3  A    between atoms: N_13  and  C_14 
REMARK    4  A    between atoms: C_14  and  C_15 
ROOT
HETATM    1  C   UNL     1     -42.043 -49.729  12.528  1.00  0.00     0.222 C 
HETATM    2  O   UNL     1     -41.353 -49.854  13.538  1.00  0.00    -0.273 OA
HETATM    3  N   UNL     1     -43.421 -49.843  12.559  1.00  0.00    -0.360 N 
HETATM    4  H   UNL     1     -43.896 -49.971  11.673  1.00  0.00     0.162 HD
ENDROOT
BRANCH   1   5
HETATM    5  C   UNL     1     -41.444 -49.375  11.177  1.00  0.00     0.145 C 
BRANCH   5   6
HETATM    6  C   UNL     1     -41.446 -47.921  10.802  1.00  0.00    -0.002 A 
HETATM    7  C   UNL     1     -42.232 -47.205   9.848  1.00  0.00     0.030 A 
HETATM    8  C   UNL     1     -43.310 -47.681   8.945  1.00  0.00     0.070 C 
HETATM    9  N   UNL     1     -41.887 -45.913   9.793  1.00  0.00    -0.303 N 
HETATM   10  N   UNL     1     -40.867 -45.793  10.651  1.00  0.00    -0.300 N 
ATOM     11  HN  UNL     1     -42.310 -45.181   9.221  1.00  0.00     0.186 HD
HETATM   12  C   UNL     1     -40.225 -44.507  10.792  1.00  0.00     0.177 C 
HETATM   13  C   UNL     1     -40.559 -46.964  11.291  1.00  0.00     0.033 A 
HETATM   14  C   UNL     1     -39.448 -47.093  12.272  1.00  0.00     0.070 C 
ENDBRANCH   5   6
ENDBRANCH   1   5
BRANCH   3  15
HETATM   15  C   UNL     1     -44.115 -50.272  13.765  1.00  0.00     0.128 C 
BRANCH  15  16
HETATM   16  C   UNL     1     -44.853 -51.614  13.666  1.00  0.00     0.018 C 
HETATM   17  C   UNL     1     -46.302 -51.588  14.185  1.00  0.00     0.022 C 
HETATM   18  C   UNL     1     -46.799 -53.032  14.344  1.00  0.00     0.141 C 
HETATM   19  S   UNL     1     -45.367 -54.092  14.276  1.00  0.00     0.144 S 
HETATM   20  O   UNL     1     -45.310 -54.895  15.480  1.00  0.00    -0.228 OA
HETATM   21  O   UNL     1     -45.296 -54.676  12.952  1.00  0.00    -0.228 OA
HETATM   22  C   UNL     1     -44.168 -52.778  14.380  1.00  0.00     0.146 C 
ENDBRANCH  15  16
ENDBRANCH   3  15
TORSDOF 4
ENDMDL
MODEL 3
REMARK VINA RESULT:      -5.6      3.484      6.655
REMARK  4 active torsions:
REMARK  status: ('A' for Active; 'I' for Inactive)
REMARK    1  A    between atoms: C_9  and  C_10 
REMARK    2  A    between atoms: C_10  and  C_11 
REMARK       I    between atoms: C_11  and  N_13 
REMARK    3  A    between atoms: N_13  and  C_14 
REMARK    4  A    between atoms: C_14  and  C_15 
ROOT
HETATM    1  C   UNL     1     -44.100 -54.923  14.301  1.00  0.00     0.222 C 
HETATM    2  O   UNL     1     -43.659 -55.756  15.092  1.00  0.00    -0.273 OA
HETATM    3  N   UNL     1     -43.273 -54.170  13.488  1.00  0.00    -0.360 N 
HETATM    4  H   UNL     1     -43.675 -53.349  13.050  1.00  0.00     0.162 HD
ENDROOT
BRANCH   1   5
HETATM    5  C   UNL     1     -45.591 -54.699  14.109  1.00  0.00     0.145 C 
BRANCH   5   6
HETATM    6  C   UNL     1     -46.143 -53.394  14.604  1.00  0.00    -0.002 A 
HETATM    7  C   UNL     1     -46.542 -52.220  13.895  1.00  0.00     0.030 A 
HETATM    8  C   UNL     1     -46.555 -51.942  12.437  1.00  0.00     0.070 C 
HETATM    9  N   UNL     1     -46.943 -51.252  14.726  1.00  0.00    -0.303 N 
HETATM   10  N   UNL     1     -46.764 -51.755  15.953  1.00  0.00    -0.300 N 
ATOM     11  HN  UNL     1     -47.306 -50.331  14.478  1.00  0.00     0.186 HD
HETATM   12  C   UNL     1     -47.063 -50.925  17.097  1.00  0.00     0.177 C 
HETATM   13  C   UNL     1     -46.290 -53.040  15.945  1.00  0.00     0.033 A 
HETATM   14  C   UNL     1     -45.985 -53.809  17.182  1.00  0.00     0.070 C 
ENDBRANCH   5   6
ENDBRANCH   1   5
BRANCH   3  15
HETATM   15  C   UNL     1     -41.825 -54.215  13.636  1.00  0.00     0.128 C 
BRANCH  15  16
HETATM   16  C   UNL     1     -41.102 -52.867  13.518  1.00  0.00     0.018 C 
HETATM   17  C   UNL     1     -41.291 -52.155  12.166  1.00  0.00     0.022 C 
HETATM   18  C   UNL     1     -40.267 -51.017  12.055  1.00  0.00     0.141 C 
HETATM   19  S   UNL     1     -39.044 -51.285  13.324  1.00  0.00     0.144 S 
HETATM   20  O   UNL     1     -37.733 -51.362  12.713  1.00  0.00    -0.228 OA
HETATM   21  O   UNL     1     -39.332 -50.393  14.428  1.00  0.00    -0.228 OA
HETATM   22  C   UNL     1     -39.594 -52.922  13.759  1.00  0.00     0.146 C 
ENDBRANCH  15  16
ENDBRANCH   3  15
TORSDOF 4
ENDMDL
MODEL 4
REMARK VINA RESULT:      -5.6      1.388      1.556
REMARK  4 active torsions:
REMARK  status: ('A' for Active; 'I' for Inactive)
REMARK    1  A    between atoms: C_9  and  C_10 
REMARK    2  A    between atoms: C_10  and  C_11 
REMARK       I    between atoms: C_11  and  N_13 
REMARK    3  A    between atoms: N_13  and  C_14 
REMARK    4  A    between atoms: C_14  and  C_15 
ROOT
HETATM    1  C   UNL     1     -40.712 -52.836  13.581  1.00  0.00     0.222 C 
HETATM    2  O   UNL     1     -40.297 -53.567  12.683  1.00  0.00    -0.273 OA
HETATM    3  N   UNL     1     -41.659 -53.260  14.496  1.00  0.00    -0.360 N 
HETATM    4  H   UNL     1     -42.125 -52.547  15.044  1.00  0.00     0.162 HD
ENDROOT
BRANCH   1   5
HETATM    5  C   UNL     1     -40.169 -51.433  13.799  1.00  0.00     0.145 C 
BRANCH   5   6
HETATM    6  C   UNL     1     -40.295 -50.480  12.646  1.00  0.00    -0.002 A 
HETATM    7  C   UNL     1     -39.304 -49.937  11.772  1.00  0.00     0.030 A 
HETATM    8  C   UNL     1     -37.839 -50.173  11.723  1.00  0.00     0.070 C 
HETATM    9  N   UNL     1     -39.835 -49.080  10.893  1.00  0.00    -0.303 N 
HETATM   10  N   UNL     1     -41.134 -49.021  11.212  1.00  0.00    -0.300 N 
ATOM     11  HN  UNL     1     -39.356 -48.582  10.143  1.00  0.00     0.186 HD
HETATM   12  C   UNL     1     -41.994 -48.130  10.469  1.00  0.00     0.177 C 
HETATM   13  C   UNL     1     -41.471 -49.843  12.254  1.00  0.00     0.033 A 
HETATM   14  C   UNL     1     -42.847 -49.936  12.813  1.00  0.00     0.070 C 
ENDBRANCH   5   6
ENDBRANCH   1   5
BRANCH   3  15
HETATM   15  C   UNL     1     -42.330 -54.544  14.347  1.00  0.00     0.128 C 
BRANCH  15  16
HETATM   16  C   UNL     1     -43.733 -54.636  14.961  1.00  0.00     0.018 C 
HETATM   17  C   UNL     1     -44.865 -54.861  13.942  1.00  0.00     0.022 C 
HETATM   18  C   UNL     1     -46.212 -54.596  14.629  1.00  0.00     0.141 C 
HETATM   19  S   UNL     1     -45.866 -53.737  16.152  1.00  0.00     0.144 S 
HETATM   20  O   UNL     1     -46.593 -52.485  16.169  1.00  0.00    -0.228 OA
HETATM   21  O   UNL     1     -45.944 -54.692  17.239  1.00  0.00    -0.228 OA
HETATM   22  C   UNL     1     -44.150 -53.425  15.795  1.00  0.00     0.146 C 
ENDBRANCH  15  16
ENDBRANCH   3  15
TORSDOF 4
ENDMDL
MODEL 5
REMARK VINA RESULT:      -5.5      3.872      6.656
REMARK  4 active torsions:
REMARK  status: ('A' for Active; 'I' for Inactive)
REMARK    1  A    between atoms: C_9  and  C_10 
REMARK    2  A    between atoms: C_10  and  C_11 
REMARK       I    between atoms: C_11  and  N_13 
REMARK    3  A    between atoms: N_13  and  C_14 
REMARK    4  A    between atoms: C_14  and  C_15 
ROOT
HETATM    1  C   UNL     1     -43.134 -53.691  12.939  1.00  0.00     0.222 C 
HETATM    2  O   UNL     1     -42.265 -54.261  13.597  1.00  0.00    -0.273 OA
HETATM    3  N   UNL     1     -42.828 -52.736  11.987  1.00  0.00    -0.360 N 
HETATM    4  H   UNL     1     -43.584 -52.143  11.665  1.00  0.00     0.162 HD
ENDROOT
BRANCH   1   5
HETATM    5  C   UNL     1     -44.608 -54.036  13.074  1.00  0.00     0.145 C 
BRANCH   5   6
HETATM    6  C   UNL     1     -45.466 -53.040  13.799  1.00  0.00    -0.002 A 
HETATM    7  C   UNL     1     -46.367 -52.049  13.303  1.00  0.00     0.030 A 
HETATM    8  C   UNL     1     -46.749 -51.715  11.908  1.00  0.00     0.070 C 
HETATM    9  N   UNL     1     -46.908 -51.332  14.294  1.00  0.00    -0.303 N 
HETATM   10  N   UNL     1     -46.340 -51.804  15.410  1.00  0.00    -0.300 N 
ATOM     11  HN  UNL     1     -47.602 -50.588  14.216  1.00  0.00     0.186 HD
HETATM   12  C   UNL     1     -46.681 -51.197  16.676  1.00  0.00     0.177 C 
HETATM   13  C   UNL     1     -45.468 -52.834  15.177  1.00  0.00     0.033 A 
HETATM   14  C   UNL     1     -44.693 -53.510  16.252  1.00  0.00     0.070 C 
ENDBRANCH   5   6
ENDBRANCH   1   5
BRANCH   3  15
HETATM   15  C   UNL     1     -41.467 -52.243  11.823  1.00  0.00     0.128 C 
BRANCH  15  16
HETATM   16  C   UNL     1     -41.220 -50.804  12.296  1.00  0.00     0.018 C 
HETATM   17  C   UNL     1     -42.496 -50.009  12.624  1.00  0.00     0.022 C 
HETATM   18  C   UNL     1     -42.139 -48.522  12.749  1.00  0.00     0.141 C 
HETATM   19  S   UNL     1     -40.514 -48.311  12.045  1.00  0.00     0.144 S 
HETATM   20  O   UNL     1     -40.577 -47.318  10.992  1.00  0.00    -0.228 OA
HETATM   21  O   UNL     1     -39.557 -48.231  13.128  1.00  0.00    -0.228 OA
HETATM   22  C   UNL     1     -40.420 -49.937  11.324  1.00  0.00     0.146 C 
ENDBRANCH  15  16
ENDBRANCH   3  15
TORSDOF 4
ENDMDL
MODEL 6
REMARK VINA RESULT:      -5.4      4.280      7.101
REMARK  4 active torsions:
REMARK  status: ('A' for Active; 'I' for Inactive)
REMARK    1  A    between atoms: C_9  and  C_10 
REMARK    2  A    between atoms: C_10  and  C_11 
REMARK       I    between atoms: C_11  and  N_13 
REMARK    3  A    between atoms: N_13  and  C_14 
REMARK    4  A    between atoms: C_14  and  C_15 
ROOT
HETATM    1  C   UNL     1     -42.706 -50.914  12.725  1.00  0.00     0.222 C 
HETATM    2  O   UNL     1     -43.185 -50.654  13.828  1.00  0.00    -0.273 OA
HETATM    3  N   UNL     1     -42.303 -49.926  11.846  1.00  0.00    -0.360 N 
HETATM    4  H   UNL     1     -42.149 -50.197  10.882  1.00  0.00     0.162 HD
ENDROOT
BRANCH   1   5
HETATM    5  C   UNL     1     -42.458 -52.342  12.267  1.00  0.00     0.145 C 
BRANCH   5   6
HETATM    6  C   UNL     1     -42.392 -53.389  13.341  1.00  0.00    -0.002 A 
HETATM    7  C   UNL     1     -43.388 -54.290  13.827  1.00  0.00     0.030 A 
HETATM    8  C   UNL     1     -44.796 -54.483  13.398  1.00  0.00     0.070 C 
HETATM    9  N   UNL     1     -42.927 -55.040  14.834  1.00  0.00    -0.303 N 
HETATM   10  N   UNL     1     -41.677 -54.609  15.041  1.00  0.00    -0.300 N 
ATOM     11  HN  UNL     1     -43.421 -55.779  15.336  1.00  0.00     0.186 HD
HETATM   12  C   UNL     1     -40.906 -55.194  16.113  1.00  0.00     0.177 C 
HETATM   13  C   UNL     1     -41.297 -53.621  14.171  1.00  0.00     0.033 A 
HETATM   14  C   UNL     1     -39.964 -52.960  14.213  1.00  0.00     0.070 C 
ENDBRANCH   5   6
ENDBRANCH   1   5
BRANCH   3  15
HETATM   15  C   UNL     1     -42.569 -48.520  12.118  1.00  0.00     0.128 C 
BRANCH  15  16
HETATM   16  C   UNL     1     -43.138 -47.712  10.944  1.00  0.00     0.018 C 
HETATM   17  C   UNL     1     -44.628 -47.965  10.655  1.00  0.00     0.022 C 
HETATM   18  C   UNL     1     -44.976 -47.374   9.281  1.00  0.00     0.141 C 
HETATM   19  S   UNL     1     -43.437 -47.045   8.445  1.00  0.00     0.144 S 
HETATM   20  O   UNL     1     -43.424 -47.745   7.177  1.00  0.00    -0.228 OA
HETATM   21  O   UNL     1     -43.157 -45.627   8.549  1.00  0.00    -0.228 OA
HETATM   22  C   UNL     1     -42.411 -47.912   9.614  1.00  0.00     0.146 C 
ENDBRANCH  15  16
ENDBRANCH   3  15
TORSDOF 4
ENDMDL
MODEL 7
REMARK VINA RESULT:      -5.4      4.106      7.047
REMARK  4 active torsions:
REMARK  status: ('A' for Active; 'I' for Inactive)
REMARK    1  A    between atoms: C_9  and  C_10 
REMARK    2  A    between atoms: C_10  and  C_11 
REMARK       I    between atoms: C_11  and  N_13 
REMARK    3  A    between atoms: N_13  and  C_14 
REMARK    4  A    between atoms: C_14  and  C_15 
ROOT
HETATM    1  C   UNL     1     -40.957 -51.296  12.211  1.00  0.00     0.222 C 
HETATM    2  O   UNL     1     -40.956 -50.912  13.380  1.00  0.00    -0.273 OA
HETATM    3  N   UNL     1     -40.383 -50.556  11.193  1.00  0.00    -0.360 N 
HETATM    4  H   UNL     1     -40.629 -50.806  10.242  1.00  0.00     0.162 HD
ENDROOT
BRANCH   1   5
HETATM    5  C   UNL     1     -41.528 -52.643  11.801  1.00  0.00     0.145 C 
BRANCH   5   6
HETATM    6  C   UNL     1     -42.176 -53.455  12.886  1.00  0.00    -0.002 A 
HETATM    7  C   UNL     1     -43.552 -53.630  13.225  1.00  0.00     0.030 A 
HETATM    8  C   UNL     1     -44.772 -53.077  12.586  1.00  0.00     0.070 C 
HETATM    9  N   UNL     1     -43.701 -54.411  14.301  1.00  0.00    -0.303 N 
HETATM   10  N   UNL     1     -42.454 -54.700  14.691  1.00  0.00    -0.300 N 
ATOM     11  HN  UNL     1     -44.575 -54.718  14.730  1.00  0.00     0.186 HD
HETATM   12  C   UNL     1     -42.265 -55.503  15.877  1.00  0.00     0.177 C 
HETATM   13  C   UNL     1     -41.495 -54.158  13.878  1.00  0.00     0.033 A 
HETATM   14  C   UNL     1     -40.034 -54.315  14.116  1.00  0.00     0.070 C 
ENDBRANCH   5   6
ENDBRANCH   1   5
BRANCH   3  15
HETATM   15  C   UNL     1     -39.886 -49.207  11.429  1.00  0.00     0.128 C 
BRANCH  15  16
HETATM   16  C   UNL     1     -40.938 -48.092  11.373  1.00  0.00     0.018 C 
HETATM   17  C   UNL     1     -41.919 -48.195  10.192  1.00  0.00     0.022 C 
HETATM   18  C   UNL     1     -42.679 -46.868  10.059  1.00  0.00     0.141 C 
HETATM   19  S   UNL     1     -41.804 -45.660  11.035  1.00  0.00     0.144 S 
HETATM   20  O   UNL     1     -41.441 -44.539  10.192  1.00  0.00    -0.228 OA
HETATM   21  O   UNL     1     -42.511 -45.489  12.287  1.00  0.00    -0.228 OA
HETATM   22  C   UNL     1     -40.369 -46.674  11.327  1.00  0.00     0.146 C 
ENDBRANCH  15  16
ENDBRANCH   3  15
TORSDOF 4
ENDMDL
MODEL 8
REMARK VINA RESULT:      -5.3      2.200      2.920
REMARK  4 active torsions:
REMARK  status: ('A' for Active; 'I' for Inactive)
REMARK    1  A    between atoms: C_9  and  C_10 
REMARK    2  A    between atoms: C_10  and  C_11 
REMARK       I    between atoms: C_11  and  N_13 
REMARK    3  A    between atoms: N_13  and  C_14 
REMARK    4  A    between atoms: C_14  and  C_15 
ROOT
HETATM    1  C   UNL     1     -39.870 -50.782  12.306  1.00  0.00     0.222 C 
HETATM    2  O   UNL     1     -39.563 -51.145  13.441  1.00  0.00    -0.273 OA
HETATM    3  N   UNL     1     -40.872 -51.400  11.581  1.00  0.00    -0.360 N 
HETATM    4  H   UNL     1     -40.906 -51.215  10.586  1.00  0.00     0.162 HD
ENDROOT
BRANCH   1   5
HETATM    5  C   UNL     1     -39.217 -49.584  11.636  1.00  0.00     0.145 C 
BRANCH   5   6
HETATM    6  C   UNL     1     -39.745 -48.231  12.019  1.00  0.00    -0.002 A 
HETATM    7  C   UNL     1     -39.347 -47.333  13.055  1.00  0.00     0.030 A 
HETATM    8  C   UNL     1     -38.263 -47.455  14.062  1.00  0.00     0.070 C 
HETATM    9  N   UNL     1     -40.114 -46.237  13.081  1.00  0.00    -0.303 N 
HETATM   10  N   UNL     1     -41.026 -46.432  12.122  1.00  0.00    -0.300 N 
ATOM     11  HN  UNL     1     -40.023 -45.430  13.699  1.00  0.00     0.186 HD
HETATM   12  C   UNL     1     -42.051 -45.434  11.922  1.00  0.00     0.177 C 
HETATM   13  C   UNL     1     -40.854 -47.610  11.445  1.00  0.00     0.033 A 
HETATM   14  C   UNL     1     -41.754 -48.067  10.352  1.00  0.00     0.070 C 
ENDBRANCH   5   6
ENDBRANCH   1   5
BRANCH   3  15
HETATM   15  C   UNL     1     -41.513 -52.616  12.064  1.00  0.00     0.128 C 
BRANCH  15  16
HETATM   16  C   UNL     1     -43.000 -52.487  12.417  1.00  0.00     0.018 C 
HETATM   17  C   UNL     1     -43.284 -51.763  13.745  1.00  0.00     0.022 C 
HETATM   18  C   UNL     1     -44.749 -51.999  14.139  1.00  0.00     0.141 C 
HETATM   19  S   UNL     1     -45.353 -53.342  13.133  1.00  0.00     0.144 S 
HETATM   20  O   UNL     1     -45.855 -54.393  13.994  1.00  0.00    -0.228 OA
HETATM   21  O   UNL     1     -46.141 -52.782  12.054  1.00  0.00    -0.228 OA
HETATM   22  C   UNL     1     -43.761 -53.811  12.488  1.00  0.00     0.146 C 
ENDBRANCH  15  16
ENDBRANCH   3  15
TORSDOF 4
ENDMDL
MODEL 9
REMARK VINA RESULT:      -5.3      2.312      3.211
REMARK  4 active torsions:
REMARK  status: ('A' for Active; 'I' for Inactive)
REMARK    1  A    between atoms: C_9  and  C_10 
REMARK    2  A    between atoms: C_10  and  C_11 
REMARK       I    between atoms: C_11  and  N_13 
REMARK    3  A    between atoms: N_13  and  C_14 
REMARK    4  A    between atoms: C_14  and  C_15 
ROOT
HETATM    1  C   UNL     1     -39.605 -51.034  12.109  1.00  0.00     0.222 C 
HETATM    2  O   UNL     1     -39.093 -51.685  13.019  1.00  0.00    -0.273 OA
HETATM    3  N   UNL     1     -40.835 -51.365  11.569  1.00  0.00    -0.360 N 
HETATM    4  H   UNL     1     -41.079 -50.946  10.680  1.00  0.00     0.162 HD
ENDROOT
BRANCH   1   5
HETATM    5  C   UNL     1     -38.959 -49.778  11.549  1.00  0.00     0.145 C 
BRANCH   5   6
HETATM    6  C   UNL     1     -39.362 -48.477  12.182  1.00  0.00    -0.002 A 
HETATM    7  C   UNL     1     -40.352 -47.522  11.801  1.00  0.00     0.030 A 
HETATM    8  C   UNL     1     -41.309 -47.537  10.666  1.00  0.00     0.070 C 
HETATM    9  N   UNL     1     -40.363 -46.466  12.621  1.00  0.00    -0.303 N 
HETATM   10  N   UNL     1     -39.370 -46.695  13.489  1.00  0.00    -0.300 N 
ATOM     11  HN  UNL     1     -40.990 -45.661  12.592  1.00  0.00     0.186 HD
HETATM   12  C   UNL     1     -39.082 -45.700  14.497  1.00  0.00     0.177 C 
HETATM   13  C   UNL     1     -38.735 -47.890  13.279  1.00  0.00     0.033 A 
HETATM   14  C   UNL     1     -37.583 -48.360  14.095  1.00  0.00     0.070 C 
ENDBRANCH   5   6
ENDBRANCH   1   5
BRANCH   3  15
HETATM   15  C   UNL     1     -41.517 -52.596  11.946  1.00  0.00     0.128 C 
BRANCH  15  16
HETATM   16  C   UNL     1     -42.998 -52.446  12.321  1.00  0.00     0.018 C 
HETATM   17  C   UNL     1     -43.256 -51.627  13.598  1.00  0.00     0.022 C 
HETATM   18  C   UNL     1     -44.711 -51.839  14.039  1.00  0.00     0.141 C 
HETATM   19  S   UNL     1     -45.331 -53.252  13.147  1.00  0.00     0.144 S 
HETATM   20  O   UNL     1     -45.811 -54.239  14.092  1.00  0.00    -0.228 OA
HETATM   21  O   UNL     1     -46.144 -52.775  12.047  1.00  0.00    -0.228 OA
HETATM   22  C   UNL     1     -43.751 -53.763  12.503  1.00  0.00     0.146 C 
ENDBRANCH  15  16
ENDBRANCH   3  15
TORSDOF 4
ENDMDL
