MODEL 1
REMARK VINA RESULT:      -6.5      0.000      0.000
REMARK  6 active torsions:
REMARK  status: ('A' for Active; 'I' for Inactive)
REMARK    1  A    between atoms: O_1  and  C_2 
REMARK    2  A    between atoms: C_2  and  C_3 
REMARK    3  A    between atoms: C_3  and  C_4 
REMARK    4  A    between atoms: C_4  and  N_5 
REMARK    5  A    between atoms: C_4  and  C_16 
REMARK       I    between atoms: N_5  and  C_6 
REMARK       I    between atoms: C_6  and  N_8 
REMARK    6  A    between atoms: N_8  and  C_9 
ROOT
HETATM    1  N   UNL     1     -42.696 -51.885  12.102  1.00  0.00    -0.338 N 
HETATM    2  C   UNL     1     -42.403 -50.567  12.354  1.00  0.00     0.321 C 
HETATM    3  O   UNL     1     -42.712 -50.003  13.396  1.00  0.00    -0.247 OA
HETATM    4  N   UNL     1     -41.744 -49.996  11.291  1.00  0.00    -0.309 N 
HETATM    5  H   UNL     1     -42.233 -52.331  11.314  1.00  0.00     0.164 HD
HETATM    6  H   UNL     1     -41.402 -50.642  10.594  1.00  0.00     0.170 HD
ENDROOT
BRANCH   1   7
HETATM    7  C   UNL     1     -43.299 -52.809  13.060  1.00  0.00     0.092 C 
BRANCH   7   8
HETATM    8  C   UNL     1     -42.311 -53.990  13.262  1.00  0.00     0.051 C 
BRANCH   8   9
HETATM    9  C   UNL     1     -40.836 -53.655  13.008  1.00  0.00     0.166 C 
BRANCH   9  10
HETATM   10  O   UNL     1     -40.558 -53.645  11.605  1.00  0.00    -0.401 OA
HETATM   11  H   UNL     1     -41.277 -54.144  11.177  1.00  0.00     0.209 HD
ENDBRANCH   9  10
ENDBRANCH   8   9
ENDBRANCH   7   8
BRANCH   7  12
HETATM   12  C   UNL     1     -44.729 -53.267  12.623  1.00  0.00     0.008 C 
HETATM   13  C   UNL     1     -45.758 -52.127  12.512  1.00  0.00     0.007 C 
HETATM   14  C   UNL     1     -46.151 -51.516  13.855  1.00  0.00     0.000 C 
HETATM   15  C   UNL     1     -46.544 -52.546  14.911  1.00  0.00     0.000 C 
HETATM   16  C   UNL     1     -45.637 -53.771  14.955  1.00  0.00     0.000 C 
HETATM   17  C   UNL     1     -45.337 -54.329  13.565  1.00  0.00     0.007 C 
ENDBRANCH   7  12
ENDBRANCH   1   7
BRANCH   4  18
HETATM   18  C   UNL     1     -41.384 -48.642  11.140  1.00  0.00     0.038 A 
HETATM   19  C   UNL     1     -40.209 -48.095  11.646  1.00  0.00     0.046 A 
HETATM   20  C   UNL     1     -39.969 -46.747  11.441  1.00  0.00     0.090 A 
HETATM   21  N   UNL     1     -40.809 -45.922  10.777  1.00  0.00    -0.375 N 
HETATM   22  C   UNL     1     -41.939 -46.476  10.302  1.00  0.00     0.090 A 
ATOM     23  HN  UNL     1     -40.598 -44.933  10.644  1.00  0.00     0.164 HD
HETATM   24  C   UNL     1     -42.274 -47.812  10.461  1.00  0.00     0.046 A 
ENDBRANCH   4  18
TORSDOF 6
ENDMDL
MODEL 2
REMARK VINA RESULT:      -5.7      2.318      6.950
REMARK  6 active torsions:
REMARK  status: ('A' for Active; 'I' for Inactive)
REMARK    1  A    between atoms: O_1  and  C_2 
REMARK    2  A    between atoms: C_2  and  C_3 
REMARK    3  A    between atoms: C_3  and  C_4 
REMARK    4  A    between atoms: C_4  and  N_5 
REMARK    5  A    between atoms: C_4  and  C_16 
REMARK       I    between atoms: N_5  and  C_6 
REMARK       I    between atoms: C_6  and  N_8 
REMARK    6  A    between atoms: N_8  and  C_9 
ROOT
HETATM    1  N   UNL     1     -42.234 -50.346  12.104  1.00  0.00    -0.338 N 
HETATM    2  C   UNL     1     -42.920 -51.064  13.054  1.00  0.00     0.321 C 
HETATM    3  O   UNL     1     -42.570 -51.125  14.225  1.00  0.00    -0.247 OA
HETATM    4  N   UNL     1     -44.014 -51.689  12.503  1.00  0.00    -0.309 N 
HETATM    5  H   UNL     1     -42.694 -50.177  11.213  1.00  0.00     0.164 HD
HETATM    6  H   UNL     1     -44.266 -51.386  11.574  1.00  0.00     0.170 HD
ENDROOT
BRANCH   1   7
HETATM    7  C   UNL     1     -41.086 -49.483  12.373  1.00  0.00     0.092 C 
BRANCH   7   8
HETATM    8  C   UNL     1     -41.410 -48.075  11.803  1.00  0.00     0.051 C 
BRANCH   8   9
HETATM    9  C   UNL     1     -42.384 -48.062  10.619  1.00  0.00     0.166 C 
BRANCH   9  10
HETATM   10  O   UNL     1     -41.746 -48.553   9.437  1.00  0.00    -0.401 OA
HETATM   11  H   UNL     1     -42.070 -48.004   8.699  1.00  0.00     0.209 HD
ENDBRANCH   9  10
ENDBRANCH   8   9
ENDBRANCH   7   8
BRANCH   7  12
HETATM   12  C   UNL     1     -39.751 -50.082  11.819  1.00  0.00     0.008 C 
HETATM   13  C   UNL     1     -39.264 -51.344  12.555  1.00  0.00     0.007 C 
HETATM   14  C   UNL     1     -38.783 -51.080  13.981  1.00  0.00     0.000 C 
HETATM   15  C   UNL     1     -37.789 -49.927  14.094  1.00  0.00     0.000 C 
HETATM   16  C   UNL     1     -38.154 -48.705  13.257  1.00  0.00     0.000 C 
HETATM   17  C   UNL     1     -38.583 -49.073  11.838  1.00  0.00     0.007 C 
ENDBRANCH   7  12
ENDBRANCH   1   7
BRANCH   4  18
HETATM   18  C   UNL     1     -44.886 -52.597  13.139  1.00  0.00     0.038 A 
HETATM   19  C   UNL     1     -46.022 -52.211  13.843  1.00  0.00     0.046 A 
HETATM   20  C   UNL     1     -46.797 -53.195  14.432  1.00  0.00     0.090 A 
HETATM   21  N   UNL     1     -46.518 -54.516  14.368  1.00  0.00    -0.375 N 
HETATM   22  C   UNL     1     -45.411 -54.861  13.684  1.00  0.00     0.090 A 
ATOM     23  HN  UNL     1     -47.113 -55.214  14.814  1.00  0.00     0.164 HD
HETATM   24  C   UNL     1     -44.568 -53.952  13.065  1.00  0.00     0.046 A 
ENDBRANCH   4  18
TORSDOF 6
ENDMDL
MODEL 3
REMARK VINA RESULT:      -5.5      2.342      3.563
REMARK  6 active torsions:
REMARK  status: ('A' for Active; 'I' for Inactive)
REMARK    1  A    between atoms: O_1  and  C_2 
REMARK    2  A    between atoms: C_2  and  C_3 
REMARK    3  A    between atoms: C_3  and  C_4 
REMARK    4  A    between atoms: C_4  and  N_5 
REMARK    5  A    between atoms: C_4  and  C_16 
REMARK       I    between atoms: N_5  and  C_6 
REMARK       I    between atoms: C_6  and  N_8 
REMARK    6  A    between atoms: N_8  and  C_9 
ROOT
HETATM    1  N   UNL     1     -40.778 -50.381  11.349  1.00  0.00    -0.338 N 
HETATM    2  C   UNL     1     -41.650 -49.323  11.416  1.00  0.00     0.321 C 
HETATM    3  O   UNL     1     -42.363 -49.107  12.388  1.00  0.00    -0.247 OA
HETATM    4  N   UNL     1     -41.611 -48.577  10.261  1.00  0.00    -0.309 N 
HETATM    5  H   UNL     1     -40.082 -50.375  10.607  1.00  0.00     0.164 HD
HETATM    6  H   UNL     1     -40.841 -48.778   9.641  1.00  0.00     0.170 HD
ENDROOT
BRANCH   1   7
HETATM    7  C   UNL     1     -40.498 -51.308  12.444  1.00  0.00     0.092 C 
BRANCH   7   8
HETATM    8  C   UNL     1     -38.965 -51.293  12.694  1.00  0.00     0.051 C 
BRANCH   8   9
HETATM    9  C   UNL     1     -38.176 -50.292  11.841  1.00  0.00     0.166 C 
BRANCH   9  10
HETATM   10  O   UNL     1     -38.240 -48.983  12.414  1.00  0.00    -0.401 OA
HETATM   11  H   UNL     1     -39.177 -48.714  12.387  1.00  0.00     0.209 HD
ENDBRANCH   9  10
ENDBRANCH   8   9
ENDBRANCH   7   8
BRANCH   7  12
HETATM   12  C   UNL     1     -41.064 -52.739  12.168  1.00  0.00     0.008 C 
HETATM   13  C   UNL     1     -42.601 -52.837  12.215  1.00  0.00     0.007 C 
HETATM   14  C   UNL     1     -43.188 -52.659  13.614  1.00  0.00     0.000 C 
HETATM   15  C   UNL     1     -42.522 -53.528  14.679  1.00  0.00     0.000 C 
HETATM   16  C   UNL     1     -41.001 -53.584  14.576  1.00  0.00     0.000 C 
HETATM   17  C   UNL     1     -40.518 -53.804  13.144  1.00  0.00     0.007 C 
ENDBRANCH   7  12
ENDBRANCH   1   7
BRANCH   4  18
HETATM   18  C   UNL     1     -42.440 -47.489   9.921  1.00  0.00     0.038 A 
HETATM   19  C   UNL     1     -43.526 -47.588   9.058  1.00  0.00     0.046 A 
HETATM   20  C   UNL     1     -44.263 -46.446   8.793  1.00  0.00     0.090 A 
HETATM   21  N   UNL     1     -43.992 -45.233   9.324  1.00  0.00    -0.375 N 
HETATM   22  C   UNL     1     -42.935 -45.165  10.153  1.00  0.00     0.090 A 
ATOM     23  HN  UNL     1     -44.558 -44.413   9.107  1.00  0.00     0.164 HD
HETATM   24  C   UNL     1     -42.132 -46.248  10.475  1.00  0.00     0.046 A 
ENDBRANCH   4  18
TORSDOF 6
ENDMDL
MODEL 4
REMARK VINA RESULT:      -5.3      1.890      6.785
REMARK  6 active torsions:
REMARK  status: ('A' for Active; 'I' for Inactive)
REMARK    1  A    between atoms: O_1  and  C_2 
REMARK    2  A    between atoms: C_2  and  C_3 
REMARK    3  A    between atoms: C_3  and  C_4 
REMARK    4  A    between atoms: C_4  and  N_5 
REMARK    5  A    between atoms: C_4  and  C_16 
REMARK       I    between atoms: N_5  and  C_6 
REMARK       I    between atoms: C_6  and  N_8 
REMARK    6  A    between atoms: N_8  and  C_9 
ROOT
HETATM    1  N   UNL     1     -40.897 -50.619  11.325  1.00  0.00    -0.338 N 
HETATM    2  C   UNL     1     -41.618 -51.203  12.337  1.00  0.00     0.321 C 
HETATM    3  O   UNL     1     -41.642 -50.762  13.479  1.00  0.00    -0.247 OA
HETATM    4  N   UNL     1     -42.274 -52.326  11.891  1.00  0.00    -0.309 N 
HETATM    5  H   UNL     1     -41.088 -50.920  10.372  1.00  0.00     0.164 HD
HETATM    6  H   UNL     1     -42.300 -52.444  10.889  1.00  0.00     0.170 HD
ENDROOT
BRANCH   1   7
HETATM    7  C   UNL     1     -40.170 -49.356  11.433  1.00  0.00     0.092 C 
BRANCH   7   8
HETATM    8  C   UNL     1     -38.807 -49.653  12.116  1.00  0.00     0.051 C 
BRANCH   8   9
HETATM    9  C   UNL     1     -37.646 -49.936  11.154  1.00  0.00     0.166 C 
BRANCH   9  10
HETATM   10  O   UNL     1     -37.211 -51.294  11.277  1.00  0.00    -0.401 OA
HETATM   11  H   UNL     1     -36.861 -51.391  12.182  1.00  0.00     0.209 HD
ENDBRANCH   9  10
ENDBRANCH   8   9
ENDBRANCH   7   8
BRANCH   7  12
HETATM   12  C   UNL     1     -41.001 -48.254  12.169  1.00  0.00     0.008 C 
HETATM   13  C   UNL     1     -42.326 -47.885  11.475  1.00  0.00     0.007 C 
HETATM   14  C   UNL     1     -42.144 -47.143  10.153  1.00  0.00     0.000 C 
HETATM   15  C   UNL     1     -41.187 -45.956  10.236  1.00  0.00     0.000 C 
HETATM   16  C   UNL     1     -39.925 -46.230  11.048  1.00  0.00     0.000 C 
HETATM   17  C   UNL     1     -40.219 -46.938  12.369  1.00  0.00     0.007 C 
ENDBRANCH   7  12
ENDBRANCH   1   7
BRANCH   4  18
HETATM   18  C   UNL     1     -43.015 -53.243  12.664  1.00  0.00     0.038 A 
HETATM   19  C   UNL     1     -44.376 -53.470  12.496  1.00  0.00     0.046 A 
HETATM   20  C   UNL     1     -44.998 -54.390  13.323  1.00  0.00     0.090 A 
HETATM   21  N   UNL     1     -44.361 -55.088  14.289  1.00  0.00    -0.375 N 
HETATM   22  C   UNL     1     -43.045 -54.847  14.432  1.00  0.00     0.090 A 
ATOM     23  HN  UNL     1     -44.851 -55.760  14.879  1.00  0.00     0.164 HD
HETATM   24  C   UNL     1     -42.335 -53.941  13.660  1.00  0.00     0.046 A 
ENDBRANCH   4  18
TORSDOF 6
ENDMDL
MODEL 5
REMARK VINA RESULT:      -5.1      4.324      6.177
REMARK  6 active torsions:
REMARK  status: ('A' for Active; 'I' for Inactive)
REMARK    1  A    between atoms: O_1  and  C_2 
REMARK    2  A    between atoms: C_2  and  C_3 
REMARK    3  A    between atoms: C_3  and  C_4 
REMARK    4  A    between atoms: C_4  and  N_5 
REMARK    5  A    between atoms: C_4  and  C_16 
REMARK       I    between atoms: N_5  and  C_6 
REMARK       I    between atoms: C_6  and  N_8 
REMARK    6  A    between atoms: N_8  and  C_9 
ROOT
HETATM    1  N   UNL     1     -43.022 -52.947  14.374  1.00  0.00    -0.338 N 
HETATM    2  C   UNL     1     -42.256 -53.660  15.263  1.00  0.00     0.321 C 
HETATM    3  O   UNL     1     -42.734 -54.302  16.190  1.00  0.00    -0.247 OA
HETATM    4  N   UNL     1     -40.918 -53.538  14.970  1.00  0.00    -0.309 N 
HETATM    5  H   UNL     1     -42.575 -52.615  13.523  1.00  0.00     0.164 HD
HETATM    6  H   UNL     1     -40.706 -53.132  14.071  1.00  0.00     0.170 HD
ENDROOT
BRANCH   1   7
HETATM    7  C   UNL     1     -44.483 -52.946  14.337  1.00  0.00     0.092 C 
BRANCH   7   8
HETATM    8  C   UNL     1     -44.929 -53.950  13.239  1.00  0.00     0.051 C 
BRANCH   8   9
HETATM    9  C   UNL     1     -45.481 -55.282  13.761  1.00  0.00     0.166 C 
BRANCH   9  10
HETATM   10  O   UNL     1     -46.687 -55.070  14.501  1.00  0.00    -0.401 OA
HETATM   11  H   UNL     1     -46.486 -54.387  15.167  1.00  0.00     0.209 HD
ENDBRANCH   9  10
ENDBRANCH   8   9
ENDBRANCH   7   8
BRANCH   7  12
HETATM   12  C   UNL     1     -45.071 -51.511  14.137  1.00  0.00     0.008 C 
HETATM   13  C   UNL     1     -44.536 -50.459  15.126  1.00  0.00     0.007 C 
HETATM   14  C   UNL     1     -45.011 -50.666  16.563  1.00  0.00     0.000 C 
HETATM   15  C   UNL     1     -46.519 -50.865  16.693  1.00  0.00     0.000 C 
HETATM   16  C   UNL     1     -47.120 -51.784  15.634  1.00  0.00     0.000 C 
HETATM   17  C   UNL     1     -46.611 -51.470  14.228  1.00  0.00     0.007 C 
ENDBRANCH   7  12
ENDBRANCH   1   7
BRANCH   4  18
HETATM   18  C   UNL     1     -39.833 -54.033  15.722  1.00  0.00     0.038 A 
HETATM   19  C   UNL     1     -39.190 -55.235  15.450  1.00  0.00     0.046 A 
HETATM   20  C   UNL     1     -38.140 -55.620  16.265  1.00  0.00     0.090 A 
HETATM   21  N   UNL     1     -37.697 -54.898  17.317  1.00  0.00    -0.375 N 
HETATM   22  C   UNL     1     -38.339 -53.740  17.560  1.00  0.00     0.090 A 
ATOM     23  HN  UNL     1     -36.919 -55.212  17.896  1.00  0.00     0.164 HD
HETATM   24  C   UNL     1     -39.404 -53.272  16.807  1.00  0.00     0.046 A 
ENDBRANCH   4  18
TORSDOF 6
ENDMDL
MODEL 6
REMARK VINA RESULT:      -5.0      3.656      6.653
REMARK  6 active torsions:
REMARK  status: ('A' for Active; 'I' for Inactive)
REMARK    1  A    between atoms: O_1  and  C_2 
REMARK    2  A    between atoms: C_2  and  C_3 
REMARK    3  A    between atoms: C_3  and  C_4 
REMARK    4  A    between atoms: C_4  and  N_5 
REMARK    5  A    between atoms: C_4  and  C_16 
REMARK       I    between atoms: N_5  and  C_6 
REMARK       I    between atoms: C_6  and  N_8 
REMARK    6  A    between atoms: N_8  and  C_9 
ROOT
HETATM    1  N   UNL     1     -42.223 -52.809  14.550  1.00  0.00    -0.338 N 
HETATM    2  C   UNL     1     -41.888 -54.039  15.061  1.00  0.00     0.321 C 
HETATM    3  O   UNL     1     -42.584 -55.035  14.913  1.00  0.00    -0.247 OA
HETATM    4  N   UNL     1     -40.699 -53.979  15.750  1.00  0.00    -0.309 N 
HETATM    5  H   UNL     1     -41.505 -52.089  14.538  1.00  0.00     0.164 HD
HETATM    6  H   UNL     1     -40.163 -53.134  15.618  1.00  0.00     0.170 HD
ENDROOT
BRANCH   1   7
HETATM    7  C   UNL     1     -43.368 -52.546  13.681  1.00  0.00     0.092 C 
BRANCH   7   8
HETATM    8  C   UNL     1     -42.910 -52.773  12.214  1.00  0.00     0.051 C 
BRANCH   8   9
HETATM    9  C   UNL     1     -41.488 -52.293  11.896  1.00  0.00     0.166 C 
BRANCH   9  10
HETATM   10  O   UNL     1     -40.609 -53.408  11.724  1.00  0.00    -0.401 OA
HETATM   11  H   UNL     1     -41.027 -53.991  11.063  1.00  0.00     0.209 HD
ENDBRANCH   9  10
ENDBRANCH   8   9
ENDBRANCH   7   8
BRANCH   7  12
HETATM   12  C   UNL     1     -43.984 -51.128  13.923  1.00  0.00     0.008 C 
HETATM   13  C   UNL     1     -44.393 -50.852  15.382  1.00  0.00     0.007 C 
HETATM   14  C   UNL     1     -45.594 -51.669  15.851  1.00  0.00     0.000 C 
HETATM   15  C   UNL     1     -46.787 -51.619  14.899  1.00  0.00     0.000 C 
HETATM   16  C   UNL     1     -46.412 -51.737  13.425  1.00  0.00     0.000 C 
HETATM   17  C   UNL     1     -45.225 -50.851  13.049  1.00  0.00     0.007 C 
ENDBRANCH   7  12
ENDBRANCH   1   7
BRANCH   4  18
HETATM   18  C   UNL     1     -40.098 -55.008  16.502  1.00  0.00     0.038 A 
HETATM   19  C   UNL     1     -40.749 -55.707  17.513  1.00  0.00     0.046 A 
HETATM   20  C   UNL     1     -40.051 -56.693  18.188  1.00  0.00     0.090 A 
HETATM   21  N   UNL     1     -38.767 -57.023  17.925  1.00  0.00    -0.375 N 
HETATM   22  C   UNL     1     -38.160 -56.330  16.945  1.00  0.00     0.090 A 
ATOM     23  HN  UNL     1     -38.284 -57.758  18.442  1.00  0.00     0.164 HD
HETATM   24  C   UNL     1     -38.770 -55.321  16.217  1.00  0.00     0.046 A 
ENDBRANCH   4  18
TORSDOF 6
ENDMDL
MODEL 7
REMARK VINA RESULT:      -5.0      1.789      2.323
REMARK  6 active torsions:
REMARK  status: ('A' for Active; 'I' for Inactive)
REMARK    1  A    between atoms: O_1  and  C_2 
REMARK    2  A    between atoms: C_2  and  C_3 
REMARK    3  A    between atoms: C_3  and  C_4 
REMARK    4  A    between atoms: C_4  and  N_5 
REMARK    5  A    between atoms: C_4  and  C_16 
REMARK       I    between atoms: N_5  and  C_6 
REMARK       I    between atoms: C_6  and  N_8 
REMARK    6  A    between atoms: N_8  and  C_9 
ROOT
HETATM    1  N   UNL     1     -44.444 -51.149  13.400  1.00  0.00    -0.338 N 
HETATM    2  C   UNL     1     -43.484 -50.167  13.418  1.00  0.00     0.321 C 
HETATM    3  O   UNL     1     -42.729 -49.990  14.366  1.00  0.00    -0.247 OA
HETATM    4  N   UNL     1     -43.507 -49.432  12.256  1.00  0.00    -0.309 N 
HETATM    5  H   UNL     1     -44.886 -51.363  12.510  1.00  0.00     0.164 HD
HETATM    6  H   UNL     1     -44.058 -49.824  11.506  1.00  0.00     0.170 HD
ENDROOT
BRANCH   1   7
HETATM    7  C   UNL     1     -44.620 -52.169  14.431  1.00  0.00     0.092 C 
BRANCH   7   8
HETATM    8  C   UNL     1     -43.731 -53.384  14.050  1.00  0.00     0.051 C 
BRANCH   8   9
HETATM    9  C   UNL     1     -44.170 -54.140  12.789  1.00  0.00     0.166 C 
BRANCH   9  10
HETATM   10  O   UNL     1     -44.037 -53.308  11.633  1.00  0.00    -0.401 OA
HETATM   11  H   UNL     1     -43.848 -52.409  11.960  1.00  0.00     0.209 HD
ENDBRANCH   9  10
ENDBRANCH   8   9
ENDBRANCH   7   8
BRANCH   7  12
HETATM   12  C   UNL     1     -46.123 -52.545  14.643  1.00  0.00     0.008 C 
HETATM   13  C   UNL     1     -47.006 -51.387  15.143  1.00  0.00     0.007 C 
HETATM   14  C   UNL     1     -46.708 -50.959  16.578  1.00  0.00     0.000 C 
HETATM   15  C   UNL     1     -46.660 -52.117  17.572  1.00  0.00     0.000 C 
HETATM   16  C   UNL     1     -45.922 -53.349  17.057  1.00  0.00     0.000 C 
HETATM   17  C   UNL     1     -46.320 -53.717  15.629  1.00  0.00     0.007 C 
ENDBRANCH   7  12
ENDBRANCH   1   7
BRANCH   4  18
HETATM   18  C   UNL     1     -42.751 -48.280  11.961  1.00  0.00     0.038 A 
HETATM   19  C   UNL     1     -43.094 -47.002  12.390  1.00  0.00     0.046 A 
HETATM   20  C   UNL     1     -42.275 -45.945  12.030  1.00  0.00     0.090 A 
HETATM   21  N   UNL     1     -41.157 -46.076  11.282  1.00  0.00    -0.375 N 
HETATM   22  C   UNL     1     -40.851 -47.323  10.879  1.00  0.00     0.090 A 
ATOM     23  HN  UNL     1     -40.576 -45.274  11.037  1.00  0.00     0.164 HD
HETATM   24  C   UNL     1     -41.608 -48.443  11.181  1.00  0.00     0.046 A 
ENDBRANCH   4  18
TORSDOF 6
ENDMDL
MODEL 8
REMARK VINA RESULT:      -4.9      2.020      3.598
REMARK  6 active torsions:
REMARK  status: ('A' for Active; 'I' for Inactive)
REMARK    1  A    between atoms: O_1  and  C_2 
REMARK    2  A    between atoms: C_2  and  C_3 
REMARK    3  A    between atoms: C_3  and  C_4 
REMARK    4  A    between atoms: C_4  and  N_5 
REMARK    5  A    between atoms: C_4  and  C_16 
REMARK       I    between atoms: N_5  and  C_6 
REMARK       I    between atoms: C_6  and  N_8 
REMARK    6  A    between atoms: N_8  and  C_9 
ROOT
HETATM    1  N   UNL     1     -42.732 -51.503  13.007  1.00  0.00    -0.338 N 
HETATM    2  C   UNL     1     -42.037 -50.659  12.175  1.00  0.00     0.321 C 
HETATM    3  O   UNL     1     -40.983 -50.972  11.637  1.00  0.00    -0.247 OA
HETATM    4  N   UNL     1     -42.679 -49.449  12.053  1.00  0.00    -0.309 N 
HETATM    5  H   UNL     1     -43.688 -51.251  13.246  1.00  0.00     0.164 HD
HETATM    6  H   UNL     1     -43.624 -49.420  12.407  1.00  0.00     0.170 HD
ENDROOT
BRANCH   1   7
HETATM    7  C   UNL     1     -42.382 -52.897  13.269  1.00  0.00     0.092 C 
BRANCH   7   8
HETATM    8  C   UNL     1     -43.565 -53.780  12.785  1.00  0.00     0.051 C 
BRANCH   8   9
HETATM    9  C   UNL     1     -44.747 -53.874  13.758  1.00  0.00     0.166 C 
BRANCH   9  10
HETATM   10  O   UNL     1     -45.745 -54.765  13.252  1.00  0.00    -0.401 OA
HETATM   11  H   UNL     1     -45.394 -55.668  13.366  1.00  0.00     0.209 HD
ENDBRANCH   9  10
ENDBRANCH   8   9
ENDBRANCH   7   8
BRANCH   7  12
HETATM   12  C   UNL     1     -42.002 -53.142  14.766  1.00  0.00     0.008 C 
HETATM   13  C   UNL     1     -41.136 -52.034  15.394  1.00  0.00     0.007 C 
HETATM   14  C   UNL     1     -39.715 -51.973  14.838  1.00  0.00     0.000 C 
HETATM   15  C   UNL     1     -39.000 -53.322  14.820  1.00  0.00     0.000 C 
HETATM   16  C   UNL     1     -39.871 -54.482  14.348  1.00  0.00     0.000 C 
HETATM   17  C   UNL     1     -41.256 -54.475  14.991  1.00  0.00     0.007 C 
ENDBRANCH   7  12
ENDBRANCH   1   7
BRANCH   4  18
HETATM   18  C   UNL     1     -42.212 -48.302  11.378  1.00  0.00     0.038 A 
HETATM   19  C   UNL     1     -40.974 -47.716  11.618  1.00  0.00     0.046 A 
HETATM   20  C   UNL     1     -40.630 -46.586  10.897  1.00  0.00     0.090 A 
HETATM   21  N   UNL     1     -41.426 -46.010   9.969  1.00  0.00    -0.375 N 
HETATM   22  C   UNL     1     -42.619 -46.596   9.760  1.00  0.00     0.090 A 
ATOM     23  HN  UNL     1     -41.138 -45.178   9.456  1.00  0.00     0.164 HD
HETATM   24  C   UNL     1     -43.058 -47.724  10.434  1.00  0.00     0.046 A 
ENDBRANCH   4  18
TORSDOF 6
ENDMDL
MODEL 9
REMARK VINA RESULT:      -4.7     15.870     18.689
REMARK  6 active torsions:
REMARK  status: ('A' for Active; 'I' for Inactive)
REMARK    1  A    between atoms: O_1  and  C_2 
REMARK    2  A    between atoms: C_2  and  C_3 
REMARK    3  A    between atoms: C_3  and  C_4 
REMARK    4  A    between atoms: C_4  and  N_5 
REMARK    5  A    between atoms: C_4  and  C_16 
REMARK       I    between atoms: N_5  and  C_6 
REMARK       I    between atoms: C_6  and  N_8 
REMARK    6  A    between atoms: N_8  and  C_9 
ROOT
HETATM    1  N   UNL     1     -27.228 -60.138  18.393  1.00  0.00    -0.338 N 
HETATM    2  C   UNL     1     -28.470 -59.665  18.739  1.00  0.00     0.321 C 
HETATM    3  O   UNL     1     -29.492 -60.331  18.630  1.00  0.00    -0.247 OA
HETATM    4  N   UNL     1     -28.395 -58.371  19.198  1.00  0.00    -0.309 N 
HETATM    5  H   UNL     1     -26.416 -59.608  18.701  1.00  0.00     0.164 HD
HETATM    6  H   UNL     1     -27.464 -58.036  19.401  1.00  0.00     0.170 HD
ENDROOT
BRANCH   1   7
HETATM    7  C   UNL     1     -26.940 -61.506  17.968  1.00  0.00     0.092 C 
BRANCH   7   8
HETATM    8  C   UNL     1     -25.787 -62.045  18.858  1.00  0.00     0.051 C 
BRANCH   8   9
HETATM    9  C   UNL     1     -26.233 -62.723  20.159  1.00  0.00     0.166 C 
BRANCH   9  10
HETATM   10  O   UNL     1     -26.925 -61.793  20.998  1.00  0.00    -0.401 OA
HETATM   11  H   UNL     1     -26.281 -61.100  21.234  1.00  0.00     0.209 HD
ENDBRANCH   9  10
ENDBRANCH   8   9
ENDBRANCH   7   8
BRANCH   7  12
HETATM   12  C   UNL     1     -26.633 -61.599  16.437  1.00  0.00     0.008 C 
HETATM   13  C   UNL     1     -27.836 -61.294  15.525  1.00  0.00     0.007 C 
HETATM   14  C   UNL     1     -28.930 -62.359  15.571  1.00  0.00     0.000 C 
HETATM   15  C   UNL     1     -28.414 -63.784  15.386  1.00  0.00     0.000 C 
HETATM   16  C   UNL     1     -27.132 -64.086  16.154  1.00  0.00     0.000 C 
HETATM   17  C   UNL     1     -26.088 -62.980  16.012  1.00  0.00     0.007 C 
ENDBRANCH   7  12
ENDBRANCH   1   7
BRANCH   4  18
HETATM   18  C   UNL     1     -29.469 -57.523  19.536  1.00  0.00     0.038 A 
HETATM   19  C   UNL     1     -30.086 -57.519  20.782  1.00  0.00     0.046 A 
HETATM   20  C   UNL     1     -31.138 -56.645  20.993  1.00  0.00     0.090 A 
HETATM   21  N   UNL     1     -31.610 -55.791  20.058  1.00  0.00    -0.375 N 
HETATM   22  C   UNL     1     -30.997 -55.818  18.861  1.00  0.00     0.090 A 
ATOM     23  HN  UNL     1     -32.387 -55.159  20.250  1.00  0.00     0.164 HD
HETATM   24  C   UNL     1     -29.941 -56.659  18.549  1.00  0.00     0.046 A 
ENDBRANCH   4  18
TORSDOF 6
ENDMDL
