MODEL 1
REMARK VINA RESULT:      -6.7      0.000      0.000
REMARK  5 active torsions:
REMARK  status: ('A' for Active; 'I' for Inactive)
REMARK    1  A    between atoms: C_2  and  N_3 
REMARK    2  A    between atoms: C_2  and  C_7 
REMARK       I    between atoms: N_3  and  C_4 
REMARK       I    between atoms: C_4  and  N_6 
REMARK       I    between atoms: C_7  and  N_9 
REMARK    3  A    between atoms: N_9  and  C_10 
REMARK    4  A    between atoms: C_10  and  C_11 
REMARK    5  A    between atoms: C_14  and  N_18 
ROOT
HETATM    1  C   UNL     1     -41.803 -49.018  11.734  1.00  0.00     0.162 C 
ENDROOT
BRANCH   1   2
HETATM    2  N   UNL     1     -42.669 -48.568  10.670  1.00  0.00    -0.355 N 
HETATM    3  C   UNL     1     -43.321 -47.352  10.810  1.00  0.00     0.240 C 
HETATM    4  O   UNL     1     -43.050 -46.567  11.716  1.00  0.00    -0.271 OA
HETATM    5  H   UNL     1     -43.059 -49.237  10.019  1.00  0.00     0.162 HD
BRANCH   3   6
HETATM    6  C   UNL     1     -44.259 -46.973   9.650  1.00  0.00     0.174 C 
HETATM    7  C   UNL     1     -43.465 -46.246   8.574  1.00  0.00     0.042 C 
BRANCH   6   8
HETATM    8  N   UNL     1     -44.917 -48.165   9.097  1.00  0.00    -0.330 N 
HETATM    9  C   UNL     1     -46.215 -48.055   8.684  1.00  0.00     0.314 C 
HETATM   10  O   UNL     1     -46.954 -47.103   8.873  1.00  0.00    -0.248 OA
HETATM   11  N   UNL     1     -46.614 -49.135   7.966  1.00  0.00    -0.352 N 
HETATM   12  H   UNL     1     -46.264 -50.038   8.238  1.00  0.00     0.160 HD
HETATM   13  H   UNL     1     -47.602 -49.110   7.727  1.00  0.00     0.160 HD
HETATM   14  H   UNL     1     -44.354 -48.760   8.507  1.00  0.00     0.165 HD
ENDBRANCH   6   8
ENDBRANCH   3   6
ENDBRANCH   1   2
BRANCH   1  15
HETATM   15  C   UNL     1     -42.371 -50.146  12.543  1.00  0.00    -0.025 A 
HETATM   16  C   UNL     1     -41.972 -51.462  12.344  1.00  0.00     0.014 A 
HETATM   17  C   UNL     1     -42.590 -52.493  13.061  1.00  0.00     0.049 A 
HETATM   18  C   UNL     1     -43.605 -52.218  13.979  1.00  0.00     0.103 A 
HETATM   19  N   UNL     1     -43.962 -50.935  14.203  1.00  0.00    -0.352 N 
HETATM   20  C   UNL     1     -43.356 -49.943  13.497  1.00  0.00     0.098 A 
ATOM     21  HN  UNL     1     -44.677 -50.712  14.894  1.00  0.00     0.166 HD
BRANCH  18  22
HETATM   22  N   UNL     1     -44.204 -53.226  14.711  1.00  0.00    -0.363 N 
HETATM   23  C   UNL     1     -44.091 -54.646  14.339  1.00  0.00     0.150 C 
HETATM   24  C   UNL     1     -45.428 -55.190  13.806  1.00  0.00     0.187 C 
HETATM   25  O   UNL     1     -46.506 -54.946  14.721  1.00  0.00    -0.388 OA
HETATM   26  C   UNL     1     -46.659 -53.529  14.930  1.00  0.00     0.187 C 
HETATM   27  C   UNL     1     -45.387 -52.915  15.531  1.00  0.00     0.150 C 
ENDBRANCH  18  22
ENDBRANCH   1  15
TORSDOF 5
ENDMDL
MODEL 2
REMARK VINA RESULT:      -6.5      1.889      2.365
REMARK  5 active torsions:
REMARK  status: ('A' for Active; 'I' for Inactive)
REMARK    1  A    between atoms: C_2  and  N_3 
REMARK    2  A    between atoms: C_2  and  C_7 
REMARK       I    between atoms: N_3  and  C_4 
REMARK       I    between atoms: C_4  and  N_6 
REMARK       I    between atoms: C_7  and  N_9 
REMARK    3  A    between atoms: N_9  and  C_10 
REMARK    4  A    between atoms: C_10  and  C_11 
REMARK    5  A    between atoms: C_14  and  N_18 
ROOT
HETATM    1  C   UNL     1     -40.332 -50.911  11.713  1.00  0.00     0.162 C 
ENDROOT
BRANCH   1   2
HETATM    2  N   UNL     1     -41.090 -49.923  10.983  1.00  0.00    -0.355 N 
HETATM    3  C   UNL     1     -41.035 -48.600  11.397  1.00  0.00     0.240 C 
HETATM    4  O   UNL     1     -40.229 -48.214  12.242  1.00  0.00    -0.271 OA
HETATM    5  H   UNL     1     -41.885 -50.207  10.425  1.00  0.00     0.162 HD
BRANCH   3   6
HETATM    6  C   UNL     1     -41.908 -47.623  10.591  1.00  0.00     0.174 C 
HETATM    7  C   UNL     1     -41.267 -46.243  10.600  1.00  0.00     0.042 C 
BRANCH   6   8
HETATM    8  N   UNL     1     -42.095 -48.101   9.213  1.00  0.00    -0.330 N 
HETATM    9  C   UNL     1     -43.223 -47.721   8.543  1.00  0.00     0.314 C 
HETATM   10  O   UNL     1     -44.189 -47.148   9.023  1.00  0.00    -0.248 OA
HETATM   11  N   UNL     1     -43.151 -48.007   7.219  1.00  0.00    -0.352 N 
HETATM   12  H   UNL     1     -42.683 -48.855   6.945  1.00  0.00     0.160 HD
HETATM   13  H   UNL     1     -44.016 -47.812   6.722  1.00  0.00     0.160 HD
HETATM   14  H   UNL     1     -41.272 -48.136   8.630  1.00  0.00     0.165 HD
ENDBRANCH   6   8
ENDBRANCH   3   6
ENDBRANCH   1   2
BRANCH   1  15
HETATM   15  C   UNL     1     -41.180 -51.877  12.486  1.00  0.00    -0.025 A 
HETATM   16  C   UNL     1     -40.802 -53.203  12.664  1.00  0.00     0.014 A 
HETATM   17  C   UNL     1     -41.663 -54.091  13.319  1.00  0.00     0.049 A 
HETATM   18  C   UNL     1     -42.902 -53.664  13.799  1.00  0.00     0.103 A 
HETATM   19  N   UNL     1     -43.250 -52.366  13.663  1.00  0.00    -0.352 N 
HETATM   20  C   UNL     1     -42.406 -51.513  13.023  1.00  0.00     0.098 A 
ATOM     21  HN  UNL     1     -44.136 -52.028  14.038  1.00  0.00     0.166 HD
BRANCH  18  22
HETATM   22  N   UNL     1     -43.749 -54.526  14.469  1.00  0.00    -0.363 N 
HETATM   23  C   UNL     1     -45.032 -54.971  13.901  1.00  0.00     0.150 C 
HETATM   24  C   UNL     1     -46.220 -54.337  14.646  1.00  0.00     0.187 C 
HETATM   25  O   UNL     1     -46.140 -54.556  16.062  1.00  0.00    -0.388 OA
HETATM   26  C   UNL     1     -44.932 -53.969  16.580  1.00  0.00     0.187 C 
HETATM   27  C   UNL     1     -43.688 -54.600  15.938  1.00  0.00     0.150 C 
ENDBRANCH  18  22
ENDBRANCH   1  15
TORSDOF 5
ENDMDL
MODEL 3
REMARK VINA RESULT:      -6.5      3.017      4.495
REMARK  5 active torsions:
REMARK  status: ('A' for Active; 'I' for Inactive)
REMARK    1  A    between atoms: C_2  and  N_3 
REMARK    2  A    between atoms: C_2  and  C_7 
REMARK       I    between atoms: N_3  and  C_4 
REMARK       I    between atoms: C_4  and  N_6 
REMARK       I    between atoms: C_7  and  N_9 
REMARK    3  A    between atoms: N_9  and  C_10 
REMARK    4  A    between atoms: C_10  and  C_11 
REMARK    5  A    between atoms: C_14  and  N_18 
ROOT
HETATM    1  C   UNL     1     -40.961 -53.494  12.329  1.00  0.00     0.162 C 
ENDROOT
BRANCH   1   2
HETATM    2  N   UNL     1     -40.612 -52.195  11.803  1.00  0.00    -0.355 N 
HETATM    3  C   UNL     1     -39.660 -51.439  12.470  1.00  0.00     0.240 C 
HETATM    4  O   UNL     1     -38.978 -51.905  13.380  1.00  0.00    -0.271 OA
HETATM    5  H   UNL     1     -41.257 -51.707  11.195  1.00  0.00     0.162 HD
BRANCH   3   6
HETATM    6  C   UNL     1     -39.385 -50.051  11.868  1.00  0.00     0.174 C 
HETATM    7  C   UNL     1     -37.939 -49.979  11.398  1.00  0.00     0.042 C 
BRANCH   6   8
HETATM    8  N   UNL     1     -40.307 -49.767  10.759  1.00  0.00    -0.330 N 
HETATM    9  C   UNL     1     -41.193 -48.737  10.899  1.00  0.00     0.314 C 
HETATM   10  O   UNL     1     -41.417 -48.112  11.923  1.00  0.00    -0.248 OA
HETATM   11  N   UNL     1     -41.797 -48.420   9.726  1.00  0.00    -0.352 N 
HETATM   12  H   UNL     1     -42.017 -49.169   9.092  1.00  0.00     0.160 HD
HETATM   13  H   UNL     1     -42.522 -47.715   9.830  1.00  0.00     0.160 HD
HETATM   14  H   UNL     1     -39.933 -49.855   9.825  1.00  0.00     0.165 HD
ENDBRANCH   6   8
ENDBRANCH   3   6
ENDBRANCH   1   2
BRANCH   1  15
HETATM   15  C   UNL     1     -42.205 -53.496  13.166  1.00  0.00    -0.025 A 
HETATM   16  C   UNL     1     -42.392 -54.412  14.195  1.00  0.00     0.014 A 
HETATM   17  C   UNL     1     -43.603 -54.434  14.895  1.00  0.00     0.049 A 
HETATM   18  C   UNL     1     -44.631 -53.546  14.576  1.00  0.00     0.103 A 
HETATM   19  N   UNL     1     -44.432 -52.628  13.605  1.00  0.00    -0.352 N 
HETATM   20  C   UNL     1     -43.252 -52.619  12.930  1.00  0.00     0.098 A 
ATOM     21  HN  UNL     1     -45.159 -51.949  13.382  1.00  0.00     0.166 HD
BRANCH  18  22
HETATM   22  N   UNL     1     -45.822 -53.543  15.279  1.00  0.00    -0.363 N 
HETATM   23  C   UNL     1     -46.966 -52.703  14.887  1.00  0.00     0.150 C 
HETATM   24  C   UNL     1     -47.179 -51.552  15.885  1.00  0.00     0.187 C 
HETATM   25  O   UNL     1     -47.284 -52.028  17.235  1.00  0.00    -0.388 OA
HETATM   26  C   UNL     1     -46.073 -52.714  17.606  1.00  0.00     0.187 C 
HETATM   27  C   UNL     1     -45.822 -53.928  16.700  1.00  0.00     0.150 C 
ENDBRANCH  18  22
ENDBRANCH   1  15
TORSDOF 5
ENDMDL
MODEL 4
REMARK VINA RESULT:      -6.4      2.739      3.270
REMARK  5 active torsions:
REMARK  status: ('A' for Active; 'I' for Inactive)
REMARK    1  A    between atoms: C_2  and  N_3 
REMARK    2  A    between atoms: C_2  and  C_7 
REMARK       I    between atoms: N_3  and  C_4 
REMARK       I    between atoms: C_4  and  N_6 
REMARK       I    between atoms: C_7  and  N_9 
REMARK    3  A    between atoms: N_9  and  C_10 
REMARK    4  A    between atoms: C_10  and  C_11 
REMARK    5  A    between atoms: C_14  and  N_18 
ROOT
HETATM    1  C   UNL     1     -40.582 -47.379  11.196  1.00  0.00     0.162 C 
ENDROOT
BRANCH   1   2
HETATM    2  N   UNL     1     -41.657 -47.205  10.248  1.00  0.00    -0.355 N 
HETATM    3  C   UNL     1     -42.918 -46.875  10.722  1.00  0.00     0.240 C 
HETATM    4  O   UNL     1     -43.110 -46.549  11.892  1.00  0.00    -0.271 OA
HETATM    5  H   UNL     1     -41.598 -47.633   9.333  1.00  0.00     0.162 HD
BRANCH   3   6
HETATM    6  C   UNL     1     -44.012 -46.754   9.648  1.00  0.00     0.174 C 
HETATM    7  C   UNL     1     -43.368 -46.493   8.294  1.00  0.00     0.042 C 
BRANCH   6   8
HETATM    8  N   UNL     1     -44.840 -47.968   9.604  1.00  0.00    -0.330 N 
HETATM    9  C   UNL     1     -46.111 -47.868   9.113  1.00  0.00     0.314 C 
HETATM   10  O   UNL     1     -46.703 -46.834   8.848  1.00  0.00    -0.248 OA
HETATM   11  N   UNL     1     -46.668 -49.084   8.888  1.00  0.00    -0.352 N 
HETATM   12  H   UNL     1     -46.450 -49.828   9.529  1.00  0.00     0.160 HD
HETATM   13  H   UNL     1     -47.643 -49.029   8.606  1.00  0.00     0.160 HD
HETATM   14  H   UNL     1     -44.374 -48.825   9.348  1.00  0.00     0.165 HD
ENDBRANCH   6   8
ENDBRANCH   3   6
ENDBRANCH   1   2
BRANCH   1  15
HETATM   15  C   UNL     1     -40.491 -48.765  11.764  1.00  0.00    -0.025 A 
HETATM   16  C   UNL     1     -40.109 -48.991  13.081  1.00  0.00     0.014 A 
HETATM   17  C   UNL     1     -39.955 -50.303  13.545  1.00  0.00     0.049 A 
HETATM   18  C   UNL     1     -40.182 -51.392  12.702  1.00  0.00     0.103 A 
HETATM   19  N   UNL     1     -40.596 -51.171  11.436  1.00  0.00    -0.352 N 
HETATM   20  C   UNL     1     -40.738 -49.892  10.996  1.00  0.00     0.098 A 
ATOM     21  HN  UNL     1     -40.800 -51.954  10.816  1.00  0.00     0.166 HD
BRANCH  18  22
HETATM   22  N   UNL     1     -40.058 -52.691  13.157  1.00  0.00    -0.363 N 
HETATM   23  C   UNL     1     -40.961 -53.769  12.723  1.00  0.00     0.150 C 
HETATM   24  C   UNL     1     -41.903 -54.199  13.861  1.00  0.00     0.187 C 
HETATM   25  O   UNL     1     -41.180 -54.535  15.054  1.00  0.00    -0.388 OA
HETATM   26  C   UNL     1     -40.431 -53.393  15.510  1.00  0.00     0.187 C 
HETATM   27  C   UNL     1     -39.410 -52.941  14.456  1.00  0.00     0.150 C 
ENDBRANCH  18  22
ENDBRANCH   1  15
TORSDOF 5
ENDMDL
MODEL 5
REMARK VINA RESULT:      -6.2      2.138      2.718
REMARK  5 active torsions:
REMARK  status: ('A' for Active; 'I' for Inactive)
REMARK    1  A    between atoms: C_2  and  N_3 
REMARK    2  A    between atoms: C_2  and  C_7 
REMARK       I    between atoms: N_3  and  C_4 
REMARK       I    between atoms: C_4  and  N_6 
REMARK       I    between atoms: C_7  and  N_9 
REMARK    3  A    between atoms: N_9  and  C_10 
REMARK    4  A    between atoms: C_10  and  C_11 
REMARK    5  A    between atoms: C_14  and  N_18 
ROOT
HETATM    1  C   UNL     1     -42.794 -47.791  13.692  1.00  0.00     0.162 C 
ENDROOT
BRANCH   1   2
HETATM    2  N   UNL     1     -42.768 -47.106  12.421  1.00  0.00    -0.355 N 
HETATM    3  C   UNL     1     -41.592 -46.492  12.018  1.00  0.00     0.240 C 
HETATM    4  O   UNL     1     -40.530 -46.662  12.613  1.00  0.00    -0.271 OA
HETATM    5  H   UNL     1     -43.632 -46.786  12.002  1.00  0.00     0.162 HD
BRANCH   3   6
HETATM    6  C   UNL     1     -41.668 -45.747  10.674  1.00  0.00     0.174 C 
HETATM    7  C   UNL     1     -40.299 -45.178  10.331  1.00  0.00     0.042 C 
BRANCH   6   8
HETATM    8  N   UNL     1     -42.143 -46.639   9.606  1.00  0.00    -0.330 N 
HETATM    9  C   UNL     1     -43.147 -46.198   8.791  1.00  0.00     0.314 C 
HETATM   10  O   UNL     1     -43.815 -45.190   8.952  1.00  0.00    -0.248 OA
HETATM   11  N   UNL     1     -43.309 -46.995   7.705  1.00  0.00    -0.352 N 
HETATM   12  H   UNL     1     -43.177 -47.985   7.823  1.00  0.00     0.160 HD
HETATM   13  H   UNL     1     -44.109 -46.731   7.135  1.00  0.00     0.160 HD
HETATM   14  H   UNL     1     -41.441 -47.183   9.125  1.00  0.00     0.165 HD
ENDBRANCH   6   8
ENDBRANCH   3   6
ENDBRANCH   1   2
BRANCH   1  15
HETATM   15  C   UNL     1     -42.997 -49.273  13.579  1.00  0.00    -0.025 A 
HETATM   16  C   UNL     1     -43.683 -49.993  14.550  1.00  0.00     0.014 A 
HETATM   17  C   UNL     1     -43.775 -51.385  14.448  1.00  0.00     0.049 A 
HETATM   18  C   UNL     1     -43.186 -52.066  13.382  1.00  0.00     0.103 A 
HETATM   19  N   UNL     1     -42.557 -51.361  12.416  1.00  0.00    -0.352 N 
HETATM   20  C   UNL     1     -42.471 -50.009  12.528  1.00  0.00     0.098 A 
ATOM     21  HN  UNL     1     -42.151 -51.838  11.612  1.00  0.00     0.166 HD
BRANCH  18  22
HETATM   22  N   UNL     1     -43.293 -53.439  13.258  1.00  0.00    -0.363 N 
HETATM   23  C   UNL     1     -44.528 -54.096  12.801  1.00  0.00     0.150 C 
HETATM   24  C   UNL     1     -45.219 -54.845  13.954  1.00  0.00     0.187 C 
HETATM   25  O   UNL     1     -44.325 -55.753  14.613  1.00  0.00    -0.388 OA
HETATM   26  C   UNL     1     -43.210 -55.028  15.165  1.00  0.00     0.187 C 
HETATM   27  C   UNL     1     -42.418 -54.305  14.066  1.00  0.00     0.150 C 
ENDBRANCH  18  22
ENDBRANCH   1  15
TORSDOF 5
ENDMDL
MODEL 6
REMARK VINA RESULT:      -6.0      3.807      5.865
REMARK  5 active torsions:
REMARK  status: ('A' for Active; 'I' for Inactive)
REMARK    1  A    between atoms: C_2  and  N_3 
REMARK    2  A    between atoms: C_2  and  C_7 
REMARK       I    between atoms: N_3  and  C_4 
REMARK       I    between atoms: C_4  and  N_6 
REMARK       I    between atoms: C_7  and  N_9 
REMARK    3  A    between atoms: N_9  and  C_10 
REMARK    4  A    between atoms: C_10  and  C_11 
REMARK    5  A    between atoms: C_14  and  N_18 
ROOT
HETATM    1  C   UNL     1     -45.166 -51.299  13.100  1.00  0.00     0.162 C 
ENDROOT
BRANCH   1   2
HETATM    2  N   UNL     1     -43.730 -51.313  12.950  1.00  0.00    -0.355 N 
HETATM    3  C   UNL     1     -43.091 -52.528  12.755  1.00  0.00     0.240 C 
HETATM    4  O   UNL     1     -43.714 -53.563  12.525  1.00  0.00    -0.271 OA
HETATM    5  H   UNL     1     -43.178 -50.545  13.309  1.00  0.00     0.162 HD
BRANCH   3   6
HETATM    6  C   UNL     1     -41.558 -52.454  12.651  1.00  0.00     0.174 C 
HETATM    7  C   UNL     1     -40.979 -53.862  12.684  1.00  0.00     0.042 C 
BRANCH   6   8
HETATM    8  N   UNL     1     -41.148 -51.752  11.427  1.00  0.00    -0.330 N 
HETATM    9  C   UNL     1     -40.811 -50.431  11.520  1.00  0.00     0.314 C 
HETATM   10  O   UNL     1     -40.966 -49.714  12.495  1.00  0.00    -0.248 OA
HETATM   11  N   UNL     1     -40.212 -49.977  10.390  1.00  0.00    -0.352 N 
HETATM   12  H   UNL     1     -40.535 -50.337   9.508  1.00  0.00     0.160 HD
HETATM   13  H   UNL     1     -40.034 -48.976  10.409  1.00  0.00     0.160 HD
HETATM   14  H   UNL     1     -40.576 -52.270  10.777  1.00  0.00     0.165 HD
ENDBRANCH   6   8
ENDBRANCH   3   6
ENDBRANCH   1   2
BRANCH   1  15
HETATM   15  C   UNL     1     -45.627 -51.218  14.525  1.00  0.00    -0.025 A 
HETATM   16  C   UNL     1     -46.915 -51.583  14.899  1.00  0.00     0.014 A 
HETATM   17  C   UNL     1     -47.330 -51.411  16.224  1.00  0.00     0.049 A 
HETATM   18  C   UNL     1     -46.467 -50.877  17.182  1.00  0.00     0.103 A 
HETATM   19  N   UNL     1     -45.202 -50.563  16.827  1.00  0.00    -0.352 N 
HETATM   20  C   UNL     1     -44.811 -50.732  15.535  1.00  0.00     0.098 A 
ATOM     21  HN  UNL     1     -44.546 -50.204  17.520  1.00  0.00     0.166 HD
BRANCH  18  22
HETATM   22  N   UNL     1     -46.858 -50.726  18.499  1.00  0.00    -0.363 N 
HETATM   23  C   UNL     1     -46.107 -51.319  19.618  1.00  0.00     0.150 C 
HETATM   24  C   UNL     1     -46.881 -52.489  20.250  1.00  0.00     0.187 C 
HETATM   25  O   UNL     1     -48.213 -52.108  20.623  1.00  0.00    -0.388 OA
HETATM   26  C   UNL     1     -48.942 -51.676  19.458  1.00  0.00     0.187 C 
HETATM   27  C   UNL     1     -48.274 -50.459  18.804  1.00  0.00     0.150 C 
ENDBRANCH  18  22
ENDBRANCH   1  15
TORSDOF 5
ENDMDL
MODEL 7
REMARK VINA RESULT:      -5.9      2.876      3.712
REMARK  5 active torsions:
REMARK  status: ('A' for Active; 'I' for Inactive)
REMARK    1  A    between atoms: C_2  and  N_3 
REMARK    2  A    between atoms: C_2  and  C_7 
REMARK       I    between atoms: N_3  and  C_4 
REMARK       I    between atoms: C_4  and  N_6 
REMARK       I    between atoms: C_7  and  N_9 
REMARK    3  A    between atoms: N_9  and  C_10 
REMARK    4  A    between atoms: C_10  and  C_11 
REMARK    5  A    between atoms: C_14  and  N_18 
ROOT
HETATM    1  C   UNL     1     -40.308 -50.452  11.444  1.00  0.00     0.162 C 
ENDROOT
BRANCH   1   2
HETATM    2  N   UNL     1     -40.969 -49.341  10.802  1.00  0.00    -0.355 N 
HETATM    3  C   UNL     1     -40.704 -48.056  11.252  1.00  0.00     0.240 C 
HETATM    4  O   UNL     1     -39.799 -47.818  12.048  1.00  0.00    -0.271 OA
HETATM    5  H   UNL     1     -41.831 -49.491  10.294  1.00  0.00     0.162 HD
BRANCH   3   6
HETATM    6  C   UNL     1     -41.487 -46.938  10.542  1.00  0.00     0.174 C 
HETATM    7  C   UNL     1     -42.944 -47.353  10.395  1.00  0.00     0.042 C 
BRANCH   6   8
HETATM    8  N   UNL     1     -41.379 -45.672  11.281  1.00  0.00    -0.330 N 
HETATM    9  C   UNL     1     -40.631 -44.666  10.737  1.00  0.00     0.314 C 
HETATM   10  O   UNL     1     -39.899 -44.756   9.765  1.00  0.00    -0.248 OA
HETATM   11  N   UNL     1     -40.822 -43.485  11.377  1.00  0.00    -0.352 N 
HETATM   12  H   UNL     1     -40.960 -43.506  12.373  1.00  0.00     0.160 HD
HETATM   13  H   UNL     1     -40.208 -42.747  11.042  1.00  0.00     0.160 HD
HETATM   14  H   UNL     1     -42.212 -45.348  11.749  1.00  0.00     0.165 HD
ENDBRANCH   6   8
ENDBRANCH   3   6
ENDBRANCH   1   2
BRANCH   1  15
HETATM   15  C   UNL     1     -41.248 -51.445  12.059  1.00  0.00    -0.025 A 
HETATM   16  C   UNL     1     -42.419 -51.047  12.694  1.00  0.00     0.014 A 
HETATM   17  C   UNL     1     -43.224 -51.999  13.329  1.00  0.00     0.049 A 
HETATM   18  C   UNL     1     -42.869 -53.349  13.334  1.00  0.00     0.103 A 
HETATM   19  N   UNL     1     -41.754 -53.740  12.679  1.00  0.00    -0.352 N 
HETATM   20  C   UNL     1     -40.978 -52.805  12.069  1.00  0.00     0.098 A 
ATOM     21  HN  UNL     1     -41.498 -54.726  12.642  1.00  0.00     0.166 HD
BRANCH  18  22
HETATM   22  N   UNL     1     -43.671 -54.301  13.936  1.00  0.00    -0.363 N 
HETATM   23  C   UNL     1     -45.036 -54.593  13.469  1.00  0.00     0.150 C 
HETATM   24  C   UNL     1     -46.087 -54.082  14.469  1.00  0.00     0.187 C 
HETATM   25  O   UNL     1     -45.844 -54.572  15.796  1.00  0.00    -0.388 OA
HETATM   26  C   UNL     1     -44.552 -54.129  16.251  1.00  0.00     0.187 C 
HETATM   27  C   UNL     1     -43.432 -54.658  15.345  1.00  0.00     0.150 C 
ENDBRANCH  18  22
ENDBRANCH   1  15
TORSDOF 5
ENDMDL
MODEL 8
REMARK VINA RESULT:      -5.9      3.274      7.982
REMARK  5 active torsions:
REMARK  status: ('A' for Active; 'I' for Inactive)
REMARK    1  A    between atoms: C_2  and  N_3 
REMARK    2  A    between atoms: C_2  and  C_7 
REMARK       I    between atoms: N_3  and  C_4 
REMARK       I    between atoms: C_4  and  N_6 
REMARK       I    between atoms: C_7  and  N_9 
REMARK    3  A    between atoms: N_9  and  C_10 
REMARK    4  A    between atoms: C_10  and  C_11 
REMARK    5  A    between atoms: C_14  and  N_18 
ROOT
HETATM    1  C   UNL     1     -39.637 -50.885  13.513  1.00  0.00     0.162 C 
ENDROOT
BRANCH   1   2
HETATM    2  N   UNL     1     -40.834 -51.677  13.674  1.00  0.00    -0.355 N 
HETATM    3  C   UNL     1     -40.804 -53.014  13.308  1.00  0.00     0.240 C 
HETATM    4  O   UNL     1     -39.755 -53.590  13.026  1.00  0.00    -0.271 OA
HETATM    5  H   UNL     1     -41.737 -51.222  13.717  1.00  0.00     0.162 HD
BRANCH   3   6
HETATM    6  C   UNL     1     -42.135 -53.768  13.469  1.00  0.00     0.174 C 
HETATM    7  C   UNL     1     -42.134 -54.522  14.792  1.00  0.00     0.042 C 
BRANCH   6   8
HETATM    8  N   UNL     1     -43.275 -52.843  13.398  1.00  0.00    -0.330 N 
HETATM    9  C   UNL     1     -44.453 -53.305  12.885  1.00  0.00     0.314 C 
HETATM   10  O   UNL     1     -44.626 -54.374  12.322  1.00  0.00    -0.248 OA
HETATM   11  N   UNL     1     -45.479 -52.447  13.112  1.00  0.00    -0.352 N 
HETATM   12  H   UNL     1     -45.286 -51.460  13.077  1.00  0.00     0.160 HD
HETATM   13  H   UNL     1     -46.344 -52.733  12.661  1.00  0.00     0.160 HD
HETATM   14  H   UNL     1     -43.393 -52.209  14.175  1.00  0.00     0.165 HD
ENDBRANCH   6   8
ENDBRANCH   3   6
ENDBRANCH   1   2
BRANCH   1  15
HETATM   15  C   UNL     1     -39.841 -49.630  12.718  1.00  0.00    -0.025 A 
HETATM   16  C   UNL     1     -39.490 -48.382  13.219  1.00  0.00     0.014 A 
HETATM   17  C   UNL     1     -39.776 -47.229  12.479  1.00  0.00     0.049 A 
HETATM   18  C   UNL     1     -40.411 -47.314  11.239  1.00  0.00     0.103 A 
HETATM   19  N   UNL     1     -40.712 -48.530  10.733  1.00  0.00    -0.352 N 
HETATM   20  C   UNL     1     -40.432 -49.642  11.464  1.00  0.00     0.098 A 
ATOM     21  HN  UNL     1     -41.144 -48.613   9.814  1.00  0.00     0.166 HD
BRANCH  18  22
HETATM   22  N   UNL     1     -40.675 -46.183  10.488  1.00  0.00    -0.363 N 
HETATM   23  C   UNL     1     -39.721 -45.068  10.379  1.00  0.00     0.150 C 
HETATM   24  C   UNL     1     -40.224 -43.830  11.143  1.00  0.00     0.187 C 
HETATM   25  O   UNL     1     -41.551 -43.459  10.743  1.00  0.00    -0.388 OA
HETATM   26  C   UNL     1     -42.463 -44.541  11.011  1.00  0.00     0.187 C 
HETATM   27  C   UNL     1     -42.074 -45.802  10.227  1.00  0.00     0.150 C 
ENDBRANCH  18  22
ENDBRANCH   1  15
TORSDOF 5
ENDMDL
MODEL 9
REMARK VINA RESULT:      -5.8      4.070      5.482
REMARK  5 active torsions:
REMARK  status: ('A' for Active; 'I' for Inactive)
REMARK    1  A    between atoms: C_2  and  N_3 
REMARK    2  A    between atoms: C_2  and  C_7 
REMARK       I    between atoms: N_3  and  C_4 
REMARK       I    between atoms: C_4  and  N_6 
REMARK       I    between atoms: C_7  and  N_9 
REMARK    3  A    between atoms: N_9  and  C_10 
REMARK    4  A    between atoms: C_10  and  C_11 
REMARK    5  A    between atoms: C_14  and  N_18 
ROOT
HETATM    1  C   UNL     1     -39.598 -54.296  14.517  1.00  0.00     0.162 C 
ENDROOT
BRANCH   1   2
HETATM    2  N   UNL     1     -39.184 -53.236  13.627  1.00  0.00    -0.355 N 
HETATM    3  C   UNL     1     -38.981 -51.967  14.149  1.00  0.00     0.240 C 
HETATM    4  O   UNL     1     -38.965 -51.755  15.360  1.00  0.00    -0.271 OA
HETATM    5  H   UNL     1     -39.363 -53.312  12.634  1.00  0.00     0.162 HD
BRANCH   3   6
HETATM    6  C   UNL     1     -38.587 -50.891  13.123  1.00  0.00     0.174 C 
HETATM    7  C   UNL     1     -37.153 -51.125  12.668  1.00  0.00     0.042 C 
BRANCH   6   8
HETATM    8  N   UNL     1     -39.505 -50.900  11.975  1.00  0.00    -0.330 N 
HETATM    9  C   UNL     1     -39.854 -49.703  11.415  1.00  0.00     0.314 C 
HETATM   10  O   UNL     1     -39.609 -48.596  11.868  1.00  0.00    -0.248 OA
HETATM   11  N   UNL     1     -40.485 -49.861  10.225  1.00  0.00    -0.352 N 
HETATM   12  H   UNL     1     -41.104 -50.647  10.120  1.00  0.00     0.160 HD
HETATM   13  H   UNL     1     -40.829 -48.987   9.838  1.00  0.00     0.160 HD
HETATM   14  H   UNL     1     -39.380 -51.640  11.300  1.00  0.00     0.165 HD
ENDBRANCH   6   8
ENDBRANCH   3   6
ENDBRANCH   1   2
BRANCH   1  15
HETATM   15  C   UNL     1     -41.074 -54.324  14.781  1.00  0.00    -0.025 A 
HETATM   16  C   UNL     1     -42.002 -54.275  13.748  1.00  0.00     0.014 A 
HETATM   17  C   UNL     1     -43.369 -54.218  14.043  1.00  0.00     0.049 A 
HETATM   18  C   UNL     1     -43.817 -54.210  15.365  1.00  0.00     0.103 A 
HETATM   19  N   UNL     1     -42.916 -54.302  16.367  1.00  0.00    -0.352 N 
HETATM   20  C   UNL     1     -41.590 -54.354  16.068  1.00  0.00     0.098 A 
ATOM     21  HN  UNL     1     -43.226 -54.333  17.338  1.00  0.00     0.166 HD
BRANCH  18  22
HETATM   22  N   UNL     1     -45.166 -54.180  15.667  1.00  0.00    -0.363 N 
HETATM   23  C   UNL     1     -46.202 -54.016  14.635  1.00  0.00     0.150 C 
HETATM   24  C   UNL     1     -46.862 -52.629  14.723  1.00  0.00     0.187 C 
HETATM   25  O   UNL     1     -47.353 -52.355  16.044  1.00  0.00    -0.388 OA
HETATM   26  C   UNL     1     -46.265 -52.386  16.986  1.00  0.00     0.187 C 
HETATM   27  C   UNL     1     -45.593 -53.766  17.014  1.00  0.00     0.150 C 
ENDBRANCH  18  22
ENDBRANCH   1  15
TORSDOF 5
ENDMDL
