MODEL 1
REMARK VINA RESULT:      -6.1      0.000      0.000
REMARK  3 active torsions:
REMARK  status: ('A' for Active; 'I' for Inactive)
REMARK    1  A    between atoms: C_2  and  C_3 
REMARK       I    between atoms: C_2  and  N_12 
REMARK    2  A    between atoms: C_3  and  N_4 
REMARK    3  A    between atoms: N_12  and  C_13 
ROOT
HETATM    1  O   UNL     1     -43.053 -46.647  11.656  1.00  0.00    -0.272 OA
HETATM    2  C   UNL     1     -42.640 -46.929  10.532  1.00  0.00     0.236 C 
HETATM    3  N   UNL     1     -41.548 -47.742  10.303  1.00  0.00    -0.355 N 
HETATM    4  H   UNL     1     -41.203 -47.826   9.348  1.00  0.00     0.162 HD
ENDROOT
BRANCH   2   5
HETATM    5  C   UNL     1     -43.261 -46.327   9.272  1.00  0.00     0.235 C 
BRANCH   5   6
HETATM    6  N   UNL     1     -44.397 -47.125   8.826  1.00  0.00    -0.301 N 
HETATM    7  C   UNL     1     -45.639 -46.934   9.390  1.00  0.00     0.097 A 
HETATM    8  C   UNL     1     -46.690 -47.648   8.992  1.00  0.00     0.034 A 
HETATM    9  C   UNL     1     -46.397 -48.619   7.930  1.00  0.00     0.094 A 
HETATM   10  N   UNL     1     -45.251 -48.803   7.372  1.00  0.00    -0.319 N 
HETATM   11  C   UNL     1     -44.187 -48.040   7.787  1.00  0.00     0.326 A 
ATOM     12  HN  UNL     1     -45.137 -49.501   6.637  1.00  0.00     0.170 HD
HETATM   13  O   UNL     1     -43.079 -48.150   7.264  1.00  0.00    -0.246 OA
ENDBRANCH   5   6
ENDBRANCH   2   5
BRANCH   3  14
HETATM   14  C   UNL     1     -40.803 -48.388  11.383  1.00  0.00     0.084 C 
HETATM   15  C   UNL     1     -39.589 -47.524  11.760  1.00  0.00     0.025 C 
HETATM   16  C   UNL     1     -39.002 -47.891  13.121  1.00  0.00     0.002 C 
HETATM   17  C   UNL     1     -37.964 -49.008  13.109  1.00  0.00     0.000 C 
HETATM   18  C   UNL     1     -38.200 -50.168  12.148  1.00  0.00     0.000 C 
HETATM   19  C   UNL     1     -39.652 -50.618  12.021  1.00  0.00     0.002 C 
HETATM   20  C   UNL     1     -40.436 -49.822  10.975  1.00  0.00     0.025 C 
ENDBRANCH   3  14
TORSDOF 3
ENDMDL
MODEL 2
REMARK VINA RESULT:      -5.7      5.298      5.883
REMARK  3 active torsions:
REMARK  status: ('A' for Active; 'I' for Inactive)
REMARK    1  A    between atoms: C_2  and  C_3 
REMARK       I    between atoms: C_2  and  N_12 
REMARK    2  A    between atoms: C_3  and  N_4 
REMARK    3  A    between atoms: N_12  and  C_13 
ROOT
HETATM    1  O   UNL     1     -42.444 -52.569  14.081  1.00  0.00    -0.272 OA
HETATM    2  C   UNL     1     -42.738 -52.402  12.898  1.00  0.00     0.236 C 
HETATM    3  N   UNL     1     -42.018 -51.596  12.040  1.00  0.00    -0.355 N 
HETATM    4  H   UNL     1     -42.399 -51.421  11.112  1.00  0.00     0.162 HD
ENDROOT
BRANCH   2   5
HETATM    5  C   UNL     1     -43.996 -53.020  12.287  1.00  0.00     0.235 C 
BRANCH   5   6
HETATM    6  N   UNL     1     -45.134 -52.865  13.186  1.00  0.00    -0.301 N 
HETATM    7  C   UNL     1     -45.599 -51.608  13.501  1.00  0.00     0.097 A 
HETATM    8  C   UNL     1     -46.640 -51.446  14.315  1.00  0.00     0.034 A 
HETATM    9  C   UNL     1     -47.218 -52.699  14.817  1.00  0.00     0.094 A 
HETATM   10  N   UNL     1     -46.817 -53.887  14.522  1.00  0.00    -0.319 N 
HETATM   11  C   UNL     1     -45.752 -54.027  13.665  1.00  0.00     0.326 A 
ATOM     12  HN  UNL     1     -47.279 -54.705  14.916  1.00  0.00     0.170 HD
HETATM   13  O   UNL     1     -45.349 -55.138  13.322  1.00  0.00    -0.246 OA
ENDBRANCH   5   6
ENDBRANCH   2   5
BRANCH   3  14
HETATM   14  C   UNL     1     -40.799 -50.896  12.448  1.00  0.00     0.084 C 
HETATM   15  C   UNL     1     -40.345 -49.954  11.322  1.00  0.00     0.025 C 
HETATM   16  C   UNL     1     -39.351 -48.899  11.800  1.00  0.00     0.002 C 
HETATM   17  C   UNL     1     -37.885 -49.321  11.780  1.00  0.00     0.000 C 
HETATM   18  C   UNL     1     -37.570 -50.761  12.169  1.00  0.00     0.000 C 
HETATM   19  C   UNL     1     -38.400 -51.316  13.323  1.00  0.00     0.002 C 
HETATM   20  C   UNL     1     -39.731 -51.917  12.867  1.00  0.00     0.025 C 
ENDBRANCH   3  14
TORSDOF 3
ENDMDL
MODEL 3
REMARK VINA RESULT:      -5.7      7.775      9.098
REMARK  3 active torsions:
REMARK  status: ('A' for Active; 'I' for Inactive)
REMARK    1  A    between atoms: C_2  and  C_3 
REMARK       I    between atoms: C_2  and  N_12 
REMARK    2  A    between atoms: C_3  and  N_4 
REMARK    3  A    between atoms: N_12  and  C_13 
ROOT
HETATM    1  O   UNL     1     -45.970 -54.652  16.708  1.00  0.00    -0.272 OA
HETATM    2  C   UNL     1     -45.949 -53.956  15.694  1.00  0.00     0.236 C 
HETATM    3  N   UNL     1     -46.181 -52.595  15.698  1.00  0.00    -0.355 N 
HETATM    4  H   UNL     1     -46.263 -52.118  14.802  1.00  0.00     0.162 HD
ENDROOT
BRANCH   2   5
HETATM    5  C   UNL     1     -45.742 -54.562  14.306  1.00  0.00     0.235 C 
BRANCH   5   6
HETATM    6  N   UNL     1     -44.477 -54.115  13.733  1.00  0.00    -0.301 N 
HETATM    7  C   UNL     1     -43.285 -54.511  14.299  1.00  0.00     0.097 A 
HETATM    8  C   UNL     1     -42.120 -54.120  13.787  1.00  0.00     0.034 A 
HETATM    9  C   UNL     1     -42.236 -53.260  12.602  1.00  0.00     0.094 A 
HETATM   10  N   UNL     1     -43.336 -52.893  12.041  1.00  0.00    -0.319 N 
HETATM   11  C   UNL     1     -44.524 -53.325  12.578  1.00  0.00     0.326 A 
ATOM     12  HN  UNL     1     -43.324 -52.293  11.216  1.00  0.00     0.170 HD
HETATM   13  O   UNL     1     -45.602 -53.034  12.062  1.00  0.00    -0.246 OA
ENDBRANCH   5   6
ENDBRANCH   2   5
BRANCH   3  14
HETATM   14  C   UNL     1     -46.428 -51.839  16.926  1.00  0.00     0.084 C 
HETATM   15  C   UNL     1     -47.823 -51.197  16.864  1.00  0.00     0.025 C 
HETATM   16  C   UNL     1     -48.330 -50.749  18.233  1.00  0.00     0.002 C 
HETATM   17  C   UNL     1     -47.911 -49.346  18.661  1.00  0.00     0.000 C 
HETATM   18  C   UNL     1     -46.503 -48.895  18.289  1.00  0.00     0.000 C 
HETATM   19  C   UNL     1     -45.426 -49.970  18.410  1.00  0.00     0.002 C 
HETATM   20  C   UNL     1     -45.294 -50.829  17.151  1.00  0.00     0.025 C 
ENDBRANCH   3  14
TORSDOF 3
ENDMDL
MODEL 4
REMARK VINA RESULT:      -5.6      5.279      7.512
REMARK  3 active torsions:
REMARK  status: ('A' for Active; 'I' for Inactive)
REMARK    1  A    between atoms: C_2  and  C_3 
REMARK       I    between atoms: C_2  and  N_12 
REMARK    2  A    between atoms: C_3  and  N_4 
REMARK    3  A    between atoms: N_12  and  C_13 
ROOT
HETATM    1  O   UNL     1     -42.219 -52.385  13.914  1.00  0.00    -0.272 OA
HETATM    2  C   UNL     1     -42.247 -52.521  12.692  1.00  0.00     0.236 C 
HETATM    3  N   UNL     1     -43.389 -52.841  11.986  1.00  0.00    -0.355 N 
HETATM    4  H   UNL     1     -43.298 -53.051  10.994  1.00  0.00     0.162 HD
ENDROOT
BRANCH   2   5
HETATM    5  C   UNL     1     -40.978 -52.428  11.844  1.00  0.00     0.235 C 
BRANCH   5   6
HETATM    6  N   UNL     1     -40.320 -51.142  12.041  1.00  0.00    -0.301 N 
HETATM    7  C   UNL     1     -40.885 -49.993  11.533  1.00  0.00     0.097 A 
HETATM    8  C   UNL     1     -40.303 -48.808  11.707  1.00  0.00     0.034 A 
HETATM    9  C   UNL     1     -39.050 -48.854  12.470  1.00  0.00     0.094 A 
HETATM   10  N   UNL     1     -38.511 -49.911  12.974  1.00  0.00    -0.319 N 
HETATM   11  C   UNL     1     -39.141 -51.118  12.795  1.00  0.00     0.326 A 
ATOM     12  HN  UNL     1     -37.636 -49.851  13.493  1.00  0.00     0.170 HD
HETATM   13  O   UNL     1     -38.690 -52.154  13.284  1.00  0.00    -0.246 OA
ENDBRANCH   5   6
ENDBRANCH   2   5
BRANCH   3  14
HETATM   14  C   UNL     1     -44.695 -53.001  12.626  1.00  0.00     0.084 C 
HETATM   15  C   UNL     1     -45.074 -51.701  13.354  1.00  0.00     0.025 C 
HETATM   16  C   UNL     1     -46.561 -51.624  13.690  1.00  0.00     0.002 C 
HETATM   17  C   UNL     1     -46.970 -52.262  15.013  1.00  0.00     0.000 C 
HETATM   18  C   UNL     1     -46.260 -53.551  15.414  1.00  0.00     0.000 C 
HETATM   19  C   UNL     1     -45.991 -54.523  14.270  1.00  0.00     0.002 C 
HETATM   20  C   UNL     1     -44.678 -54.236  13.537  1.00  0.00     0.025 C 
ENDBRANCH   3  14
TORSDOF 3
ENDMDL
MODEL 5
REMARK VINA RESULT:      -5.4      4.206      6.100
REMARK  3 active torsions:
REMARK  status: ('A' for Active; 'I' for Inactive)
REMARK    1  A    between atoms: C_2  and  C_3 
REMARK       I    between atoms: C_2  and  N_12 
REMARK    2  A    between atoms: C_3  and  N_4 
REMARK    3  A    between atoms: N_12  and  C_13 
ROOT
HETATM    1  O   UNL     1     -41.352 -50.034  13.612  1.00  0.00    -0.272 OA
HETATM    2  C   UNL     1     -41.558 -50.401  12.456  1.00  0.00     0.236 C 
HETATM    3  N   UNL     1     -42.520 -51.328  12.109  1.00  0.00    -0.355 N 
HETATM    4  H   UNL     1     -42.541 -51.662  11.148  1.00  0.00     0.162 HD
ENDROOT
BRANCH   2   5
HETATM    5  C   UNL     1     -40.694 -49.914  11.292  1.00  0.00     0.235 C 
BRANCH   5   6
HETATM    6  N   UNL     1     -40.929 -48.498  11.033  1.00  0.00    -0.301 N 
HETATM    7  C   UNL     1     -42.059 -48.099  10.353  1.00  0.00     0.097 A 
HETATM    8  C   UNL     1     -42.295 -46.811  10.112  1.00  0.00     0.034 A 
HETATM    9  C   UNL     1     -41.268 -45.899  10.631  1.00  0.00     0.094 A 
HETATM   10  N   UNL     1     -40.215 -46.243  11.288  1.00  0.00    -0.319 N 
HETATM   11  C   UNL     1     -40.004 -47.577  11.539  1.00  0.00     0.326 A 
ATOM     12  HN  UNL     1     -39.552 -45.540  11.615  1.00  0.00     0.170 HD
HETATM   13  O   UNL     1     -39.033 -47.959  12.192  1.00  0.00    -0.246 OA
ENDBRANCH   5   6
ENDBRANCH   2   5
BRANCH   3  14
HETATM   14  C   UNL     1     -43.426 -51.930  13.087  1.00  0.00     0.084 C 
HETATM   15  C   UNL     1     -43.866 -53.318  12.595  1.00  0.00     0.025 C 
HETATM   16  C   UNL     1     -44.460 -54.179  13.707  1.00  0.00     0.002 C 
HETATM   17  C   UNL     1     -45.955 -53.999  13.949  1.00  0.00     0.000 C 
HETATM   18  C   UNL     1     -46.517 -52.587  13.824  1.00  0.00     0.000 C 
HETATM   19  C   UNL     1     -45.622 -51.484  14.382  1.00  0.00     0.002 C 
HETATM   20  C   UNL     1     -44.595 -50.976  13.368  1.00  0.00     0.025 C 
ENDBRANCH   3  14
TORSDOF 3
ENDMDL
MODEL 6
REMARK VINA RESULT:      -5.0      3.353      5.141
REMARK  3 active torsions:
REMARK  status: ('A' for Active; 'I' for Inactive)
REMARK    1  A    between atoms: C_2  and  C_3 
REMARK       I    between atoms: C_2  and  N_12 
REMARK    2  A    between atoms: C_3  and  N_4 
REMARK    3  A    between atoms: N_12  and  C_13 
ROOT
HETATM    1  O   UNL     1     -41.350 -48.833  13.017  1.00  0.00    -0.272 OA
HETATM    2  C   UNL     1     -41.600 -49.363  11.936  1.00  0.00     0.236 C 
HETATM    3  N   UNL     1     -42.014 -50.673  11.806  1.00  0.00    -0.355 N 
HETATM    4  H   UNL     1     -42.084 -51.065  10.868  1.00  0.00     0.162 HD
ENDROOT
BRANCH   2   5
HETATM    5  C   UNL     1     -41.390 -48.627  10.612  1.00  0.00     0.235 C 
BRANCH   5   6
HETATM    6  N   UNL     1     -41.581 -47.192  10.785  1.00  0.00    -0.301 N 
HETATM    7  C   UNL     1     -40.492 -46.366  10.955  1.00  0.00     0.097 A 
HETATM    8  C   UNL     1     -40.645 -45.053  11.109  1.00  0.00     0.034 A 
HETATM    9  C   UNL     1     -42.040 -44.596  11.076  1.00  0.00     0.094 A 
HETATM   10  N   UNL     1     -43.074 -45.343  10.898  1.00  0.00    -0.319 N 
HETATM   11  C   UNL     1     -42.888 -46.693  10.723  1.00  0.00     0.326 A 
ATOM     12  HN  UNL     1     -44.011 -44.941  10.887  1.00  0.00     0.170 HD
HETATM   13  O   UNL     1     -43.837 -47.448  10.514  1.00  0.00    -0.246 OA
ENDBRANCH   5   6
ENDBRANCH   2   5
BRANCH   3  14
HETATM   14  C   UNL     1     -42.243 -51.548  12.956  1.00  0.00     0.084 C 
HETATM   15  C   UNL     1     -41.719 -52.958  12.643  1.00  0.00     0.025 C 
HETATM   16  C   UNL     1     -41.535 -53.812  13.895  1.00  0.00     0.002 C 
HETATM   17  C   UNL     1     -42.770 -54.579  14.355  1.00  0.00     0.000 C 
HETATM   18  C   UNL     1     -44.117 -53.878  14.217  1.00  0.00     0.000 C 
HETATM   19  C   UNL     1     -44.107 -52.387  14.544  1.00  0.00     0.002 C 
HETATM   20  C   UNL     1     -43.728 -51.514  13.346  1.00  0.00     0.025 C 
ENDBRANCH   3  14
TORSDOF 3
ENDMDL
MODEL 7
REMARK VINA RESULT:      -4.9      4.193      6.807
REMARK  3 active torsions:
REMARK  status: ('A' for Active; 'I' for Inactive)
REMARK    1  A    between atoms: C_2  and  C_3 
REMARK       I    between atoms: C_2  and  N_12 
REMARK    2  A    between atoms: C_3  and  N_4 
REMARK    3  A    between atoms: N_12  and  C_13 
ROOT
HETATM    1  O   UNL     1     -42.053 -49.338  15.294  1.00  0.00    -0.272 OA
HETATM    2  C   UNL     1     -41.924 -49.352  14.071  1.00  0.00     0.236 C 
HETATM    3  N   UNL     1     -42.484 -50.315  13.256  1.00  0.00    -0.355 N 
HETATM    4  H   UNL     1     -42.229 -50.318  12.270  1.00  0.00     0.162 HD
ENDROOT
BRANCH   2   5
HETATM    5  C   UNL     1     -41.048 -48.332  13.343  1.00  0.00     0.235 C 
BRANCH   5   6
HETATM    6  N   UNL     1     -39.861 -48.975  12.790  1.00  0.00    -0.301 N 
HETATM    7  C   UNL     1     -38.784 -49.251  13.603  1.00  0.00     0.097 A 
HETATM    8  C   UNL     1     -37.694 -49.843  13.119  1.00  0.00     0.034 A 
HETATM    9  C   UNL     1     -37.761 -50.160  11.687  1.00  0.00     0.094 A 
HETATM   10  N   UNL     1     -38.763 -49.931  10.909  1.00  0.00    -0.319 N 
HETATM   11  C   UNL     1     -39.883 -49.337  11.438  1.00  0.00     0.326 A 
ATOM     12  HN  UNL     1     -38.725 -50.187   9.923  1.00  0.00     0.170 HD
HETATM   13  O   UNL     1     -40.881 -49.128  10.749  1.00  0.00    -0.246 OA
ENDBRANCH   5   6
ENDBRANCH   2   5
BRANCH   3  14
HETATM   14  C   UNL     1     -43.331 -51.391  13.770  1.00  0.00     0.084 C 
HETATM   15  C   UNL     1     -43.058 -52.682  12.983  1.00  0.00     0.025 C 
HETATM   16  C   UNL     1     -43.570 -53.930  13.697  1.00  0.00     0.002 C 
HETATM   17  C   UNL     1     -45.026 -54.294  13.422  1.00  0.00     0.000 C 
HETATM   18  C   UNL     1     -46.019 -53.145  13.290  1.00  0.00     0.000 C 
HETATM   19  C   UNL     1     -45.802 -51.988  14.261  1.00  0.00     0.002 C 
HETATM   20  C   UNL     1     -44.802 -50.951  13.743  1.00  0.00     0.025 C 
ENDBRANCH   3  14
TORSDOF 3
ENDMDL
MODEL 8
REMARK VINA RESULT:      -4.9      7.623      9.237
REMARK  3 active torsions:
REMARK  status: ('A' for Active; 'I' for Inactive)
REMARK    1  A    between atoms: C_2  and  C_3 
REMARK       I    between atoms: C_2  and  N_12 
REMARK    2  A    between atoms: C_3  and  N_4 
REMARK    3  A    between atoms: N_12  and  C_13 
ROOT
HETATM    1  O   UNL     1     -43.166 -53.990  16.825  1.00  0.00    -0.272 OA
HETATM    2  C   UNL     1     -43.876 -54.032  15.821  1.00  0.00     0.236 C 
HETATM    3  N   UNL     1     -45.105 -53.410  15.729  1.00  0.00    -0.355 N 
HETATM    4  H   UNL     1     -45.677 -53.595  14.908  1.00  0.00     0.162 HD
ENDROOT
BRANCH   2   5
HETATM    5  C   UNL     1     -43.488 -54.859  14.595  1.00  0.00     0.235 C 
BRANCH   5   6
HETATM    6  N   UNL     1     -42.724 -54.051  13.650  1.00  0.00    -0.301 N 
HETATM    7  C   UNL     1     -41.359 -53.930  13.792  1.00  0.00     0.097 A 
HETATM    8  C   UNL     1     -40.643 -53.203  12.936  1.00  0.00     0.034 A 
HETATM    9  C   UNL     1     -41.430 -52.573  11.869  1.00  0.00     0.094 A 
HETATM   10  N   UNL     1     -42.703 -52.687  11.702  1.00  0.00    -0.319 N 
HETATM   11  C   UNL     1     -43.416 -53.458  12.587  1.00  0.00     0.326 A 
ATOM     12  HN  UNL     1     -43.170 -52.214  10.928  1.00  0.00     0.170 HD
HETATM   13  O   UNL     1     -44.627 -53.630  12.454  1.00  0.00    -0.246 OA
ENDBRANCH   5   6
ENDBRANCH   2   5
BRANCH   3  14
HETATM   14  C   UNL     1     -45.662 -52.597  16.811  1.00  0.00     0.084 C 
HETATM   15  C   UNL     1     -46.265 -53.514  17.886  1.00  0.00     0.025 C 
HETATM   16  C   UNL     1     -46.490 -52.798  19.216  1.00  0.00     0.002 C 
HETATM   17  C   UNL     1     -47.824 -52.072  19.354  1.00  0.00     0.000 C 
HETATM   18  C   UNL     1     -48.366 -51.367  18.116  1.00  0.00     0.000 C 
HETATM   19  C   UNL     1     -47.317 -50.659  17.264  1.00  0.00     0.002 C 
HETATM   20  C   UNL     1     -46.659 -51.581  16.235  1.00  0.00     0.025 C 
ENDBRANCH   3  14
TORSDOF 3
ENDMDL
MODEL 9
REMARK VINA RESULT:      -4.9      4.757      6.140
REMARK  3 active torsions:
REMARK  status: ('A' for Active; 'I' for Inactive)
REMARK    1  A    between atoms: C_2  and  C_3 
REMARK       I    between atoms: C_2  and  N_12 
REMARK    2  A    between atoms: C_3  and  N_4 
REMARK    3  A    between atoms: N_12  and  C_13 
ROOT
HETATM    1  O   UNL     1     -42.863 -50.867  14.941  1.00  0.00    -0.272 OA
HETATM    2  C   UNL     1     -42.595 -50.698  13.753  1.00  0.00     0.236 C 
HETATM    3  N   UNL     1     -43.234 -51.361  12.725  1.00  0.00    -0.355 N 
HETATM    4  H   UNL     1     -42.869 -51.250  11.781  1.00  0.00     0.162 HD
ENDROOT
BRANCH   2   5
HETATM    5  C   UNL     1     -41.454 -49.783  13.308  1.00  0.00     0.235 C 
BRANCH   5   6
HETATM    6  N   UNL     1     -41.862 -48.967  12.170  1.00  0.00    -0.301 N 
HETATM    7  C   UNL     1     -42.874 -48.044  12.310  1.00  0.00     0.097 A 
HETATM    8  C   UNL     1     -43.257 -47.285  11.285  1.00  0.00     0.034 A 
HETATM    9  C   UNL     1     -42.514 -47.526  10.042  1.00  0.00     0.094 A 
HETATM   10  N   UNL     1     -41.551 -48.367   9.889  1.00  0.00    -0.319 N 
HETATM   11  C   UNL     1     -41.162 -49.124  10.967  1.00  0.00     0.326 A 
ATOM     12  HN  UNL     1     -41.086 -48.469   8.987  1.00  0.00     0.170 HD
HETATM   13  O   UNL     1     -40.225 -49.918  10.887  1.00  0.00    -0.246 OA
ENDBRANCH   5   6
ENDBRANCH   2   5
BRANCH   3  14
HETATM   14  C   UNL     1     -44.333 -52.300  12.953  1.00  0.00     0.084 C 
HETATM   15  C   UNL     1     -45.433 -51.614  13.778  1.00  0.00     0.025 C 
HETATM   16  C   UNL     1     -46.768 -52.352  13.713  1.00  0.00     0.002 C 
HETATM   17  C   UNL     1     -46.954 -53.464  14.740  1.00  0.00     0.000 C 
HETATM   18  C   UNL     1     -45.735 -54.316  15.073  1.00  0.00     0.000 C 
HETATM   19  C   UNL     1     -44.842 -54.660  13.885  1.00  0.00     0.002 C 
HETATM   20  C   UNL     1     -43.792 -53.586  13.594  1.00  0.00     0.025 C 
ENDBRANCH   3  14
TORSDOF 3
ENDMDL
