MODEL 1
REMARK VINA RESULT:      -5.3      0.000      0.000
REMARK  5 active torsions:
REMARK  status: ('A' for Active; 'I' for Inactive)
REMARK    1  A    between atoms: C_2  and  C_3 
REMARK    2  A    between atoms: C_2  and  N_14 
REMARK    3  A    between atoms: C_3  and  N_4 
REMARK       I    between atoms: N_4  and  C_5 
REMARK    4  A    between atoms: C_5  and  C_7 
REMARK    5  A    between atoms: C_7  and  N_8 
ROOT
HETATM    1  N   UNL     1     -42.763 -51.949  12.269  1.00  0.00    -0.358 N 
HETATM    2  C   UNL     1     -41.418 -51.702  12.064  1.00  0.00     0.237 C 
HETATM    3  O   UNL     1     -40.552 -52.572  12.103  1.00  0.00    -0.272 OA
HETATM    4  H   UNL     1     -43.417 -51.225  11.984  1.00  0.00     0.162 HD
ENDROOT
BRANCH   1   5
HETATM    5  C   UNL     1     -43.280 -53.299  12.438  1.00  0.00     0.158 C 
BRANCH   5   6
HETATM    6  C   UNL     1     -44.031 -53.506  13.791  1.00  0.00     0.236 C 
HETATM    7  C   UNL     1     -43.348 -54.675  14.530  1.00  0.00     0.044 C 
BRANCH   6   8
HETATM    8  N   UNL     1     -45.486 -53.753  13.581  1.00  0.00     0.098 N 
HETATM    9  C   UNL     1     -46.206 -52.598  12.984  1.00  0.00     0.299 C 
HETATM   10  C   UNL     1     -46.392 -51.427  13.961  1.00  0.00     0.198 C 
HETATM   11  O   UNL     1     -47.138 -51.840  15.111  1.00  0.00    -0.388 OA
HETATM   12  C   UNL     1     -46.501 -52.942  15.769  1.00  0.00     0.198 C 
HETATM   13  C   UNL     1     -46.239 -54.117  14.808  1.00  0.00     0.299 C 
ENDBRANCH   6   8
ENDBRANCH   5   6
ENDBRANCH   1   5
BRANCH   2  14
HETATM   14  C   UNL     1     -41.079 -50.252  11.820  1.00  0.00     0.250 C 
BRANCH  14  15
HETATM   15  N   UNL     1     -39.661 -50.019  11.987  1.00  0.00    -0.295 N 
HETATM   16  C   UNL     1     -39.031 -49.562  13.110  1.00  0.00     0.112 A 
HETATM   17  C   UNL     1     -37.707 -49.416  12.773  1.00  0.00     0.037 A 
HETATM   18  C   UNL     1     -37.638 -49.811  11.424  1.00  0.00     0.108 A 
HETATM   19  N   UNL     1     -38.827 -50.179  10.936  1.00  0.00    -0.310 N 
ATOM     20  HN  UNL     1     -39.051 -50.504   9.996  1.00  0.00     0.186 HD
ENDBRANCH  14  15
ENDBRANCH   2  14
TORSDOF 5
ENDMDL
MODEL 2
REMARK VINA RESULT:      -5.1      3.327      4.042
REMARK  5 active torsions:
REMARK  status: ('A' for Active; 'I' for Inactive)
REMARK    1  A    between atoms: C_2  and  C_3 
REMARK    2  A    between atoms: C_2  and  N_14 
REMARK    3  A    between atoms: C_3  and  N_4 
REMARK       I    between atoms: N_4  and  C_5 
REMARK    4  A    between atoms: C_5  and  C_7 
REMARK    5  A    between atoms: C_7  and  N_8 
ROOT
HETATM    1  N   UNL     1     -43.025 -49.867  12.167  1.00  0.00    -0.358 N 
HETATM    2  C   UNL     1     -42.622 -48.544  12.159  1.00  0.00     0.237 C 
HETATM    3  O   UNL     1     -42.972 -47.720  12.999  1.00  0.00    -0.272 OA
HETATM    4  H   UNL     1     -42.504 -50.515  11.584  1.00  0.00     0.162 HD
ENDROOT
BRANCH   1   5
HETATM    5  C   UNL     1     -43.818 -50.423  13.254  1.00  0.00     0.158 C 
BRANCH   5   6
HETATM    6  C   UNL     1     -43.619 -51.961  13.437  1.00  0.00     0.236 C 
HETATM    7  C   UNL     1     -42.179 -52.301  13.002  1.00  0.00     0.044 C 
BRANCH   6   8
HETATM    8  N   UNL     1     -44.631 -52.742  12.672  1.00  0.00     0.098 N 
HETATM    9  C   UNL     1     -46.035 -52.404  13.025  1.00  0.00     0.299 C 
HETATM   10  C   UNL     1     -46.457 -52.925  14.407  1.00  0.00     0.198 C 
HETATM   11  O   UNL     1     -46.338 -54.350  14.469  1.00  0.00    -0.388 OA
HETATM   12  C   UNL     1     -45.002 -54.769  14.164  1.00  0.00     0.198 C 
HETATM   13  C   UNL     1     -44.516 -54.216  12.812  1.00  0.00     0.299 C 
ENDBRANCH   6   8
ENDBRANCH   5   6
ENDBRANCH   1   5
BRANCH   2  14
HETATM   14  C   UNL     1     -41.733 -48.169  10.999  1.00  0.00     0.250 C 
BRANCH  14  15
HETATM   15  N   UNL     1     -42.497 -47.538   9.945  1.00  0.00    -0.295 N 
HETATM   16  C   UNL     1     -43.043 -46.286   9.964  1.00  0.00     0.112 A 
HETATM   17  C   UNL     1     -43.744 -46.157   8.790  1.00  0.00     0.037 A 
HETATM   18  C   UNL     1     -43.560 -47.385   8.129  1.00  0.00     0.108 A 
HETATM   19  N   UNL     1     -42.801 -48.234   8.829  1.00  0.00    -0.310 N 
ATOM     20  HN  UNL     1     -42.519 -49.182   8.579  1.00  0.00     0.186 HD
ENDBRANCH  14  15
ENDBRANCH   2  14
TORSDOF 5
ENDMDL
MODEL 3
REMARK VINA RESULT:      -5.0      2.105      3.002
REMARK  5 active torsions:
REMARK  status: ('A' for Active; 'I' for Inactive)
REMARK    1  A    between atoms: C_2  and  C_3 
REMARK    2  A    between atoms: C_2  and  N_14 
REMARK    3  A    between atoms: C_3  and  N_4 
REMARK       I    between atoms: N_4  and  C_5 
REMARK    4  A    between atoms: C_5  and  C_7 
REMARK    5  A    between atoms: C_7  and  N_8 
ROOT
HETATM    1  N   UNL     1     -41.988 -51.488  11.780  1.00  0.00    -0.358 N 
HETATM    2  C   UNL     1     -40.768 -50.934  12.123  1.00  0.00     0.237 C 
HETATM    3  O   UNL     1     -40.124 -51.265  13.115  1.00  0.00    -0.272 OA
HETATM    4  H   UNL     1     -42.323 -51.326  10.835  1.00  0.00     0.162 HD
ENDROOT
BRANCH   1   5
HETATM    5  C   UNL     1     -42.560 -52.605  12.517  1.00  0.00     0.158 C 
BRANCH   5   6
HETATM    6  C   UNL     1     -43.942 -52.274  13.163  1.00  0.00     0.236 C 
HETATM    7  C   UNL     1     -44.054 -50.739  13.264  1.00  0.00     0.044 C 
BRANCH   6   8
HETATM    8  N   UNL     1     -44.102 -52.933  14.490  1.00  0.00     0.098 N 
HETATM    9  C   UNL     1     -44.054 -54.417  14.427  1.00  0.00     0.299 C 
HETATM   10  C   UNL     1     -45.309 -55.040  13.798  1.00  0.00     0.198 C 
HETATM   11  O   UNL     1     -46.478 -54.687  14.546  1.00  0.00    -0.388 OA
HETATM   12  C   UNL     1     -46.620 -53.264  14.639  1.00  0.00     0.198 C 
HETATM   13  C   UNL     1     -45.356 -52.592  15.207  1.00  0.00     0.299 C 
ENDBRANCH   6   8
ENDBRANCH   5   6
ENDBRANCH   1   5
BRANCH   2  14
HETATM   14  C   UNL     1     -40.293 -49.845  11.194  1.00  0.00     0.250 C 
BRANCH  14  15
HETATM   15  N   UNL     1     -41.298 -48.815  11.047  1.00  0.00    -0.295 N 
HETATM   16  C   UNL     1     -41.924 -48.131  12.051  1.00  0.00     0.112 A 
HETATM   17  C   UNL     1     -42.854 -47.324  11.441  1.00  0.00     0.037 A 
HETATM   18  C   UNL     1     -42.711 -47.593  10.066  1.00  0.00     0.108 A 
HETATM   19  N   UNL     1     -41.765 -48.503   9.819  1.00  0.00    -0.310 N 
ATOM     20  HN  UNL     1     -41.466 -48.875   8.917  1.00  0.00     0.186 HD
ENDBRANCH  14  15
ENDBRANCH   2  14
TORSDOF 5
ENDMDL
MODEL 4
REMARK VINA RESULT:      -5.0      3.405      4.782
REMARK  5 active torsions:
REMARK  status: ('A' for Active; 'I' for Inactive)
REMARK    1  A    between atoms: C_2  and  C_3 
REMARK    2  A    between atoms: C_2  and  N_14 
REMARK    3  A    between atoms: C_3  and  N_4 
REMARK       I    between atoms: N_4  and  C_5 
REMARK    4  A    between atoms: C_5  and  C_7 
REMARK    5  A    between atoms: C_7  and  N_8 
ROOT
HETATM    1  N   UNL     1     -41.995 -49.789  11.662  1.00  0.00    -0.358 N 
HETATM    2  C   UNL     1     -41.686 -48.476  11.354  1.00  0.00     0.237 C 
HETATM    3  O   UNL     1     -40.540 -48.067  11.187  1.00  0.00    -0.272 OA
HETATM    4  H   UNL     1     -42.961 -50.078  11.546  1.00  0.00     0.162 HD
ENDROOT
BRANCH   1   5
HETATM    5  C   UNL     1     -40.978 -50.829  11.700  1.00  0.00     0.158 C 
BRANCH   5   6
HETATM    6  C   UNL     1     -41.112 -51.777  12.934  1.00  0.00     0.236 C 
HETATM    7  C   UNL     1     -39.693 -52.044  13.474  1.00  0.00     0.044 C 
BRANCH   6   8
HETATM    8  N   UNL     1     -41.822 -53.039  12.584  1.00  0.00     0.098 N 
HETATM    9  C   UNL     1     -43.301 -52.898  12.540  1.00  0.00     0.299 C 
HETATM   10  C   UNL     1     -43.939 -52.748  13.929  1.00  0.00     0.198 C 
HETATM   11  O   UNL     1     -43.649 -53.887  14.746  1.00  0.00    -0.388 OA
HETATM   12  C   UNL     1     -42.234 -54.088  14.864  1.00  0.00     0.198 C 
HETATM   13  C   UNL     1     -41.546 -54.181  13.491  1.00  0.00     0.299 C 
ENDBRANCH   6   8
ENDBRANCH   5   6
ENDBRANCH   1   5
BRANCH   2  14
HETATM   14  C   UNL     1     -42.879 -47.556  11.274  1.00  0.00     0.250 C 
BRANCH  14  15
HETATM   15  N   UNL     1     -43.483 -47.607   9.960  1.00  0.00    -0.295 N 
HETATM   16  C   UNL     1     -44.814 -47.520   9.666  1.00  0.00     0.112 A 
HETATM   17  C   UNL     1     -44.917 -47.704   8.308  1.00  0.00     0.037 A 
HETATM   18  C   UNL     1     -43.592 -47.893   7.873  1.00  0.00     0.108 A 
HETATM   19  N   UNL     1     -42.711 -47.836   8.876  1.00  0.00    -0.310 N 
ATOM     20  HN  UNL     1     -41.697 -47.941   8.833  1.00  0.00     0.186 HD
ENDBRANCH  14  15
ENDBRANCH   2  14
TORSDOF 5
ENDMDL
MODEL 5
REMARK VINA RESULT:      -5.0      1.663      1.945
REMARK  5 active torsions:
REMARK  status: ('A' for Active; 'I' for Inactive)
REMARK    1  A    between atoms: C_2  and  C_3 
REMARK    2  A    between atoms: C_2  and  N_14 
REMARK    3  A    between atoms: C_3  and  N_4 
REMARK       I    between atoms: N_4  and  C_5 
REMARK    4  A    between atoms: C_5  and  C_7 
REMARK    5  A    between atoms: C_7  and  N_8 
ROOT
HETATM    1  N   UNL     1     -40.996 -52.859  13.797  1.00  0.00    -0.358 N 
HETATM    2  C   UNL     1     -39.618 -52.962  13.866  1.00  0.00     0.237 C 
HETATM    3  O   UNL     1     -38.999 -53.993  13.617  1.00  0.00    -0.272 OA
HETATM    4  H   UNL     1     -41.391 -51.923  13.786  1.00  0.00     0.162 HD
ENDROOT
BRANCH   1   5
HETATM    5  C   UNL     1     -41.825 -53.949  13.306  1.00  0.00     0.158 C 
BRANCH   5   6
HETATM    6  C   UNL     1     -43.160 -54.113  14.099  1.00  0.00     0.236 C 
HETATM    7  C   UNL     1     -42.961 -55.257  15.116  1.00  0.00     0.044 C 
BRANCH   6   8
HETATM    8  N   UNL     1     -44.312 -54.370  13.191  1.00  0.00     0.098 N 
HETATM    9  C   UNL     1     -44.851 -53.141  12.550  1.00  0.00     0.299 C 
HETATM   10  C   UNL     1     -45.623 -52.238  13.523  1.00  0.00     0.198 C 
HETATM   11  O   UNL     1     -46.736 -52.939  14.090  1.00  0.00    -0.388 OA
HETATM   12  C   UNL     1     -46.306 -54.134  14.754  1.00  0.00     0.198 C 
HETATM   13  C   UNL     1     -45.472 -55.041  13.830  1.00  0.00     0.299 C 
ENDBRANCH   6   8
ENDBRANCH   5   6
ENDBRANCH   1   5
BRANCH   2  14
HETATM   14  C   UNL     1     -38.918 -51.703  14.315  1.00  0.00     0.250 C 
BRANCH  14  15
HETATM   15  N   UNL     1     -38.547 -50.887  13.180  1.00  0.00    -0.295 N 
HETATM   16  C   UNL     1     -37.395 -50.972  12.451  1.00  0.00     0.112 A 
HETATM   17  C   UNL     1     -37.445 -49.947  11.536  1.00  0.00     0.037 A 
HETATM   18  C   UNL     1     -38.669 -49.301  11.794  1.00  0.00     0.108 A 
HETATM   19  N   UNL     1     -39.346 -49.868  12.796  1.00  0.00    -0.310 N 
ATOM     20  HN  UNL     1     -40.251 -49.596  13.181  1.00  0.00     0.186 HD
ENDBRANCH  14  15
ENDBRANCH   2  14
TORSDOF 5
ENDMDL
MODEL 6
REMARK VINA RESULT:      -5.0      3.315      4.410
REMARK  5 active torsions:
REMARK  status: ('A' for Active; 'I' for Inactive)
REMARK    1  A    between atoms: C_2  and  C_3 
REMARK    2  A    between atoms: C_2  and  N_14 
REMARK    3  A    between atoms: C_3  and  N_4 
REMARK       I    between atoms: N_4  and  C_5 
REMARK    4  A    between atoms: C_5  and  C_7 
REMARK    5  A    between atoms: C_7  and  N_8 
ROOT
HETATM    1  N   UNL     1     -43.088 -49.849  12.499  1.00  0.00    -0.358 N 
HETATM    2  C   UNL     1     -42.270 -49.057  11.713  1.00  0.00     0.237 C 
HETATM    3  O   UNL     1     -41.164 -49.408  11.311  1.00  0.00    -0.272 OA
HETATM    4  H   UNL     1     -44.062 -49.575  12.579  1.00  0.00     0.162 HD
ENDROOT
BRANCH   1   5
HETATM    5  C   UNL     1     -42.744 -51.225  12.823  1.00  0.00     0.158 C 
BRANCH   5   6
HETATM    6  C   UNL     1     -43.930 -52.026  13.447  1.00  0.00     0.236 C 
HETATM    7  C   UNL     1     -45.212 -51.191  13.251  1.00  0.00     0.044 C 
BRANCH   6   8
HETATM    8  N   UNL     1     -43.686 -52.344  14.882  1.00  0.00     0.098 N 
HETATM    9  C   UNL     1     -42.657 -53.396  15.093  1.00  0.00     0.299 C 
HETATM   10  C   UNL     1     -43.139 -54.803  14.707  1.00  0.00     0.198 C 
HETATM   11  O   UNL     1     -44.286 -55.175  15.479  1.00  0.00    -0.388 OA
HETATM   12  C   UNL     1     -45.345 -54.223  15.318  1.00  0.00     0.198 C 
HETATM   13  C   UNL     1     -44.887 -52.788  15.635  1.00  0.00     0.299 C 
ENDBRANCH   6   8
ENDBRANCH   5   6
ENDBRANCH   1   5
BRANCH   2  14
HETATM   14  C   UNL     1     -42.830 -47.690  11.409  1.00  0.00     0.250 C 
BRANCH  14  15
HETATM   15  N   UNL     1     -43.427 -47.658  10.092  1.00  0.00    -0.295 N 
HETATM   16  C   UNL     1     -44.749 -47.485   9.794  1.00  0.00     0.112 A 
HETATM   17  C   UNL     1     -44.854 -47.612   8.430  1.00  0.00     0.037 A 
HETATM   18  C   UNL     1     -43.539 -47.859   7.994  1.00  0.00     0.108 A 
HETATM   19  N   UNL     1     -42.662 -47.890   9.003  1.00  0.00    -0.310 N 
ATOM     20  HN  UNL     1     -41.656 -48.052   8.961  1.00  0.00     0.186 HD
ENDBRANCH  14  15
ENDBRANCH   2  14
TORSDOF 5
ENDMDL
MODEL 7
REMARK VINA RESULT:      -4.9      3.525      5.303
REMARK  5 active torsions:
REMARK  status: ('A' for Active; 'I' for Inactive)
REMARK    1  A    between atoms: C_2  and  C_3 
REMARK    2  A    between atoms: C_2  and  N_14 
REMARK    3  A    between atoms: C_3  and  N_4 
REMARK       I    between atoms: N_4  and  C_5 
REMARK    4  A    between atoms: C_5  and  C_7 
REMARK    5  A    between atoms: C_7  and  N_8 
ROOT
HETATM    1  N   UNL     1     -42.884 -49.504  12.087  1.00  0.00    -0.358 N 
HETATM    2  C   UNL     1     -42.722 -48.131  12.126  1.00  0.00     0.237 C 
HETATM    3  O   UNL     1     -43.052 -47.433  13.081  1.00  0.00    -0.272 OA
HETATM    4  H   UNL     1     -42.373 -50.012  11.371  1.00  0.00     0.162 HD
ENDROOT
BRANCH   1   5
HETATM    5  C   UNL     1     -43.362 -50.255  13.238  1.00  0.00     0.158 C 
BRANCH   5   6
HETATM    6  C   UNL     1     -43.187 -51.799  13.083  1.00  0.00     0.236 C 
HETATM    7  C   UNL     1     -44.595 -52.427  13.049  1.00  0.00     0.044 C 
BRANCH   6   8
HETATM    8  N   UNL     1     -42.348 -52.370  14.174  1.00  0.00     0.098 N 
HETATM    9  C   UNL     1     -41.024 -51.709  14.315  1.00  0.00     0.299 C 
HETATM   10  C   UNL     1     -40.049 -52.053  13.179  1.00  0.00     0.198 C 
HETATM   11  O   UNL     1     -39.811 -53.464  13.125  1.00  0.00    -0.388 OA
HETATM   12  C   UNL     1     -41.039 -54.186  12.965  1.00  0.00     0.198 C 
HETATM   13  C   UNL     1     -42.070 -53.823  14.049  1.00  0.00     0.299 C 
ENDBRANCH   6   8
ENDBRANCH   5   6
ENDBRANCH   1   5
BRANCH   2  14
HETATM   14  C   UNL     1     -42.133 -47.535  10.871  1.00  0.00     0.250 C 
BRANCH  14  15
HETATM   15  N   UNL     1     -43.083 -47.583   9.781  1.00  0.00    -0.295 N 
HETATM   16  C   UNL     1     -44.430 -47.370   9.858  1.00  0.00     0.112 A 
HETATM   17  C   UNL     1     -44.926 -47.604   8.598  1.00  0.00     0.037 A 
HETATM   18  C   UNL     1     -43.798 -47.952   7.831  1.00  0.00     0.108 A 
HETATM   19  N   UNL     1     -42.669 -47.943   8.547  1.00  0.00    -0.310 N 
ATOM     20  HN  UNL     1     -41.722 -48.157   8.236  1.00  0.00     0.186 HD
ENDBRANCH  14  15
ENDBRANCH   2  14
TORSDOF 5
ENDMDL
MODEL 8
REMARK VINA RESULT:      -4.9      1.909      6.846
REMARK  5 active torsions:
REMARK  status: ('A' for Active; 'I' for Inactive)
REMARK    1  A    between atoms: C_2  and  C_3 
REMARK    2  A    between atoms: C_2  and  N_14 
REMARK    3  A    between atoms: C_3  and  N_4 
REMARK       I    between atoms: N_4  and  C_5 
REMARK    4  A    between atoms: C_5  and  C_7 
REMARK    5  A    between atoms: C_7  and  N_8 
ROOT
HETATM    1  N   UNL     1     -42.249 -52.857  12.092  1.00  0.00    -0.358 N 
HETATM    2  C   UNL     1     -42.753 -53.766  13.005  1.00  0.00     0.237 C 
HETATM    3  O   UNL     1     -42.085 -54.270  13.904  1.00  0.00    -0.272 OA
HETATM    4  H   UNL     1     -42.921 -52.325  11.548  1.00  0.00     0.162 HD
ENDROOT
BRANCH   1   5
HETATM    5  C   UNL     1     -40.896 -52.332  12.197  1.00  0.00     0.158 C 
BRANCH   5   6
HETATM    6  C   UNL     1     -40.850 -50.821  12.588  1.00  0.00     0.236 C 
HETATM    7  C   UNL     1     -42.282 -50.262  12.461  1.00  0.00     0.044 C 
BRANCH   6   8
HETATM    8  N   UNL     1     -39.880 -50.064  11.747  1.00  0.00     0.098 N 
HETATM    9  C   UNL     1     -38.462 -50.436  11.992  1.00  0.00     0.299 C 
HETATM   10  C   UNL     1     -37.924 -49.927  13.338  1.00  0.00     0.198 C 
HETATM   11  O   UNL     1     -38.003 -48.499  13.407  1.00  0.00    -0.388 OA
HETATM   12  C   UNL     1     -39.348 -48.048  13.204  1.00  0.00     0.198 C 
HETATM   13  C   UNL     1     -39.948 -48.588  11.893  1.00  0.00     0.299 C 
ENDBRANCH   6   8
ENDBRANCH   5   6
ENDBRANCH   1   5
BRANCH   2  14
HETATM   14  C   UNL     1     -44.201 -54.130  12.790  1.00  0.00     0.250 C 
BRANCH  14  15
HETATM   15  N   UNL     1     -45.063 -53.000  13.059  1.00  0.00    -0.295 N 
HETATM   16  C   UNL     1     -45.305 -52.423  14.273  1.00  0.00     0.112 A 
HETATM   17  C   UNL     1     -46.247 -51.447  14.052  1.00  0.00     0.037 A 
HETATM   18  C   UNL     1     -46.508 -51.512  12.670  1.00  0.00     0.108 A 
HETATM   19  N   UNL     1     -45.790 -52.459  12.058  1.00  0.00    -0.310 N 
ATOM     20  HN  UNL     1     -45.791 -52.712  11.070  1.00  0.00     0.186 HD
ENDBRANCH  14  15
ENDBRANCH   2  14
TORSDOF 5
ENDMDL
MODEL 9
REMARK VINA RESULT:      -4.9      2.573      3.233
REMARK  5 active torsions:
REMARK  status: ('A' for Active; 'I' for Inactive)
REMARK    1  A    between atoms: C_2  and  C_3 
REMARK    2  A    between atoms: C_2  and  N_14 
REMARK    3  A    between atoms: C_3  and  N_4 
REMARK       I    between atoms: N_4  and  C_5 
REMARK    4  A    between atoms: C_5  and  C_7 
REMARK    5  A    between atoms: C_7  and  N_8 
ROOT
HETATM    1  N   UNL     1     -43.042 -50.567  12.900  1.00  0.00    -0.358 N 
HETATM    2  C   UNL     1     -42.683 -49.428  12.201  1.00  0.00     0.237 C 
HETATM    3  O   UNL     1     -43.420 -48.456  12.059  1.00  0.00    -0.272 OA
HETATM    4  H   UNL     1     -42.297 -51.205  13.163  1.00  0.00     0.162 HD
ENDROOT
BRANCH   1   5
HETATM    5  C   UNL     1     -44.299 -50.659  13.627  1.00  0.00     0.158 C 
BRANCH   5   6
HETATM    6  C   UNL     1     -45.057 -52.002  13.382  1.00  0.00     0.236 C 
HETATM    7  C   UNL     1     -46.361 -51.671  12.627  1.00  0.00     0.044 C 
BRANCH   6   8
HETATM    8  N   UNL     1     -45.319 -52.727  14.657  1.00  0.00     0.098 N 
HETATM    9  C   UNL     1     -44.087 -53.227  15.322  1.00  0.00     0.299 C 
HETATM   10  C   UNL     1     -43.448 -54.421  14.598  1.00  0.00     0.198 C 
HETATM   11  O   UNL     1     -44.363 -55.520  14.527  1.00  0.00    -0.388 OA
HETATM   12  C   UNL     1     -45.580 -55.134  13.875  1.00  0.00     0.198 C 
HETATM   13  C   UNL     1     -46.222 -53.899  14.532  1.00  0.00     0.299 C 
ENDBRANCH   6   8
ENDBRANCH   5   6
ENDBRANCH   1   5
BRANCH   2  14
HETATM   14  C   UNL     1     -41.308 -49.481  11.584  1.00  0.00     0.250 C 
BRANCH  14  15
HETATM   15  N   UNL     1     -40.710 -48.165  11.541  1.00  0.00    -0.295 N 
HETATM   16  C   UNL     1     -39.973 -47.567  12.523  1.00  0.00     0.112 A 
HETATM   17  C   UNL     1     -39.693 -46.299  12.072  1.00  0.00     0.037 A 
HETATM   18  C   UNL     1     -40.303 -46.230  10.806  1.00  0.00     0.108 A 
HETATM   19  N   UNL     1     -40.927 -47.365  10.475  1.00  0.00    -0.310 N 
ATOM     20  HN  UNL     1     -41.444 -47.576   9.622  1.00  0.00     0.186 HD
ENDBRANCH  14  15
ENDBRANCH   2  14
TORSDOF 5
ENDMDL
