MODEL 1
REMARK VINA RESULT:      -6.2      0.000      0.000
REMARK  3 active torsions:
REMARK  status: ('A' for Active; 'I' for Inactive)
REMARK    1  A    between atoms: C_2  and  C_3 
REMARK       I    between atoms: C_2  and  N_10 
REMARK    2  A    between atoms: C_3  and  N_4 
REMARK       I    between atoms: N_10  and  C_11 
REMARK       I    between atoms: C_11  and  N_13 
REMARK    3  A    between atoms: N_13  and  C_14 
ROOT
HETATM    1  O   UNL     1     -42.108 -45.130   9.710  1.00  0.00    -0.271 OA
HETATM    2  C   UNL     1     -42.092 -46.229  10.262  1.00  0.00     0.243 C 
HETATM    3  N   UNL     1     -40.866 -46.792  10.578  1.00  0.00    -0.278 N 
HETATM    4  C   UNL     1     -40.631 -48.031  11.127  1.00  0.00     0.323 C 
HETATM    5  O   UNL     1     -41.511 -48.779  11.528  1.00  0.00    -0.247 OA
HETATM    6  N   UNL     1     -39.299 -48.366  11.159  1.00  0.00    -0.338 N 
HETATM    7  H   UNL     1     -40.077 -46.237  10.283  1.00  0.00     0.173 HD
HETATM    8  H   UNL     1     -38.619 -47.621  11.146  1.00  0.00     0.164 HD
ENDROOT
BRANCH   2   9
HETATM    9  C   UNL     1     -43.334 -47.032  10.602  1.00  0.00     0.232 C 
BRANCH   9  10
HETATM   10  N   UNL     1     -44.158 -47.393   9.461  1.00  0.00    -0.343 N 
HETATM   11  C   UNL     1     -45.511 -47.601   9.487  1.00  0.00     0.109 A 
HETATM   12  C   UNL     1     -45.814 -48.121   8.250  1.00  0.00     0.106 A 
HETATM   13  N   UNL     1     -44.684 -48.239   7.483  1.00  0.00    -0.361 N 
HETATM   14  C   UNL     1     -43.703 -47.795   8.238  1.00  0.00     0.182 A 
ATOM     15  HN  UNL     1     -44.618 -48.595   6.529  1.00  0.00     0.166 HD
ENDBRANCH   9  10
ENDBRANCH   2   9
BRANCH   6  16
HETATM   16  C   UNL     1     -38.897 -49.626  11.759  1.00  0.00     0.086 C 
HETATM   17  C   UNL     1     -38.794 -49.556  13.288  1.00  0.00     0.025 C 
HETATM   18  C   UNL     1     -37.579 -50.402  13.672  1.00  0.00     0.002 C 
HETATM   19  C   UNL     1     -37.125 -51.082  12.387  1.00  0.00     0.002 C 
HETATM   20  C   UNL     1     -37.521 -50.097  11.299  1.00  0.00     0.025 C 
ENDBRANCH   6  16
TORSDOF 3
ENDMDL
MODEL 2
REMARK VINA RESULT:      -5.8      2.331      3.829
REMARK  3 active torsions:
REMARK  status: ('A' for Active; 'I' for Inactive)
REMARK    1  A    between atoms: C_2  and  C_3 
REMARK       I    between atoms: C_2  and  N_10 
REMARK    2  A    between atoms: C_3  and  N_4 
REMARK       I    between atoms: N_10  and  C_11 
REMARK       I    between atoms: C_11  and  N_13 
REMARK    3  A    between atoms: N_13  and  C_14 
ROOT
HETATM    1  O   UNL     1     -42.773 -45.804   9.133  1.00  0.00    -0.271 OA
HETATM    2  C   UNL     1     -42.152 -46.018  10.174  1.00  0.00     0.243 C 
HETATM    3  N   UNL     1     -41.228 -47.050  10.192  1.00  0.00    -0.278 N 
HETATM    4  C   UNL     1     -40.491 -47.494  11.265  1.00  0.00     0.323 C 
HETATM    5  O   UNL     1     -40.471 -46.943  12.356  1.00  0.00    -0.247 OA
HETATM    6  N   UNL     1     -39.790 -48.646  11.002  1.00  0.00    -0.338 N 
HETATM    7  H   UNL     1     -41.177 -47.563   9.325  1.00  0.00     0.173 HD
HETATM    8  H   UNL     1     -39.567 -48.861  10.042  1.00  0.00     0.164 HD
ENDROOT
BRANCH   2   9
HETATM    9  C   UNL     1     -42.351 -45.241  11.461  1.00  0.00     0.232 C 
BRANCH   9  10
HETATM   10  N   UNL     1     -42.009 -43.830  11.381  1.00  0.00    -0.343 N 
HETATM   11  C   UNL     1     -42.889 -42.808  11.146  1.00  0.00     0.109 A 
HETATM   12  C   UNL     1     -42.099 -41.699  10.947  1.00  0.00     0.106 A 
HETATM   13  N   UNL     1     -40.771 -42.024  11.050  1.00  0.00    -0.361 N 
HETATM   14  C   UNL     1     -40.748 -43.313  11.310  1.00  0.00     0.182 A 
ATOM     15  HN  UNL     1     -39.971 -41.399  10.947  1.00  0.00     0.166 HD
ENDBRANCH   9  10
ENDBRANCH   2   9
BRANCH   6  16
HETATM   16  C   UNL     1     -38.927 -49.205  12.028  1.00  0.00     0.086 C 
HETATM   17  C   UNL     1     -37.587 -49.707  11.475  1.00  0.00     0.025 C 
HETATM   18  C   UNL     1     -37.263 -50.989  12.245  1.00  0.00     0.002 C 
HETATM   19  C   UNL     1     -38.319 -51.092  13.339  1.00  0.00     0.002 C 
HETATM   20  C   UNL     1     -39.535 -50.413  12.732  1.00  0.00     0.025 C 
ENDBRANCH   6  16
TORSDOF 3
ENDMDL
MODEL 3
REMARK VINA RESULT:      -5.7      2.981      6.779
REMARK  3 active torsions:
REMARK  status: ('A' for Active; 'I' for Inactive)
REMARK    1  A    between atoms: C_2  and  C_3 
REMARK       I    between atoms: C_2  and  N_10 
REMARK    2  A    between atoms: C_3  and  N_4 
REMARK       I    between atoms: N_10  and  C_11 
REMARK       I    between atoms: C_11  and  N_13 
REMARK    3  A    between atoms: N_13  and  C_14 
ROOT
HETATM    1  O   UNL     1     -37.786 -50.950  11.788  1.00  0.00    -0.271 OA
HETATM    2  C   UNL     1     -38.955 -50.622  11.986  1.00  0.00     0.243 C 
HETATM    3  N   UNL     1     -39.585 -49.823  11.046  1.00  0.00    -0.278 N 
HETATM    4  C   UNL     1     -40.853 -49.293  11.114  1.00  0.00     0.323 C 
HETATM    5  O   UNL     1     -41.660 -49.560  11.993  1.00  0.00    -0.247 OA
HETATM    6  N   UNL     1     -41.122 -48.402  10.104  1.00  0.00    -0.338 N 
HETATM    7  H   UNL     1     -38.989 -49.553  10.279  1.00  0.00     0.173 HD
HETATM    8  H   UNL     1     -40.590 -48.472   9.250  1.00  0.00     0.164 HD
ENDROOT
BRANCH   2   9
HETATM    9  C   UNL     1     -39.756 -51.014  13.214  1.00  0.00     0.232 C 
BRANCH   9  10
HETATM   10  N   UNL     1     -40.141 -52.414  13.271  1.00  0.00    -0.343 N 
HETATM   11  C   UNL     1     -39.603 -53.357  14.105  1.00  0.00     0.109 A 
HETATM   12  C   UNL     1     -40.114 -54.555  13.662  1.00  0.00     0.106 A 
HETATM   13  N   UNL     1     -40.938 -54.363  12.584  1.00  0.00    -0.361 N 
HETATM   14  C   UNL     1     -40.934 -53.065  12.370  1.00  0.00     0.182 A 
ATOM     15  HN  UNL     1     -41.446 -55.074  12.058  1.00  0.00     0.166 HD
ENDBRANCH   9  10
ENDBRANCH   2   9
BRANCH   6  16
HETATM   16  C   UNL     1     -42.442 -47.799  10.019  1.00  0.00     0.086 C 
HETATM   17  C   UNL     1     -43.018 -47.818   8.597  1.00  0.00     0.025 C 
HETATM   18  C   UNL     1     -43.753 -46.488   8.419  1.00  0.00     0.002 C 
HETATM   19  C   UNL     1     -43.741 -45.822   9.789  1.00  0.00     0.002 C 
HETATM   20  C   UNL     1     -42.458 -46.330  10.425  1.00  0.00     0.025 C 
ENDBRANCH   6  16
TORSDOF 3
ENDMDL
MODEL 4
REMARK VINA RESULT:      -5.5      4.658      7.710
REMARK  3 active torsions:
REMARK  status: ('A' for Active; 'I' for Inactive)
REMARK    1  A    between atoms: C_2  and  C_3 
REMARK       I    between atoms: C_2  and  N_10 
REMARK    2  A    between atoms: C_3  and  N_4 
REMARK       I    between atoms: N_10  and  C_11 
REMARK       I    between atoms: C_11  and  N_13 
REMARK    3  A    between atoms: N_13  and  C_14 
ROOT
HETATM    1  O   UNL     1     -39.051 -54.152  13.660  1.00  0.00    -0.271 OA
HETATM    2  C   UNL     1     -39.758 -53.154  13.797  1.00  0.00     0.243 C 
HETATM    3  N   UNL     1     -41.134 -53.308  13.757  1.00  0.00    -0.278 N 
HETATM    4  C   UNL     1     -42.089 -52.319  13.818  1.00  0.00     0.323 C 
HETATM    5  O   UNL     1     -41.841 -51.143  14.035  1.00  0.00    -0.247 OA
HETATM    6  N   UNL     1     -43.361 -52.780  13.580  1.00  0.00    -0.338 N 
HETATM    7  H   UNL     1     -41.431 -54.256  13.582  1.00  0.00     0.173 HD
HETATM    8  H   UNL     1     -43.555 -53.756  13.745  1.00  0.00     0.164 HD
ENDROOT
BRANCH   2   9
HETATM    9  C   UNL     1     -39.221 -51.747  13.980  1.00  0.00     0.232 C 
BRANCH   9  10
HETATM   10  N   UNL     1     -38.706 -51.127  12.770  1.00  0.00    -0.343 N 
HETATM   11  C   UNL     1     -37.384 -50.933  12.473  1.00  0.00     0.109 A 
HETATM   12  C   UNL     1     -37.387 -50.136  11.352  1.00  0.00     0.106 A 
HETATM   13  N   UNL     1     -38.669 -49.839  10.969  1.00  0.00    -0.361 N 
HETATM   14  C   UNL     1     -39.442 -50.447  11.842  1.00  0.00     0.182 A 
ATOM     15  HN  UNL     1     -38.962 -49.268  10.176  1.00  0.00     0.166 HD
ENDBRANCH   9  10
ENDBRANCH   2   9
BRANCH   6  16
HETATM   16  C   UNL     1     -44.479 -51.855  13.660  1.00  0.00     0.086 C 
HETATM   17  C   UNL     1     -45.041 -51.718  15.081  1.00  0.00     0.025 C 
HETATM   18  C   UNL     1     -46.560 -51.609  14.929  1.00  0.00     0.002 C 
HETATM   19  C   UNL     1     -46.819 -51.500  13.431  1.00  0.00     0.002 C 
HETATM   20  C   UNL     1     -45.671 -52.280  12.810  1.00  0.00     0.025 C 
ENDBRANCH   6  16
TORSDOF 3
ENDMDL
MODEL 5
REMARK VINA RESULT:      -5.4      4.629      6.565
REMARK  3 active torsions:
REMARK  status: ('A' for Active; 'I' for Inactive)
REMARK    1  A    between atoms: C_2  and  C_3 
REMARK       I    between atoms: C_2  and  N_10 
REMARK    2  A    between atoms: C_3  and  N_4 
REMARK       I    between atoms: N_10  and  C_11 
REMARK       I    between atoms: C_11  and  N_13 
REMARK    3  A    between atoms: N_13  and  C_14 
ROOT
HETATM    1  O   UNL     1     -40.369 -53.504  12.024  1.00  0.00    -0.271 OA
HETATM    2  C   UNL     1     -41.060 -52.539  12.349  1.00  0.00     0.243 C 
HETATM    3  N   UNL     1     -41.021 -51.402  11.558  1.00  0.00    -0.278 N 
HETATM    4  C   UNL     1     -41.657 -50.203  11.785  1.00  0.00     0.323 C 
HETATM    5  O   UNL     1     -42.459 -50.015  12.688  1.00  0.00    -0.247 OA
HETATM    6  N   UNL     1     -41.282 -49.216  10.906  1.00  0.00    -0.338 N 
HETATM    7  H   UNL     1     -40.381 -51.470  10.782  1.00  0.00     0.173 HD
HETATM    8  H   UNL     1     -40.907 -49.490  10.011  1.00  0.00     0.164 HD
ENDROOT
BRANCH   2   9
HETATM    9  C   UNL     1     -41.941 -52.497  13.583  1.00  0.00     0.232 C 
BRANCH   9  10
HETATM   10  N   UNL     1     -43.026 -53.464  13.592  1.00  0.00    -0.343 N 
HETATM   11  C   UNL     1     -44.099 -53.469  12.742  1.00  0.00     0.109 A 
HETATM   12  C   UNL     1     -44.954 -54.417  13.254  1.00  0.00     0.106 A 
HETATM   13  N   UNL     1     -44.431 -54.980  14.389  1.00  0.00    -0.361 N 
HETATM   14  C   UNL     1     -43.272 -54.385  14.570  1.00  0.00     0.182 A 
ATOM     15  HN  UNL     1     -44.851 -55.705  14.971  1.00  0.00     0.166 HD
ENDBRANCH   9  10
ENDBRANCH   2   9
BRANCH   6  16
HETATM   16  C   UNL     1     -41.909 -47.909  10.994  1.00  0.00     0.086 C 
HETATM   17  C   UNL     1     -42.978 -47.685   9.917  1.00  0.00     0.025 C 
HETATM   18  C   UNL     1     -42.843 -46.224   9.482  1.00  0.00     0.002 C 
HETATM   19  C   UNL     1     -41.835 -45.599  10.438  1.00  0.00     0.002 C 
HETATM   20  C   UNL     1     -40.926 -46.758  10.811  1.00  0.00     0.025 C 
ENDBRANCH   6  16
TORSDOF 3
ENDMDL
MODEL 6
REMARK VINA RESULT:      -5.3      5.285      6.091
REMARK  3 active torsions:
REMARK  status: ('A' for Active; 'I' for Inactive)
REMARK    1  A    between atoms: C_2  and  C_3 
REMARK       I    between atoms: C_2  and  N_10 
REMARK    2  A    between atoms: C_3  and  N_4 
REMARK       I    between atoms: N_10  and  C_11 
REMARK       I    between atoms: C_11  and  N_13 
REMARK    3  A    between atoms: N_13  and  C_14 
ROOT
HETATM    1  O   UNL     1     -44.581 -54.196  12.064  1.00  0.00    -0.271 OA
HETATM    2  C   UNL     1     -43.862 -53.461  12.739  1.00  0.00     0.243 C 
HETATM    3  N   UNL     1     -42.862 -52.747  12.100  1.00  0.00    -0.278 N 
HETATM    4  C   UNL     1     -41.915 -51.933  12.678  1.00  0.00     0.323 C 
HETATM    5  O   UNL     1     -41.902 -51.634  13.863  1.00  0.00    -0.247 OA
HETATM    6  N   UNL     1     -40.956 -51.504  11.793  1.00  0.00    -0.338 N 
HETATM    7  H   UNL     1     -42.800 -52.932  11.111  1.00  0.00     0.173 HD
HETATM    8  H   UNL     1     -41.186 -51.485  10.811  1.00  0.00     0.164 HD
ENDROOT
BRANCH   2   9
HETATM    9  C   UNL     1     -43.978 -53.300  14.244  1.00  0.00     0.232 C 
BRANCH   9  10
HETATM   10  N   UNL     1     -45.192 -52.640  14.695  1.00  0.00    -0.343 N 
HETATM   11  C   UNL     1     -46.115 -53.168  15.557  1.00  0.00     0.109 A 
HETATM   12  C   UNL     1     -47.174 -52.291  15.523  1.00  0.00     0.106 A 
HETATM   13  N   UNL     1     -46.920 -51.255  14.663  1.00  0.00    -0.361 N 
HETATM   14  C   UNL     1     -45.721 -51.493  14.177  1.00  0.00     0.182 A 
ATOM     15  HN  UNL     1     -47.530 -50.468  14.444  1.00  0.00     0.166 HD
ENDBRANCH   9  10
ENDBRANCH   2   9
BRANCH   6  16
HETATM   16  C   UNL     1     -39.919 -50.596  12.252  1.00  0.00     0.086 C 
HETATM   17  C   UNL     1     -39.297 -49.773  11.116  1.00  0.00     0.025 C 
HETATM   18  C   UNL     1     -37.804 -49.672  11.431  1.00  0.00     0.002 C 
HETATM   19  C   UNL     1     -37.633 -50.274  12.821  1.00  0.00     0.002 C 
HETATM   20  C   UNL     1     -38.740 -51.312  12.902  1.00  0.00     0.025 C 
ENDBRANCH   6  16
TORSDOF 3
ENDMDL
MODEL 7
REMARK VINA RESULT:      -5.2      3.253      4.610
REMARK  3 active torsions:
REMARK  status: ('A' for Active; 'I' for Inactive)
REMARK    1  A    between atoms: C_2  and  C_3 
REMARK       I    between atoms: C_2  and  N_10 
REMARK    2  A    between atoms: C_3  and  N_4 
REMARK       I    between atoms: N_10  and  C_11 
REMARK       I    between atoms: C_11  and  N_13 
REMARK    3  A    between atoms: N_13  and  C_14 
ROOT
HETATM    1  O   UNL     1     -42.534 -46.944   9.633  1.00  0.00    -0.271 OA
HETATM    2  C   UNL     1     -41.821 -47.551  10.432  1.00  0.00     0.243 C 
HETATM    3  N   UNL     1     -42.196 -48.828  10.813  1.00  0.00    -0.278 N 
HETATM    4  C   UNL     1     -41.582 -49.639  11.740  1.00  0.00     0.323 C 
HETATM    5  O   UNL     1     -40.521 -49.371  12.286  1.00  0.00    -0.247 OA
HETATM    6  N   UNL     1     -42.294 -50.780  12.020  1.00  0.00    -0.338 N 
HETATM    7  H   UNL     1     -43.067 -49.134  10.406  1.00  0.00     0.173 HD
HETATM    8  H   UNL     1     -42.950 -51.115  11.330  1.00  0.00     0.164 HD
ENDROOT
BRANCH   2   9
HETATM    9  C   UNL     1     -40.561 -46.980  11.056  1.00  0.00     0.232 C 
BRANCH   9  10
HETATM   10  N   UNL     1     -40.571 -45.539  11.242  1.00  0.00    -0.343 N 
HETATM   11  C   UNL     1     -41.414 -44.846  12.069  1.00  0.00     0.109 A 
HETATM   12  C   UNL     1     -41.204 -43.522  11.761  1.00  0.00     0.106 A 
HETATM   13  N   UNL     1     -40.265 -43.397  10.770  1.00  0.00    -0.361 N 
HETATM   14  C   UNL     1     -39.904 -44.626  10.476  1.00  0.00     0.182 A 
ATOM     15  HN  UNL     1     -39.920 -42.534  10.350  1.00  0.00     0.166 HD
ENDBRANCH   9  10
ENDBRANCH   2   9
BRANCH   6  16
HETATM   16  C   UNL     1     -41.743 -51.754  12.944  1.00  0.00     0.086 C 
HETATM   17  C   UNL     1     -40.895 -52.827  12.248  1.00  0.00     0.025 C 
HETATM   18  C   UNL     1     -41.194 -54.141  12.972  1.00  0.00     0.002 C 
HETATM   19  C   UNL     1     -42.055 -53.767  14.172  1.00  0.00     0.002 C 
HETATM   20  C   UNL     1     -42.812 -52.535  13.702  1.00  0.00     0.025 C 
ENDBRANCH   6  16
TORSDOF 3
ENDMDL
MODEL 8
REMARK VINA RESULT:      -5.1      3.789      6.404
REMARK  3 active torsions:
REMARK  status: ('A' for Active; 'I' for Inactive)
REMARK    1  A    between atoms: C_2  and  C_3 
REMARK       I    between atoms: C_2  and  N_10 
REMARK    2  A    between atoms: C_3  and  N_4 
REMARK       I    between atoms: N_10  and  C_11 
REMARK       I    between atoms: C_11  and  N_13 
REMARK    3  A    between atoms: N_13  and  C_14 
ROOT
HETATM    1  O   UNL     1     -36.994 -51.571  12.110  1.00  0.00    -0.271 OA
HETATM    2  C   UNL     1     -37.949 -50.891  12.482  1.00  0.00     0.243 C 
HETATM    3  N   UNL     1     -38.193 -49.687  11.841  1.00  0.00    -0.278 N 
HETATM    4  C   UNL     1     -39.157 -48.755  12.149  1.00  0.00     0.323 C 
HETATM    5  O   UNL     1     -40.029 -48.925  12.989  1.00  0.00    -0.247 OA
HETATM    6  N   UNL     1     -39.031 -47.588  11.435  1.00  0.00    -0.338 N 
HETATM    7  H   UNL     1     -37.518 -49.465  11.125  1.00  0.00     0.173 HD
HETATM    8  H   UNL     1     -38.544 -47.618  10.552  1.00  0.00     0.164 HD
ENDROOT
BRANCH   2   9
HETATM    9  C   UNL     1     -38.874 -51.269  13.625  1.00  0.00     0.232 C 
BRANCH   9  10
HETATM   10  N   UNL     1     -39.850 -52.297  13.306  1.00  0.00    -0.343 N 
HETATM   11  C   UNL     1     -39.889 -53.556  13.841  1.00  0.00     0.109 A 
HETATM   12  C   UNL     1     -40.831 -54.228  13.098  1.00  0.00     0.106 A 
HETATM   13  N   UNL     1     -41.357 -53.415  12.129  1.00  0.00    -0.361 N 
HETATM   14  C   UNL     1     -40.747 -52.259  12.276  1.00  0.00     0.182 A 
ATOM     15  HN  UNL     1     -42.070 -53.654  11.440  1.00  0.00     0.166 HD
ENDBRANCH   9  10
ENDBRANCH   2   9
BRANCH   6  16
HETATM   16  C   UNL     1     -40.010 -46.531  11.620  1.00  0.00     0.086 C 
HETATM   17  C   UNL     1     -40.131 -45.607  10.401  1.00  0.00     0.025 C 
HETATM   18  C   UNL     1     -40.325 -44.195  10.956  1.00  0.00     0.002 C 
HETATM   19  C   UNL     1     -40.494 -44.361  12.461  1.00  0.00     0.002 C 
HETATM   20  C   UNL     1     -39.676 -45.601  12.781  1.00  0.00     0.025 C 
ENDBRANCH   6  16
TORSDOF 3
ENDMDL
MODEL 9
REMARK VINA RESULT:      -5.1      2.560      7.438
REMARK  3 active torsions:
REMARK  status: ('A' for Active; 'I' for Inactive)
REMARK    1  A    between atoms: C_2  and  C_3 
REMARK       I    between atoms: C_2  and  N_10 
REMARK    2  A    between atoms: C_3  and  N_4 
REMARK       I    between atoms: N_10  and  C_11 
REMARK       I    between atoms: C_11  and  N_13 
REMARK    3  A    between atoms: N_13  and  C_14 
ROOT
HETATM    1  O   UNL     1     -37.291 -51.415  12.022  1.00  0.00    -0.271 OA
HETATM    2  C   UNL     1     -38.211 -50.715  12.443  1.00  0.00     0.243 C 
HETATM    3  N   UNL     1     -39.027 -50.075  11.525  1.00  0.00    -0.278 N 
HETATM    4  C   UNL     1     -40.056 -49.200  11.787  1.00  0.00     0.323 C 
HETATM    5  O   UNL     1     -40.472 -48.950  12.909  1.00  0.00    -0.247 OA
HETATM    6  N   UNL     1     -40.562 -48.603  10.658  1.00  0.00    -0.338 N 
HETATM    7  H   UNL     1     -38.757 -50.228  10.565  1.00  0.00     0.173 HD
HETATM    8  H   UNL     1     -40.438 -49.072   9.773  1.00  0.00     0.164 HD
ENDROOT
BRANCH   2   9
HETATM    9  C   UNL     1     -38.500 -50.478  13.914  1.00  0.00     0.232 C 
BRANCH   9  10
HETATM   10  N   UNL     1     -37.525 -49.649  14.602  1.00  0.00    -0.343 N 
HETATM   11  C   UNL     1     -36.719 -50.051  15.633  1.00  0.00     0.109 A 
HETATM   12  C   UNL     1     -36.132 -48.897  16.096  1.00  0.00     0.106 A 
HETATM   13  N   UNL     1     -36.563 -47.811  15.379  1.00  0.00    -0.361 N 
HETATM   14  C   UNL     1     -37.402 -48.293  14.488  1.00  0.00     0.182 A 
ATOM     15  HN  UNL     1     -36.292 -46.836  15.509  1.00  0.00     0.166 HD
ENDBRANCH   9  10
ENDBRANCH   2   9
BRANCH   6  16
HETATM   16  C   UNL     1     -41.686 -47.692  10.777  1.00  0.00     0.086 C 
HETATM   17  C   UNL     1     -42.682 -47.814   9.616  1.00  0.00     0.025 C 
HETATM   18  C   UNL     1     -43.149 -46.391   9.305  1.00  0.00     0.002 C 
HETATM   19  C   UNL     1     -42.560 -45.513  10.402  1.00  0.00     0.002 C 
HETATM   20  C   UNL     1     -41.272 -46.224  10.780  1.00  0.00     0.025 C 
ENDBRANCH   6  16
TORSDOF 3
ENDMDL
