MODEL 1
REMARK VINA RESULT:      -6.3      0.000      0.000
REMARK  6 active torsions:
REMARK  status: ('A' for Active; 'I' for Inactive)
REMARK    1  A    between atoms: C_2  and  C_3 
REMARK    2  A    between atoms: C_3  and  C_4 
REMARK    3  A    between atoms: C_4  and  C_5 
REMARK    4  A    between atoms: N_14  and  C_15 
REMARK    5  A    between atoms: C_15  and  C_16 
REMARK    6  A    between atoms: C_16  and  O_17 
ROOT
HETATM    1  C   UNL     1     -41.658 -47.071  10.566  1.00  0.00     0.084 C 
HETATM    2  N   UNL     1     -41.205 -45.865  10.284  1.00  0.00    -0.344 N 
ATOM      3  HN  UNL     1     -41.415 -45.310   9.454  1.00  0.00     0.167 HD
HETATM    4  C   UNL     1     -40.397 -45.509  11.328  1.00  0.00     0.060 A 
HETATM    5  C   UNL     1     -39.671 -44.324  11.525  1.00  0.00     0.032 A 
HETATM    6  C   UNL     1     -38.926 -44.177  12.700  1.00  0.00     0.002 A 
HETATM    7  C   UNL     1     -38.933 -45.175  13.675  1.00  0.00     0.002 A 
HETATM    8  C   UNL     1     -39.656 -46.361  13.495  1.00  0.00     0.032 A 
HETATM    9  C   UNL     1     -40.349 -46.518  12.287  1.00  0.00     0.062 A 
HETATM   10  N   UNL     1     -41.063 -47.554  11.719  1.00  0.00    -0.332 N 
ENDROOT
BRANCH  10  11
HETATM   11  C   UNL     1     -41.155 -48.910  12.241  1.00  0.00     0.168 C 
BRANCH  11  12
HETATM   12  C   UNL     1     -40.163 -49.943  11.626  1.00  0.00     0.078 C 
HETATM   13  C   UNL     1     -40.228 -51.367  12.205  1.00  0.00     0.066 C 
HETATM   14  C   UNL     1     -39.580 -51.476  13.575  1.00  0.00     0.170 C 
HETATM   15  O   UNL     1     -38.246 -50.979  13.553  1.00  0.00    -0.391 OA
HETATM   16  C   UNL     1     -38.167 -49.612  13.162  1.00  0.00     0.170 C 
HETATM   17  C   UNL     1     -38.719 -49.423  11.755  1.00  0.00     0.066 C 
BRANCH  12  18
HETATM   18  O   UNL     1     -40.415 -50.024  10.211  1.00  0.00    -0.388 OA
HETATM   19  H   UNL     1     -39.694 -49.554   9.752  1.00  0.00     0.210 HD
ENDBRANCH  12  18
ENDBRANCH  11  12
ENDBRANCH  10  11
BRANCH   1  20
HETATM   20  C   UNL     1     -42.655 -47.800   9.723  1.00  0.00     0.076 C 
BRANCH  20  21
HETATM   21  C   UNL     1     -44.096 -47.425  10.077  1.00  0.00     0.007 C 
BRANCH  21  22
HETATM   22  C   UNL     1     -44.965 -47.394   8.817  1.00  0.00    -0.004 C 
HETATM   23  C   UNL     1     -46.441 -47.262   9.148  1.00  0.00     0.005 C 
ENDBRANCH  21  22
ENDBRANCH  20  21
ENDBRANCH   1  20
TORSDOF 6
ENDMDL
MODEL 2
REMARK VINA RESULT:      -6.2      4.497      6.945
REMARK  6 active torsions:
REMARK  status: ('A' for Active; 'I' for Inactive)
REMARK    1  A    between atoms: C_2  and  C_3 
REMARK    2  A    between atoms: C_3  and  C_4 
REMARK    3  A    between atoms: C_4  and  C_5 
REMARK    4  A    between atoms: N_14  and  C_15 
REMARK    5  A    between atoms: C_15  and  C_16 
REMARK    6  A    between atoms: C_16  and  O_17 
ROOT
HETATM    1  C   UNL     1     -41.545 -52.584  12.641  1.00  0.00     0.084 C 
HETATM    2  N   UNL     1     -40.646 -51.873  11.989  1.00  0.00    -0.344 N 
ATOM      3  HN  UNL     1     -39.747 -52.199  11.633  1.00  0.00     0.167 HD
HETATM    4  C   UNL     1     -41.161 -50.610  11.887  1.00  0.00     0.060 A 
HETATM    5  C   UNL     1     -40.606 -49.471  11.284  1.00  0.00     0.032 A 
HETATM    6  C   UNL     1     -41.342 -48.281  11.283  1.00  0.00     0.002 A 
HETATM    7  C   UNL     1     -42.620 -48.237  11.841  1.00  0.00     0.002 A 
HETATM    8  C   UNL     1     -43.189 -49.366  12.443  1.00  0.00     0.032 A 
HETATM    9  C   UNL     1     -42.414 -50.533  12.488  1.00  0.00     0.062 A 
HETATM   10  N   UNL     1     -42.583 -51.774  13.070  1.00  0.00    -0.332 N 
ENDROOT
BRANCH  10  11
HETATM   11  C   UNL     1     -43.657 -52.148  13.979  1.00  0.00     0.168 C 
BRANCH  11  12
HETATM   12  C   UNL     1     -44.991 -52.596  13.307  1.00  0.00     0.078 C 
HETATM   13  C   UNL     1     -46.127 -51.560  13.309  1.00  0.00     0.066 C 
HETATM   14  C   UNL     1     -46.793 -51.418  14.667  1.00  0.00     0.170 C 
HETATM   15  O   UNL     1     -47.234 -52.681  15.157  1.00  0.00    -0.391 OA
HETATM   16  C   UNL     1     -46.174 -53.620  15.308  1.00  0.00     0.170 C 
HETATM   17  C   UNL     1     -45.500 -53.890  13.969  1.00  0.00     0.066 C 
BRANCH  12  18
HETATM   18  O   UNL     1     -44.711 -52.950  11.940  1.00  0.00    -0.388 OA
HETATM   19  H   UNL     1     -45.081 -52.253  11.368  1.00  0.00     0.210 HD
ENDBRANCH  12  18
ENDBRANCH  11  12
ENDBRANCH  10  11
BRANCH   1  20
HETATM   20  C   UNL     1     -41.419 -54.053  12.889  1.00  0.00     0.076 C 
BRANCH  20  21
HETATM   21  C   UNL     1     -40.291 -54.378  13.871  1.00  0.00     0.007 C 
BRANCH  21  22
HETATM   22  C   UNL     1     -40.810 -54.347  15.311  1.00  0.00    -0.004 C 
HETATM   23  C   UNL     1     -42.148 -55.053  15.448  1.00  0.00     0.005 C 
ENDBRANCH  21  22
ENDBRANCH  20  21
ENDBRANCH   1  20
TORSDOF 6
ENDMDL
MODEL 3
REMARK VINA RESULT:      -6.1      2.871      4.436
REMARK  6 active torsions:
REMARK  status: ('A' for Active; 'I' for Inactive)
REMARK    1  A    between atoms: C_2  and  C_3 
REMARK    2  A    between atoms: C_3  and  C_4 
REMARK    3  A    between atoms: C_4  and  C_5 
REMARK    4  A    between atoms: N_14  and  C_15 
REMARK    5  A    between atoms: C_15  and  C_16 
REMARK    6  A    between atoms: C_16  and  O_17 
ROOT
HETATM    1  C   UNL     1     -41.640 -49.366  11.874  1.00  0.00     0.084 C 
HETATM    2  N   UNL     1     -40.574 -48.893  11.260  1.00  0.00    -0.344 N 
ATOM      3  HN  UNL     1     -40.545 -48.132  10.581  1.00  0.00     0.167 HD
HETATM    4  C   UNL     1     -39.515 -49.628  11.715  1.00  0.00     0.060 A 
HETATM    5  C   UNL     1     -38.155 -49.528  11.381  1.00  0.00     0.032 A 
HETATM    6  C   UNL     1     -37.242 -50.384  12.006  1.00  0.00     0.002 A 
HETATM    7  C   UNL     1     -37.670 -51.296  12.971  1.00  0.00     0.002 A 
HETATM    8  C   UNL     1     -39.022 -51.405  13.319  1.00  0.00     0.032 A 
HETATM    9  C   UNL     1     -39.931 -50.581  12.640  1.00  0.00     0.062 A 
HETATM   10  N   UNL     1     -41.308 -50.477  12.631  1.00  0.00    -0.332 N 
ENDROOT
BRANCH  10  11
HETATM   11  C   UNL     1     -42.234 -51.385  13.293  1.00  0.00     0.168 C 
BRANCH  11  12
HETATM   12  C   UNL     1     -42.526 -52.721  12.544  1.00  0.00     0.078 C 
HETATM   13  C   UNL     1     -44.004 -53.138  12.462  1.00  0.00     0.066 C 
HETATM   14  C   UNL     1     -44.535 -53.691  13.773  1.00  0.00     0.170 C 
HETATM   15  O   UNL     1     -43.716 -54.754  14.251  1.00  0.00    -0.391 OA
HETATM   16  C   UNL     1     -42.368 -54.358  14.480  1.00  0.00     0.170 C 
HETATM   17  C   UNL     1     -41.725 -53.868  13.190  1.00  0.00     0.066 C 
BRANCH  12  18
HETATM   18  O   UNL     1     -42.017 -52.608  11.203  1.00  0.00    -0.388 OA
HETATM   19  H   UNL     1     -42.195 -53.450  10.744  1.00  0.00     0.210 HD
ENDBRANCH  12  18
ENDBRANCH  11  12
ENDBRANCH  10  11
BRANCH   1  20
HETATM   20  C   UNL     1     -43.008 -48.780  11.731  1.00  0.00     0.076 C 
BRANCH  20  21
HETATM   21  C   UNL     1     -42.997 -47.475  10.933  1.00  0.00     0.007 C 
BRANCH  21  22
HETATM   22  C   UNL     1     -44.116 -47.478   9.887  1.00  0.00    -0.004 C 
HETATM   23  C   UNL     1     -43.571 -47.518   8.471  1.00  0.00     0.005 C 
ENDBRANCH  21  22
ENDBRANCH  20  21
ENDBRANCH   1  20
TORSDOF 6
ENDMDL
MODEL 4
REMARK VINA RESULT:      -6.1      2.501      4.869
REMARK  6 active torsions:
REMARK  status: ('A' for Active; 'I' for Inactive)
REMARK    1  A    between atoms: C_2  and  C_3 
REMARK    2  A    between atoms: C_3  and  C_4 
REMARK    3  A    between atoms: C_4  and  C_5 
REMARK    4  A    between atoms: N_14  and  C_15 
REMARK    5  A    between atoms: C_15  and  C_16 
REMARK    6  A    between atoms: C_16  and  O_17 
ROOT
HETATM    1  C   UNL     1     -42.312 -47.322  10.136  1.00  0.00     0.084 C 
HETATM    2  N   UNL     1     -42.107 -48.623  10.086  1.00  0.00    -0.344 N 
ATOM      3  HN  UNL     1     -42.592 -49.298   9.493  1.00  0.00     0.167 HD
HETATM    4  C   UNL     1     -41.114 -48.887  10.988  1.00  0.00     0.060 A 
HETATM    5  C   UNL     1     -40.520 -50.114  11.321  1.00  0.00     0.032 A 
HETATM    6  C   UNL     1     -39.490 -50.131  12.268  1.00  0.00     0.002 A 
HETATM    7  C   UNL     1     -39.038 -48.944  12.844  1.00  0.00     0.002 A 
HETATM    8  C   UNL     1     -39.617 -47.711  12.519  1.00  0.00     0.032 A 
HETATM    9  C   UNL     1     -40.687 -47.719  11.614  1.00  0.00     0.062 A 
HETATM   10  N   UNL     1     -41.552 -46.752  11.143  1.00  0.00    -0.332 N 
ENDROOT
BRANCH  10  11
HETATM   11  C   UNL     1     -41.647 -45.385  11.635  1.00  0.00     0.168 C 
BRANCH  11  12
HETATM   12  C   UNL     1     -40.569 -44.394  11.099  1.00  0.00     0.078 C 
HETATM   13  C   UNL     1     -39.272 -44.300  11.921  1.00  0.00     0.066 C 
HETATM   14  C   UNL     1     -39.445 -43.507  13.205  1.00  0.00     0.170 C 
HETATM   15  O   UNL     1     -39.994 -42.219  12.943  1.00  0.00    -0.391 OA
HETATM   16  C   UNL     1     -41.270 -42.276  12.313  1.00  0.00     0.170 C 
HETATM   17  C   UNL     1     -41.174 -42.984  10.968  1.00  0.00     0.066 C 
BRANCH  12  18
HETATM   18  O   UNL     1     -40.221 -44.786   9.758  1.00  0.00    -0.388 OA
HETATM   19  H   UNL     1     -40.634 -45.652   9.583  1.00  0.00     0.210 HD
ENDBRANCH  12  18
ENDBRANCH  11  12
ENDBRANCH  10  11
BRANCH   1  20
HETATM   20  C   UNL     1     -43.261 -46.597   9.236  1.00  0.00     0.076 C 
BRANCH  20  21
HETATM   21  C   UNL     1     -44.302 -47.532   8.619  1.00  0.00     0.007 C 
BRANCH  21  22
HETATM   22  C   UNL     1     -45.615 -47.464   9.405  1.00  0.00    -0.004 C 
HETATM   23  C   UNL     1     -46.667 -48.401   8.837  1.00  0.00     0.005 C 
ENDBRANCH  21  22
ENDBRANCH  20  21
ENDBRANCH   1  20
TORSDOF 6
ENDMDL
MODEL 5
REMARK VINA RESULT:      -5.9      3.986      6.846
REMARK  6 active torsions:
REMARK  status: ('A' for Active; 'I' for Inactive)
REMARK    1  A    between atoms: C_2  and  C_3 
REMARK    2  A    between atoms: C_3  and  C_4 
REMARK    3  A    between atoms: C_4  and  C_5 
REMARK    4  A    between atoms: N_14  and  C_15 
REMARK    5  A    between atoms: C_15  and  C_16 
REMARK    6  A    between atoms: C_16  and  O_17 
ROOT
HETATM    1  C   UNL     1     -43.046 -53.315  13.425  1.00  0.00     0.084 C 
HETATM    2  N   UNL     1     -43.107 -53.956  14.576  1.00  0.00    -0.344 N 
ATOM      3  HN  UNL     1     -43.940 -54.123  15.140  1.00  0.00     0.167 HD
HETATM    4  C   UNL     1     -41.829 -54.351  14.859  1.00  0.00     0.060 A 
HETATM    5  C   UNL     1     -41.347 -55.068  15.965  1.00  0.00     0.032 A 
HETATM    6  C   UNL     1     -39.984 -55.382  16.023  1.00  0.00     0.002 A 
HETATM    7  C   UNL     1     -39.128 -55.019  14.984  1.00  0.00     0.002 A 
HETATM    8  C   UNL     1     -39.595 -54.307  13.872  1.00  0.00     0.032 A 
HETATM    9  C   UNL     1     -40.950 -53.949  13.857  1.00  0.00     0.062 A 
HETATM   10  N   UNL     1     -41.730 -53.183  13.015  1.00  0.00    -0.332 N 
ENDROOT
BRANCH  10  11
HETATM   11  C   UNL     1     -41.244 -52.375  11.906  1.00  0.00     0.168 C 
BRANCH  11  12
HETATM   12  C   UNL     1     -40.353 -51.155  12.294  1.00  0.00     0.078 C 
HETATM   13  C   UNL     1     -40.464 -50.677  13.752  1.00  0.00     0.066 C 
HETATM   14  C   UNL     1     -41.742 -49.902  14.024  1.00  0.00     0.170 C 
HETATM   15  O   UNL     1     -41.894 -48.824  13.105  1.00  0.00    -0.391 OA
HETATM   16  C   UNL     1     -41.945 -49.252  11.748  1.00  0.00     0.170 C 
HETATM   17  C   UNL     1     -40.657 -49.968  11.361  1.00  0.00     0.066 C 
BRANCH  12  18
HETATM   18  O   UNL     1     -38.979 -51.498  12.039  1.00  0.00    -0.388 OA
HETATM   19  H   UNL     1     -38.422 -50.974  12.644  1.00  0.00     0.210 HD
ENDBRANCH  12  18
ENDBRANCH  11  12
ENDBRANCH  10  11
BRANCH   1  20
HETATM   20  C   UNL     1     -44.246 -52.793  12.702  1.00  0.00     0.076 C 
BRANCH  20  21
HETATM   21  C   UNL     1     -44.801 -51.521  13.347  1.00  0.00     0.007 C 
BRANCH  21  22
HETATM   22  C   UNL     1     -46.330 -51.579  13.415  1.00  0.00    -0.004 C 
HETATM   23  C   UNL     1     -46.842 -51.443  14.838  1.00  0.00     0.005 C 
ENDBRANCH  21  22
ENDBRANCH  20  21
ENDBRANCH   1  20
TORSDOF 6
ENDMDL
MODEL 6
REMARK VINA RESULT:      -5.9      4.256      6.861
REMARK  6 active torsions:
REMARK  status: ('A' for Active; 'I' for Inactive)
REMARK    1  A    between atoms: C_2  and  C_3 
REMARK    2  A    between atoms: C_3  and  C_4 
REMARK    3  A    between atoms: C_4  and  C_5 
REMARK    4  A    between atoms: N_14  and  C_15 
REMARK    5  A    between atoms: C_15  and  C_16 
REMARK    6  A    between atoms: C_16  and  O_17 
ROOT
HETATM    1  C   UNL     1     -42.976 -53.640  13.217  1.00  0.00     0.084 C 
HETATM    2  N   UNL     1     -43.076 -54.307  14.350  1.00  0.00    -0.344 N 
ATOM      3  HN  UNL     1     -43.936 -54.584  14.824  1.00  0.00     0.167 HD
HETATM    4  C   UNL     1     -41.795 -54.552  14.761  1.00  0.00     0.060 A 
HETATM    5  C   UNL     1     -41.344 -55.229  15.905  1.00  0.00     0.032 A 
HETATM    6  C   UNL     1     -39.966 -55.378  16.101  1.00  0.00     0.002 A 
HETATM    7  C   UNL     1     -39.059 -54.893  15.159  1.00  0.00     0.002 A 
HETATM    8  C   UNL     1     -39.494 -54.219  14.011  1.00  0.00     0.032 A 
HETATM    9  C   UNL     1     -40.874 -54.026  13.859  1.00  0.00     0.062 A 
HETATM   10  N   UNL     1     -41.652 -53.342  12.947  1.00  0.00    -0.332 N 
ENDROOT
BRANCH  10  11
HETATM   11  C   UNL     1     -41.156 -52.458  11.901  1.00  0.00     0.168 C 
BRANCH  11  12
HETATM   12  C   UNL     1     -41.275 -50.930  12.190  1.00  0.00     0.078 C 
HETATM   13  C   UNL     1     -40.368 -50.014  11.352  1.00  0.00     0.066 C 
HETATM   14  C   UNL     1     -38.918 -50.045  11.806  1.00  0.00     0.170 C 
HETATM   15  O   UNL     1     -38.809 -49.761  13.197  1.00  0.00    -0.391 OA
HETATM   16  C   UNL     1     -39.521 -50.687  14.012  1.00  0.00     0.170 C 
HETATM   17  C   UNL     1     -41.008 -50.659  13.683  1.00  0.00     0.066 C 
BRANCH  12  18
HETATM   18  O   UNL     1     -42.640 -50.533  11.968  1.00  0.00    -0.388 OA
HETATM   19  H   UNL     1     -43.128 -51.309  11.636  1.00  0.00     0.210 HD
ENDBRANCH  12  18
ENDBRANCH  11  12
ENDBRANCH  10  11
BRANCH   1  20
HETATM   20  C   UNL     1     -44.151 -53.250  12.379  1.00  0.00     0.076 C 
BRANCH  20  21
HETATM   21  C   UNL     1     -45.469 -53.342  13.151  1.00  0.00     0.007 C 
BRANCH  21  22
HETATM   22  C   UNL     1     -46.286 -52.060  12.968  1.00  0.00    -0.004 C 
HETATM   23  C   UNL     1     -46.641 -51.417  14.298  1.00  0.00     0.005 C 
ENDBRANCH  21  22
ENDBRANCH  20  21
ENDBRANCH   1  20
TORSDOF 6
ENDMDL
MODEL 7
REMARK VINA RESULT:      -5.8      3.206      4.326
REMARK  6 active torsions:
REMARK  status: ('A' for Active; 'I' for Inactive)
REMARK    1  A    between atoms: C_2  and  C_3 
REMARK    2  A    between atoms: C_3  and  C_4 
REMARK    3  A    between atoms: C_4  and  C_5 
REMARK    4  A    between atoms: N_14  and  C_15 
REMARK    5  A    between atoms: C_15  and  C_16 
REMARK    6  A    between atoms: C_16  and  O_17 
ROOT
HETATM    1  C   UNL     1     -43.126 -50.368  13.223  1.00  0.00     0.084 C 
HETATM    2  N   UNL     1     -43.543 -49.531  12.293  1.00  0.00    -0.344 N 
ATOM      3  HN  UNL     1     -44.493 -49.441  11.931  1.00  0.00     0.167 HD
HETATM    4  C   UNL     1     -42.446 -48.809  11.913  1.00  0.00     0.060 A 
HETATM    5  C   UNL     1     -42.345 -47.786  10.957  1.00  0.00     0.032 A 
HETATM    6  C   UNL     1     -41.104 -47.169  10.758  1.00  0.00     0.002 A 
HETATM    7  C   UNL     1     -39.997 -47.540  11.521  1.00  0.00     0.002 A 
HETATM    8  C   UNL     1     -40.084 -48.555  12.482  1.00  0.00     0.032 A 
HETATM    9  C   UNL     1     -41.318 -49.203  12.627  1.00  0.00     0.062 A 
HETATM   10  N   UNL     1     -41.752 -50.284  13.368  1.00  0.00    -0.332 N 
ENDROOT
BRANCH  10  11
HETATM   11  C   UNL     1     -40.905 -51.176  14.147  1.00  0.00     0.168 C 
BRANCH  11  12
HETATM   12  C   UNL     1     -40.391 -52.446  13.403  1.00  0.00     0.078 C 
HETATM   13  C   UNL     1     -41.395 -53.604  13.273  1.00  0.00     0.066 C 
HETATM   14  C   UNL     1     -41.582 -54.371  14.571  1.00  0.00     0.170 C 
HETATM   15  O   UNL     1     -40.332 -54.816  15.088  1.00  0.00    -0.391 OA
HETATM   16  C   UNL     1     -39.430 -53.749  15.360  1.00  0.00     0.170 C 
HETATM   17  C   UNL     1     -39.116 -52.973  14.088  1.00  0.00     0.066 C 
BRANCH  12  18
HETATM   18  O   UNL     1     -39.981 -52.060  12.079  1.00  0.00    -0.388 OA
HETATM   19  H   UNL     1     -40.764 -52.097  11.500  1.00  0.00     0.210 HD
ENDBRANCH  12  18
ENDBRANCH  11  12
ENDBRANCH  10  11
BRANCH   1  20
HETATM   20  C   UNL     1     -44.033 -51.286  13.979  1.00  0.00     0.076 C 
BRANCH  20  21
HETATM   21  C   UNL     1     -44.987 -52.046  13.055  1.00  0.00     0.007 C 
BRANCH  21  22
HETATM   22  C   UNL     1     -46.427 -51.567  13.262  1.00  0.00    -0.004 C 
HETATM   23  C   UNL     1     -46.775 -51.433  14.734  1.00  0.00     0.005 C 
ENDBRANCH  21  22
ENDBRANCH  20  21
ENDBRANCH   1  20
TORSDOF 6
ENDMDL
MODEL 8
REMARK VINA RESULT:      -5.7      3.945      5.477
REMARK  6 active torsions:
REMARK  status: ('A' for Active; 'I' for Inactive)
REMARK    1  A    between atoms: C_2  and  C_3 
REMARK    2  A    between atoms: C_3  and  C_4 
REMARK    3  A    between atoms: C_4  and  C_5 
REMARK    4  A    between atoms: N_14  and  C_15 
REMARK    5  A    between atoms: C_15  and  C_16 
REMARK    6  A    between atoms: C_16  and  O_17 
ROOT
HETATM    1  C   UNL     1     -41.935 -50.754  12.885  1.00  0.00     0.084 C 
HETATM    2  N   UNL     1     -41.383 -50.016  11.942  1.00  0.00    -0.344 N 
ATOM      3  HN  UNL     1     -41.866 -49.449  11.245  1.00  0.00     0.167 HD
HETATM    4  C   UNL     1     -40.031 -50.164  12.088  1.00  0.00     0.060 A 
HETATM    5  C   UNL     1     -38.990 -49.590  11.341  1.00  0.00     0.032 A 
HETATM    6  C   UNL     1     -37.667 -49.873  11.700  1.00  0.00     0.002 A 
HETATM    7  C   UNL     1     -37.388 -50.682  12.801  1.00  0.00     0.002 A 
HETATM    8  C   UNL     1     -38.416 -51.258  13.558  1.00  0.00     0.032 A 
HETATM    9  C   UNL     1     -39.734 -51.013  13.150  1.00  0.00     0.062 A 
HETATM   10  N   UNL     1     -40.968 -51.475  13.564  1.00  0.00    -0.332 N 
ENDROOT
BRANCH  10  11
HETATM   11  C   UNL     1     -41.197 -52.537  14.533  1.00  0.00     0.168 C 
BRANCH  11  12
HETATM   12  C   UNL     1     -41.335 -53.974  13.944  1.00  0.00     0.078 C 
HETATM   13  C   UNL     1     -42.707 -54.329  13.347  1.00  0.00     0.066 C 
HETATM   14  C   UNL     1     -43.760 -54.601  14.409  1.00  0.00     0.170 C 
HETATM   15  O   UNL     1     -43.316 -55.594  15.328  1.00  0.00    -0.391 OA
HETATM   16  C   UNL     1     -42.120 -55.227  16.010  1.00  0.00     0.170 C 
HETATM   17  C   UNL     1     -40.981 -55.017  15.021  1.00  0.00     0.066 C 
BRANCH  12  18
HETATM   18  O   UNL     1     -40.344 -54.138  12.914  1.00  0.00    -0.388 OA
HETATM   19  H   UNL     1     -40.775 -53.977  12.054  1.00  0.00     0.210 HD
ENDBRANCH  12  18
ENDBRANCH  11  12
ENDBRANCH  10  11
BRANCH   1  20
HETATM   20  C   UNL     1     -43.408 -50.806  13.140  1.00  0.00     0.076 C 
BRANCH  20  21
HETATM   21  C   UNL     1     -43.785 -50.167  14.478  1.00  0.00     0.007 C 
BRANCH  21  22
HETATM   22  C   UNL     1     -44.902 -50.965  15.156  1.00  0.00    -0.004 C 
HETATM   23  C   UNL     1     -45.969 -51.402  14.166  1.00  0.00     0.005 C 
ENDBRANCH  21  22
ENDBRANCH  20  21
ENDBRANCH   1  20
TORSDOF 6
ENDMDL
MODEL 9
REMARK VINA RESULT:      -5.7      2.574      3.686
REMARK  6 active torsions:
REMARK  status: ('A' for Active; 'I' for Inactive)
REMARK    1  A    between atoms: C_2  and  C_3 
REMARK    2  A    between atoms: C_3  and  C_4 
REMARK    3  A    between atoms: C_4  and  C_5 
REMARK    4  A    between atoms: N_14  and  C_15 
REMARK    5  A    between atoms: C_15  and  C_16 
REMARK    6  A    between atoms: C_16  and  O_17 
ROOT
HETATM    1  C   UNL     1     -42.950 -49.463  12.586  1.00  0.00     0.084 C 
HETATM    2  N   UNL     1     -43.833 -48.883  11.797  1.00  0.00    -0.344 N 
ATOM      3  HN  UNL     1     -44.809 -49.151  11.668  1.00  0.00     0.167 HD
HETATM    4  C   UNL     1     -43.178 -47.850  11.187  1.00  0.00     0.060 A 
HETATM    5  C   UNL     1     -43.662 -46.917  10.256  1.00  0.00     0.032 A 
HETATM    6  C   UNL     1     -42.798 -45.922   9.787  1.00  0.00     0.002 A 
HETATM    7  C   UNL     1     -41.489 -45.836  10.262  1.00  0.00     0.002 A 
HETATM    8  C   UNL     1     -40.993 -46.756  11.194  1.00  0.00     0.032 A 
HETATM    9  C   UNL     1     -41.853 -47.782  11.609  1.00  0.00     0.062 A 
HETATM   10  N   UNL     1     -41.699 -48.898  12.407  1.00  0.00    -0.332 N 
ENDROOT
BRANCH  10  11
HETATM   11  C   UNL     1     -40.439 -49.390  12.948  1.00  0.00     0.168 C 
BRANCH  11  12
HETATM   12  C   UNL     1     -39.718 -50.483  12.101  1.00  0.00     0.078 C 
HETATM   13  C   UNL     1     -40.327 -51.893  12.162  1.00  0.00     0.066 C 
HETATM   14  C   UNL     1     -40.015 -52.615  13.463  1.00  0.00     0.170 C 
HETATM   15  O   UNL     1     -38.613 -52.637  13.714  1.00  0.00    -0.391 OA
HETATM   16  C   UNL     1     -38.044 -51.335  13.811  1.00  0.00     0.170 C 
HETATM   17  C   UNL     1     -38.235 -50.566  12.511  1.00  0.00     0.066 C 
BRANCH  12  18
HETATM   18  O   UNL     1     -39.710 -50.058  10.726  1.00  0.00    -0.388 OA
HETATM   19  H   UNL     1     -39.175 -50.696  10.219  1.00  0.00     0.210 HD
ENDBRANCH  12  18
ENDBRANCH  11  12
ENDBRANCH  10  11
BRANCH   1  20
HETATM   20  C   UNL     1     -43.279 -50.590  13.512  1.00  0.00     0.076 C 
BRANCH  20  21
HETATM   21  C   UNL     1     -44.746 -51.013  13.408  1.00  0.00     0.007 C 
BRANCH  21  22
HETATM   22  C   UNL     1     -45.374 -51.109  14.801  1.00  0.00    -0.004 C 
HETATM   23  C   UNL     1     -46.850 -51.460  14.736  1.00  0.00     0.005 C 
ENDBRANCH  21  22
ENDBRANCH  20  21
ENDBRANCH   1  20
TORSDOF 6
ENDMDL
