MODEL 1
REMARK VINA RESULT:      -6.3      0.000      0.000
REMARK  3 active torsions:
REMARK  status: ('A' for Active; 'I' for Inactive)
REMARK    1  A    between atoms: C_5  and  O_6 
REMARK    2  A    between atoms: C_5  and  C_7 
REMARK    3  A    between atoms: C_7  and  N_8 
ROOT
HETATM    1  N   UNL     1     -42.991 -53.417  12.803  1.00  0.00    -0.283 N 
HETATM    2  N   UNL     1     -42.582 -52.638  11.763  1.00  0.00    -0.308 N 
ATOM      3  HN  UNL     1     -43.150 -52.250  11.010  1.00  0.00     0.186 HD
HETATM    4  C   UNL     1     -41.266 -52.498  11.955  1.00  0.00     0.122 A 
HETATM    5  C   UNL     1     -40.832 -53.184  13.091  1.00  0.00     0.032 A 
HETATM    6  C   UNL     1     -39.561 -53.388  13.711  1.00  0.00     0.122 A 
HETATM    7  N   UNL     1     -39.463 -54.091  14.801  1.00  0.00    -0.306 N 
ATOM      8  HN  UNL     1     -38.554 -54.233  15.240  1.00  0.00     0.186 HD
HETATM    9  N   UNL     1     -40.621 -54.653  15.367  1.00  0.00    -0.261 N 
HETATM   10  C   UNL     1     -40.430 -55.400  16.595  1.00  0.00     0.181 C 
HETATM   11  C   UNL     1     -41.922 -54.538  14.832  1.00  0.00     0.290 A 
HETATM   12  O   UNL     1     -42.913 -55.051  15.343  1.00  0.00    -0.264 OA
HETATM   13  C   UNL     1     -41.960 -53.750  13.634  1.00  0.00     0.133 A 
ENDROOT
BRANCH   1  14
HETATM   14  C   UNL     1     -44.368 -53.895  12.843  1.00  0.00     0.187 C 
BRANCH  14  15
HETATM   15  C   UNL     1     -45.458 -52.794  12.966  1.00  0.00     0.076 C 
HETATM   16  C   UNL     1     -44.968 -51.528  13.691  1.00  0.00     0.040 C 
HETATM   17  C   UNL     1     -44.714 -51.762  15.180  1.00  0.00     0.007 C 
HETATM   18  C   UNL     1     -45.939 -52.336  15.907  1.00  0.00    -0.019 C 
HETATM   19  C   UNL     1     -47.029 -51.274  16.087  1.00  0.00     0.010 C 
HETATM   20  C   UNL     1     -46.480 -53.579  15.187  1.00  0.00     0.007 C 
HETATM   21  C   UNL     1     -46.699 -53.354  13.691  1.00  0.00     0.040 C 
BRANCH  15  22
HETATM   22  O   UNL     1     -45.913 -52.412  11.658  1.00  0.00    -0.388 OA
HETATM   23  H   UNL     1     -46.781 -51.966  11.791  1.00  0.00     0.210 HD
ENDBRANCH  15  22
ENDBRANCH  14  15
ENDBRANCH   1  14
TORSDOF 3
ENDMDL
MODEL 2
REMARK VINA RESULT:      -6.2      2.445      5.938
REMARK  3 active torsions:
REMARK  status: ('A' for Active; 'I' for Inactive)
REMARK    1  A    between atoms: C_5  and  O_6 
REMARK    2  A    between atoms: C_5  and  C_7 
REMARK    3  A    between atoms: C_7  and  N_8 
ROOT
HETATM    1  N   UNL     1     -42.141 -53.187  14.585  1.00  0.00    -0.283 N 
HETATM    2  N   UNL     1     -41.746 -54.363  15.147  1.00  0.00    -0.308 N 
ATOM      3  HN  UNL     1     -40.844 -54.585  15.568  1.00  0.00     0.186 HD
HETATM    4  C   UNL     1     -42.812 -55.161  15.022  1.00  0.00     0.122 A 
HETATM    5  C   UNL     1     -43.871 -54.515  14.381  1.00  0.00     0.032 A 
HETATM    6  C   UNL     1     -45.183 -54.908  13.976  1.00  0.00     0.122 A 
HETATM    7  N   UNL     1     -45.973 -54.060  13.384  1.00  0.00    -0.306 N 
ATOM      8  HN  UNL     1     -46.909 -54.345  13.097  1.00  0.00     0.186 HD
HETATM    9  N   UNL     1     -45.525 -52.749  13.144  1.00  0.00    -0.261 N 
HETATM   10  C   UNL     1     -46.474 -51.859  12.504  1.00  0.00     0.181 C 
HETATM   11  C   UNL     1     -44.245 -52.257  13.478  1.00  0.00     0.290 A 
HETATM   12  O   UNL     1     -43.877 -51.110  13.243  1.00  0.00    -0.264 OA
HETATM   13  C   UNL     1     -43.427 -53.240  14.127  1.00  0.00     0.133 A 
ENDROOT
BRANCH   1  14
HETATM   14  C   UNL     1     -41.171 -52.110  14.419  1.00  0.00     0.187 C 
BRANCH  14  15
HETATM   15  C   UNL     1     -40.140 -52.306  13.274  1.00  0.00     0.076 C 
HETATM   16  C   UNL     1     -38.689 -52.022  13.704  1.00  0.00     0.040 C 
HETATM   17  C   UNL     1     -38.436 -50.542  13.985  1.00  0.00     0.007 C 
HETATM   18  C   UNL     1     -38.813 -49.641  12.800  1.00  0.00    -0.019 C 
HETATM   19  C   UNL     1     -37.800 -49.770  11.658  1.00  0.00     0.010 C 
HETATM   20  C   UNL     1     -40.242 -49.925  12.318  1.00  0.00     0.007 C 
HETATM   21  C   UNL     1     -40.504 -51.411  12.072  1.00  0.00     0.040 C 
BRANCH  15  22
HETATM   22  O   UNL     1     -40.205 -53.656  12.786  1.00  0.00    -0.388 OA
HETATM   23  H   UNL     1     -40.399 -53.588  11.823  1.00  0.00     0.210 HD
ENDBRANCH  15  22
ENDBRANCH  14  15
ENDBRANCH   1  14
TORSDOF 3
ENDMDL
MODEL 3
REMARK VINA RESULT:      -6.2      2.954      4.808
REMARK  3 active torsions:
REMARK  status: ('A' for Active; 'I' for Inactive)
REMARK    1  A    between atoms: C_5  and  O_6 
REMARK    2  A    between atoms: C_5  and  C_7 
REMARK    3  A    between atoms: C_7  and  N_8 
ROOT
HETATM    1  N   UNL     1     -40.282 -51.795  13.506  1.00  0.00    -0.283 N 
HETATM    2  N   UNL     1     -39.070 -52.300  13.869  1.00  0.00    -0.308 N 
ATOM      3  HN  UNL     1     -38.879 -53.111  14.456  1.00  0.00     0.186 HD
HETATM    4  C   UNL     1     -38.186 -51.487  13.279  1.00  0.00     0.122 A 
HETATM    5  C   UNL     1     -38.817 -50.470  12.558  1.00  0.00     0.032 A 
HETATM    6  C   UNL     1     -38.358 -49.353  11.797  1.00  0.00     0.122 A 
HETATM    7  N   UNL     1     -39.207 -48.557  11.216  1.00  0.00    -0.306 N 
ATOM      8  HN  UNL     1     -38.875 -47.760  10.673  1.00  0.00     0.186 HD
HETATM    9  N   UNL     1     -40.585 -48.803  11.344  1.00  0.00    -0.261 N 
HETATM   10  C   UNL     1     -41.463 -47.885  10.645  1.00  0.00     0.181 C 
HETATM   11  C   UNL     1     -41.153 -49.859  12.088  1.00  0.00     0.290 A 
HETATM   12  O   UNL     1     -42.362 -50.042  12.191  1.00  0.00    -0.264 OA
HETATM   13  C   UNL     1     -40.165 -50.699  12.699  1.00  0.00     0.133 A 
ENDROOT
BRANCH   1  14
HETATM   14  C   UNL     1     -41.496 -52.357  14.087  1.00  0.00     0.187 C 
BRANCH  14  15
HETATM   15  C   UNL     1     -42.068 -53.609  13.367  1.00  0.00     0.076 C 
HETATM   16  C   UNL     1     -43.328 -53.312  12.534  1.00  0.00     0.040 C 
HETATM   17  C   UNL     1     -44.541 -52.974  13.400  1.00  0.00     0.007 C 
HETATM   18  C   UNL     1     -44.850 -54.062  14.438  1.00  0.00    -0.019 C 
HETATM   19  C   UNL     1     -45.455 -55.306  13.779  1.00  0.00     0.010 C 
HETATM   20  C   UNL     1     -43.603 -54.414  15.262  1.00  0.00     0.007 C 
HETATM   21  C   UNL     1     -42.381 -54.716  14.395  1.00  0.00     0.040 C 
BRANCH  15  22
HETATM   22  O   UNL     1     -41.074 -54.164  12.491  1.00  0.00    -0.388 OA
HETATM   23  H   UNL     1     -40.836 -53.446  11.860  1.00  0.00     0.210 HD
ENDBRANCH  15  22
ENDBRANCH  14  15
ENDBRANCH   1  14
TORSDOF 3
ENDMDL
MODEL 4
REMARK VINA RESULT:      -6.1      2.453      5.079
REMARK  3 active torsions:
REMARK  status: ('A' for Active; 'I' for Inactive)
REMARK    1  A    between atoms: C_5  and  O_6 
REMARK    2  A    between atoms: C_5  and  C_7 
REMARK    3  A    between atoms: C_7  and  N_8 
ROOT
HETATM    1  N   UNL     1     -44.809 -53.102  13.409  1.00  0.00    -0.283 N 
HETATM    2  N   UNL     1     -45.294 -52.290  12.429  1.00  0.00    -0.308 N 
ATOM      3  HN  UNL     1     -44.990 -52.230  11.457  1.00  0.00     0.186 HD
HETATM    4  C   UNL     1     -46.260 -51.589  13.031  1.00  0.00     0.122 A 
HETATM    5  C   UNL     1     -46.389 -51.935  14.379  1.00  0.00     0.032 A 
HETATM    6  C   UNL     1     -47.214 -51.482  15.453  1.00  0.00     0.122 A 
HETATM    7  N   UNL     1     -47.109 -52.013  16.635  1.00  0.00    -0.306 N 
ATOM      8  HN  UNL     1     -47.700 -51.687  17.399  1.00  0.00     0.186 HD
HETATM    9  N   UNL     1     -46.173 -53.040  16.852  1.00  0.00    -0.261 N 
HETATM   10  C   UNL     1     -46.137 -53.597  18.190  1.00  0.00     0.181 C 
HETATM   11  C   UNL     1     -45.292 -53.551  15.875  1.00  0.00     0.290 A 
HETATM   12  O   UNL     1     -44.476 -54.441  16.097  1.00  0.00    -0.264 OA
HETATM   13  C   UNL     1     -45.461 -52.925  14.596  1.00  0.00     0.133 A 
ENDROOT
BRANCH   1  14
HETATM   14  C   UNL     1     -43.633 -53.923  13.143  1.00  0.00     0.187 C 
BRANCH  14  15
HETATM   15  C   UNL     1     -42.330 -53.144  12.815  1.00  0.00     0.076 C 
HETATM   16  C   UNL     1     -41.063 -54.015  12.884  1.00  0.00     0.040 C 
HETATM   17  C   UNL     1     -40.718 -54.444  14.309  1.00  0.00     0.007 C 
HETATM   18  C   UNL     1     -40.582 -53.254  15.269  1.00  0.00    -0.019 C 
HETATM   19  C   UNL     1     -39.288 -52.474  15.011  1.00  0.00     0.010 C 
HETATM   20  C   UNL     1     -41.812 -52.338  15.198  1.00  0.00     0.007 C 
HETATM   21  C   UNL     1     -42.177 -51.940  13.768  1.00  0.00     0.040 C 
BRANCH  15  22
HETATM   22  O   UNL     1     -42.416 -52.584  11.495  1.00  0.00    -0.388 OA
HETATM   23  H   UNL     1     -41.659 -52.959  10.990  1.00  0.00     0.210 HD
ENDBRANCH  15  22
ENDBRANCH  14  15
ENDBRANCH   1  14
TORSDOF 3
ENDMDL
MODEL 5
REMARK VINA RESULT:      -6.1      2.623      4.936
REMARK  3 active torsions:
REMARK  status: ('A' for Active; 'I' for Inactive)
REMARK    1  A    between atoms: C_5  and  O_6 
REMARK    2  A    between atoms: C_5  and  C_7 
REMARK    3  A    between atoms: C_7  and  N_8 
ROOT
HETATM    1  N   UNL     1     -41.884 -52.872  12.374  1.00  0.00    -0.283 N 
HETATM    2  N   UNL     1     -43.098 -52.724  11.773  1.00  0.00    -0.308 N 
ATOM      3  HN  UNL     1     -43.323 -52.177  10.943  1.00  0.00     0.186 HD
HETATM    4  C   UNL     1     -43.927 -53.461  12.521  1.00  0.00     0.122 A 
HETATM    5  C   UNL     1     -43.262 -54.064  13.591  1.00  0.00     0.032 A 
HETATM    6  C   UNL     1     -43.668 -54.897  14.678  1.00  0.00     0.122 A 
HETATM    7  N   UNL     1     -42.796 -55.323  15.544  1.00  0.00    -0.306 N 
ATOM      8  HN  UNL     1     -43.090 -55.918  16.318  1.00  0.00     0.186 HD
HETATM    9  N   UNL     1     -41.446 -54.957  15.404  1.00  0.00    -0.261 N 
HETATM   10  C   UNL     1     -40.534 -55.495  16.395  1.00  0.00     0.181 C 
HETATM   11  C   UNL     1     -40.935 -54.122  14.387  1.00  0.00     0.290 A 
HETATM   12  O   UNL     1     -39.751 -53.809  14.298  1.00  0.00    -0.264 OA
HETATM   13  C   UNL     1     -41.946 -53.690  13.467  1.00  0.00     0.133 A 
ENDROOT
BRANCH   1  14
HETATM   14  C   UNL     1     -40.750 -52.086  11.902  1.00  0.00     0.187 C 
BRANCH  14  15
HETATM   15  C   UNL     1     -40.859 -50.552  12.119  1.00  0.00     0.076 C 
HETATM   16  C   UNL     1     -39.787 -49.750  11.359  1.00  0.00     0.040 C 
HETATM   17  C   UNL     1     -38.383 -49.959  11.924  1.00  0.00     0.007 C 
HETATM   18  C   UNL     1     -38.296 -49.649  13.426  1.00  0.00    -0.019 C 
HETATM   19  C   UNL     1     -38.360 -48.141  13.689  1.00  0.00     0.010 C 
HETATM   20  C   UNL     1     -39.379 -50.402  14.212  1.00  0.00     0.007 C 
HETATM   21  C   UNL     1     -40.778 -50.221  13.623  1.00  0.00     0.040 C 
BRANCH  15  22
HETATM   22  O   UNL     1     -42.150 -50.090  11.690  1.00  0.00    -0.388 OA
HETATM   23  H   UNL     1     -42.076 -49.935  10.720  1.00  0.00     0.210 HD
ENDBRANCH  15  22
ENDBRANCH  14  15
ENDBRANCH   1  14
TORSDOF 3
ENDMDL
MODEL 6
REMARK VINA RESULT:      -6.1      1.965      3.508
REMARK  3 active torsions:
REMARK  status: ('A' for Active; 'I' for Inactive)
REMARK    1  A    between atoms: C_5  and  O_6 
REMARK    2  A    between atoms: C_5  and  C_7 
REMARK    3  A    between atoms: C_7  and  N_8 
ROOT
HETATM    1  N   UNL     1     -41.591 -53.843  13.871  1.00  0.00    -0.283 N 
HETATM    2  N   UNL     1     -41.189 -54.586  14.941  1.00  0.00    -0.308 N 
ATOM      3  HN  UNL     1     -41.662 -55.386  15.361  1.00  0.00     0.186 HD
HETATM    4  C   UNL     1     -40.034 -54.026  15.314  1.00  0.00     0.122 A 
HETATM    5  C   UNL     1     -39.701 -52.935  14.507  1.00  0.00     0.032 A 
HETATM    6  C   UNL     1     -38.629 -51.992  14.493  1.00  0.00     0.122 A 
HETATM    7  N   UNL     1     -38.581 -51.060  13.588  1.00  0.00    -0.306 N 
ATOM      8  HN  UNL     1     -37.813 -50.389  13.582  1.00  0.00     0.186 HD
HETATM    9  N   UNL     1     -39.598 -50.983  12.620  1.00  0.00    -0.261 N 
HETATM   10  C   UNL     1     -39.457 -49.932  11.631  1.00  0.00     0.181 C 
HETATM   11  C   UNL     1     -40.715 -51.843  12.549  1.00  0.00     0.290 A 
HETATM   12  O   UNL     1     -41.594 -51.744  11.698  1.00  0.00    -0.264 OA
HETATM   13  C   UNL     1     -40.705 -52.847  13.572  1.00  0.00     0.133 A 
ENDROOT
BRANCH   1  14
HETATM   14  C   UNL     1     -42.903 -54.086  13.282  1.00  0.00     0.187 C 
BRANCH  14  15
HETATM   15  C   UNL     1     -44.106 -53.998  14.261  1.00  0.00     0.076 C 
HETATM   16  C   UNL     1     -45.473 -54.049  13.556  1.00  0.00     0.040 C 
HETATM   17  C   UNL     1     -45.759 -52.795  12.732  1.00  0.00     0.007 C 
HETATM   18  C   UNL     1     -45.650 -51.505  13.558  1.00  0.00    -0.019 C 
HETATM   19  C   UNL     1     -46.837 -51.354  14.514  1.00  0.00     0.010 C 
HETATM   20  C   UNL     1     -44.313 -51.439  14.310  1.00  0.00     0.007 C 
HETATM   21  C   UNL     1     -44.011 -52.709  15.104  1.00  0.00     0.040 C 
BRANCH  15  22
HETATM   22  O   UNL     1     -44.047 -55.081  15.203  1.00  0.00    -0.388 OA
HETATM   23  H   UNL     1     -44.938 -55.127  15.621  1.00  0.00     0.210 HD
ENDBRANCH  15  22
ENDBRANCH  14  15
ENDBRANCH   1  14
TORSDOF 3
ENDMDL
MODEL 7
REMARK VINA RESULT:      -5.9      5.602      7.956
REMARK  3 active torsions:
REMARK  status: ('A' for Active; 'I' for Inactive)
REMARK    1  A    between atoms: C_5  and  O_6 
REMARK    2  A    between atoms: C_5  and  C_7 
REMARK    3  A    between atoms: C_7  and  N_8 
ROOT
HETATM    1  N   UNL     1     -42.352 -48.128  11.194  1.00  0.00    -0.283 N 
HETATM    2  N   UNL     1     -42.532 -48.232   9.848  1.00  0.00    -0.308 N 
ATOM      3  HN  UNL     1     -42.488 -49.073   9.273  1.00  0.00     0.186 HD
HETATM    4  C   UNL     1     -42.779 -46.979   9.452  1.00  0.00     0.122 A 
HETATM    5  C   UNL     1     -42.747 -46.081  10.522  1.00  0.00     0.032 A 
HETATM    6  C   UNL     1     -42.903 -44.667  10.644  1.00  0.00     0.122 A 
HETATM    7  N   UNL     1     -42.826 -44.092  11.808  1.00  0.00    -0.306 N 
ATOM      8  HN  UNL     1     -42.938 -43.082  11.891  1.00  0.00     0.186 HD
HETATM    9  N   UNL     1     -42.585 -44.875  12.951  1.00  0.00    -0.261 N 
HETATM   10  C   UNL     1     -42.539 -44.163  14.213  1.00  0.00     0.181 C 
HETATM   11  C   UNL     1     -42.392 -46.273  12.948  1.00  0.00     0.290 A 
HETATM   12  O   UNL     1     -42.171 -46.929  13.962  1.00  0.00    -0.264 OA
HETATM   13  C   UNL     1     -42.492 -46.843  11.636  1.00  0.00     0.133 A 
ENDROOT
BRANCH   1  14
HETATM   14  C   UNL     1     -41.922 -49.297  11.953  1.00  0.00     0.187 C 
BRANCH  14  15
HETATM   15  C   UNL     1     -40.516 -49.852  11.592  1.00  0.00     0.076 C 
HETATM   16  C   UNL     1     -40.190 -51.186  12.286  1.00  0.00     0.040 C 
HETATM   17  C   UNL     1     -39.993 -51.035  13.794  1.00  0.00     0.007 C 
HETATM   18  C   UNL     1     -38.927 -49.990  14.151  1.00  0.00    -0.019 C 
HETATM   19  C   UNL     1     -37.516 -50.507  13.849  1.00  0.00     0.010 C 
HETATM   20  C   UNL     1     -39.198 -48.655  13.442  1.00  0.00     0.007 C 
HETATM   21  C   UNL     1     -39.430 -48.813  11.940  1.00  0.00     0.040 C 
BRANCH  15  22
HETATM   22  O   UNL     1     -40.421 -50.051  10.173  1.00  0.00    -0.388 OA
HETATM   23  H   UNL     1     -39.615 -49.565   9.883  1.00  0.00     0.210 HD
ENDBRANCH  15  22
ENDBRANCH  14  15
ENDBRANCH   1  14
TORSDOF 3
ENDMDL
MODEL 8
REMARK VINA RESULT:      -5.9      5.054      6.960
REMARK  3 active torsions:
REMARK  status: ('A' for Active; 'I' for Inactive)
REMARK    1  A    between atoms: C_5  and  O_6 
REMARK    2  A    between atoms: C_5  and  C_7 
REMARK    3  A    between atoms: C_7  and  N_8 
ROOT
HETATM    1  N   UNL     1     -41.933 -48.587  11.694  1.00  0.00    -0.283 N 
HETATM    2  N   UNL     1     -42.654 -48.580  10.538  1.00  0.00    -0.308 N 
ATOM      3  HN  UNL     1     -43.281 -49.302  10.187  1.00  0.00     0.186 HD
HETATM    4  C   UNL     1     -42.351 -47.408   9.970  1.00  0.00     0.122 A 
HETATM    5  C   UNL     1     -41.442 -46.677  10.739  1.00  0.00     0.032 A 
HETATM    6  C   UNL     1     -40.782 -45.421  10.581  1.00  0.00     0.122 A 
HETATM    7  N   UNL     1     -39.968 -44.983  11.496  1.00  0.00    -0.306 N 
ATOM      8  HN  UNL     1     -39.499 -44.085  11.379  1.00  0.00     0.186 HD
HETATM    9  N   UNL     1     -39.739 -45.758  12.646  1.00  0.00    -0.261 N 
HETATM   10  C   UNL     1     -38.839 -45.188  13.630  1.00  0.00     0.181 C 
HETATM   11  C   UNL     1     -40.315 -47.022  12.899  1.00  0.00     0.290 A 
HETATM   12  O   UNL     1     -40.086 -47.682  13.908  1.00  0.00    -0.264 OA
HETATM   13  C   UNL     1     -41.202 -47.444  11.854  1.00  0.00     0.133 A 
ENDROOT
BRANCH   1  14
HETATM   14  C   UNL     1     -41.910 -49.790  12.518  1.00  0.00     0.187 C 
BRANCH  14  15
HETATM   15  C   UNL     1     -41.018 -50.948  11.991  1.00  0.00     0.076 C 
HETATM   16  C   UNL     1     -41.728 -52.314  11.988  1.00  0.00     0.040 C 
HETATM   17  C   UNL     1     -41.985 -52.849  13.396  1.00  0.00     0.007 C 
HETATM   18  C   UNL     1     -40.706 -52.931  14.241  1.00  0.00    -0.019 C 
HETATM   19  C   UNL     1     -39.809 -54.086  13.784  1.00  0.00     0.010 C 
HETATM   20  C   UNL     1     -39.948 -51.596  14.234  1.00  0.00     0.007 C 
HETATM   21  C   UNL     1     -39.724 -51.044  12.826  1.00  0.00     0.040 C 
BRANCH  15  22
HETATM   22  O   UNL     1     -40.592 -50.663  10.649  1.00  0.00    -0.388 OA
HETATM   23  H   UNL     1     -41.407 -50.671  10.097  1.00  0.00     0.210 HD
ENDBRANCH  15  22
ENDBRANCH  14  15
ENDBRANCH   1  14
TORSDOF 3
ENDMDL
MODEL 9
REMARK VINA RESULT:      -5.9      3.175      4.253
REMARK  3 active torsions:
REMARK  status: ('A' for Active; 'I' for Inactive)
REMARK    1  A    between atoms: C_5  and  O_6 
REMARK    2  A    between atoms: C_5  and  C_7 
REMARK    3  A    between atoms: C_7  and  N_8 
ROOT
HETATM    1  N   UNL     1     -42.297 -50.564  12.451  1.00  0.00    -0.283 N 
HETATM    2  N   UNL     1     -43.175 -49.541  12.251  1.00  0.00    -0.308 N 
ATOM      3  HN  UNL     1     -44.188 -49.554  12.368  1.00  0.00     0.186 HD
HETATM    4  C   UNL     1     -42.405 -48.518  11.868  1.00  0.00     0.122 A 
HETATM    5  C   UNL     1     -41.056 -48.876  11.810  1.00  0.00     0.032 A 
HETATM    6  C   UNL     1     -39.857 -48.197  11.437  1.00  0.00     0.122 A 
HETATM    7  N   UNL     1     -38.709 -48.806  11.492  1.00  0.00    -0.306 N 
ATOM      8  HN  UNL     1     -37.855 -48.317  11.225  1.00  0.00     0.186 HD
HETATM    9  N   UNL     1     -38.656 -50.144  11.920  1.00  0.00    -0.261 N 
HETATM   10  C   UNL     1     -37.336 -50.742  11.978  1.00  0.00     0.181 C 
HETATM   11  C   UNL     1     -39.775 -50.921  12.290  1.00  0.00     0.290 A 
HETATM   12  O   UNL     1     -39.698 -52.092  12.648  1.00  0.00    -0.264 OA
HETATM   13  C   UNL     1     -41.006 -50.190  12.209  1.00  0.00     0.133 A 
ENDROOT
BRANCH   1  14
HETATM   14  C   UNL     1     -42.806 -51.898  12.750  1.00  0.00     0.187 C 
BRANCH  14  15
HETATM   15  C   UNL     1     -43.707 -52.006  14.011  1.00  0.00     0.076 C 
HETATM   16  C   UNL     1     -43.494 -53.308  14.804  1.00  0.00     0.040 C 
HETATM   17  C   UNL     1     -43.998 -54.543  14.058  1.00  0.00     0.007 C 
HETATM   18  C   UNL     1     -45.472 -54.423  13.643  1.00  0.00    -0.019 C 
HETATM   19  C   UNL     1     -46.404 -54.563  14.850  1.00  0.00     0.010 C 
HETATM   20  C   UNL     1     -45.731 -53.114  12.884  1.00  0.00     0.007 C 
HETATM   21  C   UNL     1     -45.193 -51.884  13.614  1.00  0.00     0.040 C 
BRANCH  15  22
HETATM   22  O   UNL     1     -43.449 -50.900  14.890  1.00  0.00    -0.388 OA
HETATM   23  H   UNL     1     -44.150 -50.234  14.703  1.00  0.00     0.210 HD
ENDBRANCH  15  22
ENDBRANCH  14  15
ENDBRANCH   1  14
TORSDOF 3
ENDMDL
