MODEL 1
REMARK VINA RESULT:      -6.6      0.000      0.000
REMARK  7 active torsions:
REMARK  status: ('A' for Active; 'I' for Inactive)
REMARK    1  A    between atoms: O_2  and  C_3 
REMARK    2  A    between atoms: C_3  and  C_4 
REMARK    3  A    between atoms: C_4  and  N_5 
REMARK    4  A    between atoms: C_8  and  C_13 
REMARK       I    between atoms: C_13  and  N_15 
REMARK    5  A    between atoms: N_15  and  C_16 
REMARK    6  A    between atoms: C_16  and  C_17 
REMARK    7  A    between atoms: N_20  and  C_22 
ROOT
HETATM    1  C   UNL     1     -40.912 -50.351  11.801  1.00  0.00     0.269 C 
HETATM    2  O   UNL     1     -39.808 -50.774  12.109  1.00  0.00    -0.266 OA
HETATM    3  N   UNL     1     -42.071 -51.095  11.816  1.00  0.00    -0.355 N 
HETATM    4  H   UNL     1     -42.933 -50.618  11.563  1.00  0.00     0.162 HD
ENDROOT
BRANCH   1   5
HETATM    5  C   UNL     1     -41.081 -48.897  11.340  1.00  0.00     0.116 A 
HETATM    6  N   UNL     1     -42.156 -48.560  10.689  1.00  0.00    -0.290 N 
HETATM    7  N   UNL     1     -42.250 -47.238  10.277  1.00  0.00    -0.255 N 
ATOM      8  HN  UNL     1     -42.895 -49.234  10.492  1.00  0.00     0.187 HD
HETATM    9  C   UNL     1     -41.236 -46.298  10.433  1.00  0.00     0.262 A 
HETATM   10  C   UNL     1     -40.064 -46.731  11.219  1.00  0.00     0.078 A 
HETATM   11  O   UNL     1     -41.256 -45.158   9.975  1.00  0.00    -0.267 OA
HETATM   12  C   UNL     1     -39.973 -47.981  11.673  1.00  0.00     0.042 A 
BRANCH   7  13
HETATM   13  C   UNL     1     -43.441 -46.871   9.517  1.00  0.00     0.178 C 
BRANCH  13  14
HETATM   14  C   UNL     1     -43.562 -47.670   8.222  1.00  0.00     0.189 C 
BRANCH  14  15
HETATM   15  O   UNL     1     -44.912 -48.118   8.066  1.00  0.00    -0.394 OA
HETATM   16  C   UNL     1     -45.726 -47.696   9.152  1.00  0.00     0.201 C 
ENDBRANCH  14  15
ENDBRANCH  13  14
ENDBRANCH   7  13
ENDBRANCH   1   5
BRANCH   3  17
HETATM   17  C   UNL     1     -42.060 -52.489  12.214  1.00  0.00     0.129 C 
BRANCH  17  18
HETATM   18  C   UNL     1     -43.098 -52.802  13.282  1.00  0.00     0.033 C 
HETATM   19  C   UNL     1     -42.940 -54.186  13.908  1.00  0.00     0.038 C 
HETATM   20  C   UNL     1     -44.361 -54.694  14.126  1.00  0.00     0.273 C 
HETATM   21  N   UNL     1     -45.278 -53.602  13.756  1.00  0.00     0.093 N 
HETATM   22  C   UNL     1     -44.529 -52.824  12.751  1.00  0.00     0.279 C 
BRANCH  21  23
HETATM   23  C   UNL     1     -45.691 -52.795  14.923  1.00  0.00     0.223 A 
HETATM   24  C   UNL     1     -47.159 -52.537  15.151  1.00  0.00     0.038 A 
HETATM   25  C   UNL     1     -46.266 -51.421  14.704  1.00  0.00     0.038 A 
ENDBRANCH  21  23
ENDBRANCH  17  18
ENDBRANCH   3  17
TORSDOF 7
ENDMDL
MODEL 2
REMARK VINA RESULT:      -6.6      2.377      6.992
REMARK  7 active torsions:
REMARK  status: ('A' for Active; 'I' for Inactive)
REMARK    1  A    between atoms: O_2  and  C_3 
REMARK    2  A    between atoms: C_3  and  C_4 
REMARK    3  A    between atoms: C_4  and  N_5 
REMARK    4  A    between atoms: C_8  and  C_13 
REMARK       I    between atoms: C_13  and  N_15 
REMARK    5  A    between atoms: N_15  and  C_16 
REMARK    6  A    between atoms: C_16  and  C_17 
REMARK    7  A    between atoms: N_20  and  C_22 
ROOT
HETATM    1  C   UNL     1     -41.287 -51.808  12.198  1.00  0.00     0.269 C 
HETATM    2  O   UNL     1     -40.133 -52.206  12.188  1.00  0.00    -0.266 OA
HETATM    3  N   UNL     1     -41.693 -50.561  11.776  1.00  0.00    -0.355 N 
HETATM    4  H   UNL     1     -42.689 -50.360  11.809  1.00  0.00     0.162 HD
ENDROOT
BRANCH   1   5
HETATM    5  C   UNL     1     -42.411 -52.712  12.721  1.00  0.00     0.116 A 
HETATM    6  N   UNL     1     -43.644 -52.436  12.408  1.00  0.00    -0.290 N 
HETATM    7  N   UNL     1     -44.624 -53.272  12.925  1.00  0.00    -0.255 N 
ATOM      8  HN  UNL     1     -43.879 -51.643  11.812  1.00  0.00     0.187 HD
HETATM    9  C   UNL     1     -44.373 -54.310  13.818  1.00  0.00     0.262 A 
HETATM   10  C   UNL     1     -42.953 -54.598  14.095  1.00  0.00     0.078 A 
HETATM   11  O   UNL     1     -45.237 -54.986  14.372  1.00  0.00    -0.267 OA
HETATM   12  C   UNL     1     -41.988 -53.843  13.569  1.00  0.00     0.042 A 
BRANCH   7  13
HETATM   13  C   UNL     1     -46.007 -52.940  12.600  1.00  0.00     0.178 C 
BRANCH  13  14
HETATM   14  C   UNL     1     -46.330 -51.478  12.900  1.00  0.00     0.189 C 
BRANCH  14  15
HETATM   15  O   UNL     1     -45.912 -51.163  14.231  1.00  0.00    -0.394 OA
HETATM   16  C   UNL     1     -46.877 -51.581  15.189  1.00  0.00     0.201 C 
ENDBRANCH  14  15
ENDBRANCH  13  14
ENDBRANCH   7  13
ENDBRANCH   1   5
BRANCH   3  17
HETATM   17  C   UNL     1     -40.737 -49.595  11.272  1.00  0.00     0.129 C 
BRANCH  17  18
HETATM   18  C   UNL     1     -41.406 -48.394  10.618  1.00  0.00     0.033 C 
HETATM   19  C   UNL     1     -40.776 -47.056  10.997  1.00  0.00     0.038 C 
HETATM   20  C   UNL     1     -41.943 -46.083  11.123  1.00  0.00     0.273 C 
HETATM   21  N   UNL     1     -43.160 -46.805  10.713  1.00  0.00     0.093 N 
HETATM   22  C   UNL     1     -42.866 -48.216  11.023  1.00  0.00     0.279 C 
BRANCH  21  23
HETATM   23  C   UNL     1     -43.496 -46.581   9.291  1.00  0.00     0.223 A 
HETATM   24  C   UNL     1     -44.895 -46.151   8.929  1.00  0.00     0.038 A 
HETATM   25  C   UNL     1     -44.430 -47.534   8.595  1.00  0.00     0.038 A 
ENDBRANCH  21  23
ENDBRANCH  17  18
ENDBRANCH   3  17
TORSDOF 7
ENDMDL
MODEL 3
REMARK VINA RESULT:      -6.1      2.751      7.238
REMARK  7 active torsions:
REMARK  status: ('A' for Active; 'I' for Inactive)
REMARK    1  A    between atoms: O_2  and  C_3 
REMARK    2  A    between atoms: C_3  and  C_4 
REMARK    3  A    between atoms: C_4  and  N_5 
REMARK    4  A    between atoms: C_8  and  C_13 
REMARK       I    between atoms: C_13  and  N_15 
REMARK    5  A    between atoms: N_15  and  C_16 
REMARK    6  A    between atoms: C_16  and  C_17 
REMARK    7  A    between atoms: N_20  and  C_22 
ROOT
HETATM    1  C   UNL     1     -41.290 -52.027  12.222  1.00  0.00     0.269 C 
HETATM    2  O   UNL     1     -40.148 -52.456  12.284  1.00  0.00    -0.266 OA
HETATM    3  N   UNL     1     -41.643 -50.804  11.695  1.00  0.00    -0.355 N 
HETATM    4  H   UNL     1     -42.633 -50.574  11.676  1.00  0.00     0.162 HD
ENDROOT
BRANCH   1   5
HETATM    5  C   UNL     1     -42.459 -52.858  12.768  1.00  0.00     0.116 A 
HETATM    6  N   UNL     1     -43.675 -52.538  12.435  1.00  0.00    -0.290 N 
HETATM    7  N   UNL     1     -44.696 -53.308  12.973  1.00  0.00    -0.255 N 
ATOM      8  HN  UNL     1     -43.869 -51.758  11.807  1.00  0.00     0.187 HD
HETATM    9  C   UNL     1     -44.500 -54.322  13.906  1.00  0.00     0.262 A 
HETATM   10  C   UNL     1     -43.096 -54.665  14.206  1.00  0.00     0.078 A 
HETATM   11  O   UNL     1     -45.398 -54.936  14.477  1.00  0.00    -0.267 OA
HETATM   12  C   UNL     1     -42.094 -53.975  13.662  1.00  0.00     0.042 A 
BRANCH   7  13
HETATM   13  C   UNL     1     -46.060 -52.925  12.624  1.00  0.00     0.178 C 
BRANCH  13  14
HETATM   14  C   UNL     1     -46.364 -51.479  13.007  1.00  0.00     0.189 C 
BRANCH  14  15
HETATM   15  O   UNL     1     -45.832 -51.210  14.307  1.00  0.00    -0.394 OA
HETATM   16  C   UNL     1     -46.804 -51.435  15.321  1.00  0.00     0.201 C 
ENDBRANCH  14  15
ENDBRANCH  13  14
ENDBRANCH   7  13
ENDBRANCH   1   5
BRANCH   3  17
HETATM   17  C   UNL     1     -40.641 -49.905  11.157  1.00  0.00     0.129 C 
BRANCH  17  18
HETATM   18  C   UNL     1     -40.799 -48.479  11.666  1.00  0.00     0.033 C 
HETATM   19  C   UNL     1     -41.765 -48.348  12.841  1.00  0.00     0.038 C 
HETATM   20  C   UNL     1     -42.508 -47.038  12.608  1.00  0.00     0.273 C 
HETATM   21  N   UNL     1     -41.907 -46.398  11.425  1.00  0.00     0.093 N 
HETATM   22  C   UNL     1     -41.386 -47.525  10.629  1.00  0.00     0.279 C 
BRANCH  21  23
HETATM   23  C   UNL     1     -40.865 -45.413  11.787  1.00  0.00     0.223 A 
HETATM   24  C   UNL     1     -40.948 -44.019  11.218  1.00  0.00     0.038 A 
HETATM   25  C   UNL     1     -39.884 -44.958  10.739  1.00  0.00     0.038 A 
ENDBRANCH  21  23
ENDBRANCH  17  18
ENDBRANCH   3  17
TORSDOF 7
ENDMDL
MODEL 4
REMARK VINA RESULT:      -6.1      1.421      2.176
REMARK  7 active torsions:
REMARK  status: ('A' for Active; 'I' for Inactive)
REMARK    1  A    between atoms: O_2  and  C_3 
REMARK    2  A    between atoms: C_3  and  C_4 
REMARK    3  A    between atoms: C_4  and  N_5 
REMARK    4  A    between atoms: C_8  and  C_13 
REMARK       I    between atoms: C_13  and  N_15 
REMARK    5  A    between atoms: N_15  and  C_16 
REMARK    6  A    between atoms: C_16  and  C_17 
REMARK    7  A    between atoms: N_20  and  C_22 
ROOT
HETATM    1  C   UNL     1     -40.644 -49.986  11.414  1.00  0.00     0.269 C 
HETATM    2  O   UNL     1     -39.437 -50.075  11.576  1.00  0.00    -0.266 OA
HETATM    3  N   UNL     1     -41.531 -51.036  11.513  1.00  0.00    -0.355 N 
HETATM    4  H   UNL     1     -42.517 -50.825  11.383  1.00  0.00     0.162 HD
ENDROOT
BRANCH   1   5
HETATM    5  C   UNL     1     -41.277 -48.634  11.057  1.00  0.00     0.116 A 
HETATM    6  N   UNL     1     -42.518 -48.599  10.667  1.00  0.00    -0.290 N 
HETATM    7  N   UNL     1     -43.036 -47.355  10.335  1.00  0.00    -0.255 N 
ATOM      8  HN  UNL     1     -43.084 -49.445  10.607  1.00  0.00     0.187 HD
HETATM    9  C   UNL     1     -42.289 -46.181  10.306  1.00  0.00     0.262 A 
HETATM   10  C   UNL     1     -40.903 -46.282  10.803  1.00  0.00     0.078 A 
HETATM   11  O   UNL     1     -42.700 -45.094   9.907  1.00  0.00    -0.267 OA
HETATM   12  C   UNL     1     -40.396 -47.456  11.178  1.00  0.00     0.042 A 
BRANCH   7  13
HETATM   13  C   UNL     1     -44.417 -47.323   9.865  1.00  0.00     0.178 C 
BRANCH  13  14
HETATM   14  C   UNL     1     -44.539 -47.787   8.416  1.00  0.00     0.189 C 
BRANCH  14  15
HETATM   15  O   UNL     1     -45.860 -48.286   8.187  1.00  0.00    -0.394 OA
HETATM   16  C   UNL     1     -46.809 -47.643   9.028  1.00  0.00     0.201 C 
ENDBRANCH  14  15
ENDBRANCH  13  14
ENDBRANCH   7  13
ENDBRANCH   1   5
BRANCH   3  17
HETATM   17  C   UNL     1     -41.073 -52.374  11.828  1.00  0.00     0.129 C 
BRANCH  17  18
HETATM   18  C   UNL     1     -41.993 -53.095  12.803  1.00  0.00     0.033 C 
HETATM   19  C   UNL     1     -43.477 -52.819  12.568  1.00  0.00     0.038 C 
HETATM   20  C   UNL     1     -44.097 -52.738  13.958  1.00  0.00     0.273 C 
HETATM   21  N   UNL     1     -43.040 -53.073  14.929  1.00  0.00     0.093 N 
HETATM   22  C   UNL     1     -41.790 -52.674  14.256  1.00  0.00     0.279 C 
BRANCH  21  23
HETATM   23  C   UNL     1     -43.062 -54.500  15.314  1.00  0.00     0.223 A 
HETATM   24  C   UNL     1     -43.032 -54.863  16.776  1.00  0.00     0.038 A 
HETATM   25  C   UNL     1     -41.831 -55.119  15.920  1.00  0.00     0.038 A 
ENDBRANCH  21  23
ENDBRANCH  17  18
ENDBRANCH   3  17
TORSDOF 7
ENDMDL
MODEL 5
REMARK VINA RESULT:      -6.0      1.593      3.117
REMARK  7 active torsions:
REMARK  status: ('A' for Active; 'I' for Inactive)
REMARK    1  A    between atoms: O_2  and  C_3 
REMARK    2  A    between atoms: C_3  and  C_4 
REMARK    3  A    between atoms: C_4  and  N_5 
REMARK    4  A    between atoms: C_8  and  C_13 
REMARK       I    between atoms: C_13  and  N_15 
REMARK    5  A    between atoms: N_15  and  C_16 
REMARK    6  A    between atoms: C_16  and  C_17 
REMARK    7  A    between atoms: N_20  and  C_22 
ROOT
HETATM    1  C   UNL     1     -40.940 -49.759  11.432  1.00  0.00     0.269 C 
HETATM    2  O   UNL     1     -39.768 -50.102  11.427  1.00  0.00    -0.266 OA
HETATM    3  N   UNL     1     -41.995 -50.567  11.796  1.00  0.00    -0.355 N 
HETATM    4  H   UNL     1     -42.924 -50.154  11.783  1.00  0.00     0.162 HD
ENDROOT
BRANCH   1   5
HETATM    5  C   UNL     1     -41.332 -48.341  10.995  1.00  0.00     0.116 A 
HETATM    6  N   UNL     1     -40.408 -47.429  10.901  1.00  0.00    -0.290 N 
HETATM    7  N   UNL     1     -40.818 -46.158  10.523  1.00  0.00    -0.255 N 
ATOM      8  HN  UNL     1     -39.429 -47.638  11.095  1.00  0.00     0.187 HD
HETATM    9  C   UNL     1     -42.148 -45.790  10.337  1.00  0.00     0.262 A 
HETATM   10  C   UNL     1     -43.139 -46.880  10.414  1.00  0.00     0.078 A 
HETATM   11  O   UNL     1     -42.537 -44.646  10.115  1.00  0.00    -0.267 OA
HETATM   12  C   UNL     1     -42.766 -48.121  10.724  1.00  0.00     0.042 A 
BRANCH   7  13
HETATM   13  C   UNL     1     -39.785 -45.130  10.451  1.00  0.00     0.178 C 
BRANCH  13  14
HETATM   14  C   UNL     1     -39.506 -44.503  11.815  1.00  0.00     0.189 C 
BRANCH  14  15
HETATM   15  O   UNL     1     -39.591 -45.510  12.827  1.00  0.00    -0.394 OA
HETATM   16  C   UNL     1     -39.133 -45.023  14.082  1.00  0.00     0.201 C 
ENDBRANCH  14  15
ENDBRANCH  13  14
ENDBRANCH   7  13
ENDBRANCH   1   5
BRANCH   3  17
HETATM   17  C   UNL     1     -41.776 -51.938  12.215  1.00  0.00     0.129 C 
BRANCH  17  18
HETATM   18  C   UNL     1     -42.802 -52.409  13.236  1.00  0.00     0.033 C 
HETATM   19  C   UNL     1     -42.423 -53.714  13.932  1.00  0.00     0.038 C 
HETATM   20  C   UNL     1     -43.731 -54.480  14.093  1.00  0.00     0.273 C 
HETATM   21  N   UNL     1     -44.814 -53.598  13.623  1.00  0.00     0.093 N 
HETATM   22  C   UNL     1     -44.165 -52.725  12.627  1.00  0.00     0.279 C 
BRANCH  21  23
HETATM   23  C   UNL     1     -45.448 -52.847  14.728  1.00  0.00     0.223 A 
HETATM   24  C   UNL     1     -46.942 -52.934  14.908  1.00  0.00     0.038 A 
HETATM   25  C   UNL     1     -46.323 -51.665  14.409  1.00  0.00     0.038 A 
ENDBRANCH  21  23
ENDBRANCH  17  18
ENDBRANCH   3  17
TORSDOF 7
ENDMDL
MODEL 6
REMARK VINA RESULT:      -5.6      2.686      7.381
REMARK  7 active torsions:
REMARK  status: ('A' for Active; 'I' for Inactive)
REMARK    1  A    between atoms: O_2  and  C_3 
REMARK    2  A    between atoms: C_3  and  C_4 
REMARK    3  A    between atoms: C_4  and  N_5 
REMARK    4  A    between atoms: C_8  and  C_13 
REMARK       I    between atoms: C_13  and  N_15 
REMARK    5  A    between atoms: N_15  and  C_16 
REMARK    6  A    between atoms: C_16  and  C_17 
REMARK    7  A    between atoms: N_20  and  C_22 
ROOT
HETATM    1  C   UNL     1     -42.437 -49.513  11.995  1.00  0.00     0.269 C 
HETATM    2  O   UNL     1     -43.241 -48.820  12.602  1.00  0.00    -0.266 OA
HETATM    3  N   UNL     1     -41.720 -49.101  10.893  1.00  0.00    -0.355 N 
HETATM    4  H   UNL     1     -41.060 -49.765  10.494  1.00  0.00     0.162 HD
ENDROOT
BRANCH   1   5
HETATM    5  C   UNL     1     -42.177 -50.959  12.436  1.00  0.00     0.116 A 
HETATM    6  N   UNL     1     -43.160 -51.811  12.427  1.00  0.00    -0.290 N 
HETATM    7  N   UNL     1     -42.876 -53.100  12.855  1.00  0.00    -0.255 N 
ATOM      8  HN  UNL     1     -44.096 -51.544  12.121  1.00  0.00     0.187 HD
HETATM    9  C   UNL     1     -41.647 -53.498  13.373  1.00  0.00     0.262 A 
HETATM   10  C   UNL     1     -40.563 -52.498  13.311  1.00  0.00     0.078 A 
HETATM   11  O   UNL     1     -41.412 -54.601  13.860  1.00  0.00    -0.267 OA
HETATM   12  C   UNL     1     -40.796 -51.267  12.856  1.00  0.00     0.042 A 
BRANCH   7  13
HETATM   13  C   UNL     1     -43.989 -54.044  12.877  1.00  0.00     0.178 C 
BRANCH  13  14
HETATM   14  C   UNL     1     -45.312 -53.361  13.213  1.00  0.00     0.189 C 
BRANCH  14  15
HETATM   15  O   UNL     1     -45.914 -52.874  12.011  1.00  0.00    -0.394 OA
HETATM   16  C   UNL     1     -46.748 -51.750  12.267  1.00  0.00     0.201 C 
ENDBRANCH  14  15
ENDBRANCH  13  14
ENDBRANCH   7  13
ENDBRANCH   1   5
BRANCH   3  17
HETATM   17  C   UNL     1     -41.876 -47.765  10.355  1.00  0.00     0.129 C 
BRANCH  17  18
HETATM   18  C   UNL     1     -40.893 -46.771  10.958  1.00  0.00     0.033 C 
HETATM   19  C   UNL     1     -39.747 -47.427  11.725  1.00  0.00     0.038 C 
HETATM   20  C   UNL     1     -39.498 -46.523  12.928  1.00  0.00     0.273 C 
HETATM   21  N   UNL     1     -40.376 -45.349  12.782  1.00  0.00     0.093 N 
HETATM   22  C   UNL     1     -41.522 -45.848  11.998  1.00  0.00     0.279 C 
BRANCH  21  23
HETATM   23  C   UNL     1     -39.688 -44.208  12.141  1.00  0.00     0.223 A 
HETATM   24  C   UNL     1     -39.687 -42.871  12.837  1.00  0.00     0.038 A 
HETATM   25  C   UNL     1     -40.505 -43.066  11.598  1.00  0.00     0.038 A 
ENDBRANCH  21  23
ENDBRANCH  17  18
ENDBRANCH   3  17
TORSDOF 7
ENDMDL
MODEL 7
REMARK VINA RESULT:      -5.6      2.115      3.201
REMARK  7 active torsions:
REMARK  status: ('A' for Active; 'I' for Inactive)
REMARK    1  A    between atoms: O_2  and  C_3 
REMARK    2  A    between atoms: C_3  and  C_4 
REMARK    3  A    between atoms: C_4  and  N_5 
REMARK    4  A    between atoms: C_8  and  C_13 
REMARK       I    between atoms: C_13  and  N_15 
REMARK    5  A    between atoms: N_15  and  C_16 
REMARK    6  A    between atoms: C_16  and  C_17 
REMARK    7  A    between atoms: N_20  and  C_22 
ROOT
HETATM    1  C   UNL     1     -43.096 -49.071  13.245  1.00  0.00     0.269 C 
HETATM    2  O   UNL     1     -43.065 -48.924  14.457  1.00  0.00    -0.266 OA
HETATM    3  N   UNL     1     -43.537 -50.207  12.602  1.00  0.00    -0.355 N 
HETATM    4  H   UNL     1     -43.538 -50.195  11.585  1.00  0.00     0.162 HD
ENDROOT
BRANCH   1   5
HETATM    5  C   UNL     1     -42.605 -47.951  12.319  1.00  0.00     0.116 A 
HETATM    6  N   UNL     1     -43.342 -47.597  11.307  1.00  0.00    -0.290 N 
HETATM    7  N   UNL     1     -42.843 -46.594  10.488  1.00  0.00    -0.255 N 
ATOM      8  HN  UNL     1     -44.245 -48.034  11.124  1.00  0.00     0.187 HD
HETATM    9  C   UNL     1     -41.580 -46.026  10.631  1.00  0.00     0.262 A 
HETATM   10  C   UNL     1     -40.814 -46.439  11.823  1.00  0.00     0.078 A 
HETATM   11  O   UNL     1     -41.078 -45.221   9.850  1.00  0.00    -0.267 OA
HETATM   12  C   UNL     1     -41.294 -47.362  12.655  1.00  0.00     0.042 A 
BRANCH   7  13
HETATM   13  C   UNL     1     -43.657 -46.223   9.335  1.00  0.00     0.178 C 
BRANCH  13  14
HETATM   14  C   UNL     1     -44.378 -47.425   8.732  1.00  0.00     0.189 C 
BRANCH  14  15
HETATM   15  O   UNL     1     -45.514 -47.751   9.538  1.00  0.00    -0.394 OA
HETATM   16  C   UNL     1     -46.690 -47.111   9.059  1.00  0.00     0.201 C 
ENDBRANCH  14  15
ENDBRANCH  13  14
ENDBRANCH   7  13
ENDBRANCH   1   5
BRANCH   3  17
HETATM   17  C   UNL     1     -44.015 -51.352  13.351  1.00  0.00     0.129 C 
BRANCH  17  18
HETATM   18  C   UNL     1     -43.001 -52.487  13.395  1.00  0.00     0.033 C 
HETATM   19  C   UNL     1     -43.633 -53.877  13.419  1.00  0.00     0.038 C 
HETATM   20  C   UNL     1     -42.757 -54.703  14.354  1.00  0.00     0.273 C 
HETATM   21  N   UNL     1     -41.614 -53.857  14.743  1.00  0.00     0.093 N 
HETATM   22  C   UNL     1     -42.135 -52.480  14.652  1.00  0.00     0.279 C 
BRANCH  21  23
HETATM   23  C   UNL     1     -40.429 -54.086  13.890  1.00  0.00     0.223 A 
HETATM   24  C   UNL     1     -39.193 -54.693  14.504  1.00  0.00     0.038 A 
HETATM   25  C   UNL     1     -39.195 -53.251  14.103  1.00  0.00     0.038 A 
ENDBRANCH  21  23
ENDBRANCH  17  18
ENDBRANCH   3  17
TORSDOF 7
ENDMDL
MODEL 8
REMARK VINA RESULT:      -5.6      2.779      7.875
REMARK  7 active torsions:
REMARK  status: ('A' for Active; 'I' for Inactive)
REMARK    1  A    between atoms: O_2  and  C_3 
REMARK    2  A    between atoms: C_3  and  C_4 
REMARK    3  A    between atoms: C_4  and  N_5 
REMARK    4  A    between atoms: C_8  and  C_13 
REMARK       I    between atoms: C_13  and  N_15 
REMARK    5  A    between atoms: N_15  and  C_16 
REMARK    6  A    between atoms: C_16  and  C_17 
REMARK    7  A    between atoms: N_20  and  C_22 
ROOT
HETATM    1  C   UNL     1     -41.131 -51.990  12.363  1.00  0.00     0.269 C 
HETATM    2  O   UNL     1     -39.978 -52.392  12.352  1.00  0.00    -0.266 OA
HETATM    3  N   UNL     1     -41.536 -50.751  11.917  1.00  0.00    -0.355 N 
HETATM    4  H   UNL     1     -42.532 -50.546  11.954  1.00  0.00     0.162 HD
ENDROOT
BRANCH   1   5
HETATM    5  C   UNL     1     -42.253 -52.879  12.915  1.00  0.00     0.116 A 
HETATM    6  N   UNL     1     -42.009 -53.645  13.938  1.00  0.00    -0.290 N 
HETATM    7  N   UNL     1     -43.052 -54.444  14.385  1.00  0.00    -0.255 N 
ATOM      8  HN  UNL     1     -41.096 -53.656  14.391  1.00  0.00     0.187 HD
HETATM    9  C   UNL     1     -44.287 -54.541  13.752  1.00  0.00     0.262 A 
HETATM   10  C   UNL     1     -44.515 -53.614  12.627  1.00  0.00     0.078 A 
HETATM   11  O   UNL     1     -45.180 -55.326  14.066  1.00  0.00    -0.267 OA
HETATM   12  C   UNL     1     -43.547 -52.798  12.210  1.00  0.00     0.042 A 
BRANCH   7  13
HETATM   13  C   UNL     1     -42.765 -55.327  15.512  1.00  0.00     0.178 C 
BRANCH  13  14
HETATM   14  C   UNL     1     -42.216 -54.562  16.713  1.00  0.00     0.189 C 
BRANCH  14  15
HETATM   15  O   UNL     1     -40.787 -54.628  16.705  1.00  0.00    -0.394 OA
HETATM   16  C   UNL     1     -40.210 -53.378  17.063  1.00  0.00     0.201 C 
ENDBRANCH  14  15
ENDBRANCH  13  14
ENDBRANCH   7  13
ENDBRANCH   1   5
BRANCH   3  17
HETATM   17  C   UNL     1     -40.582 -49.799  11.384  1.00  0.00     0.129 C 
BRANCH  17  18
HETATM   18  C   UNL     1     -41.253 -48.609  10.714  1.00  0.00     0.033 C 
HETATM   19  C   UNL     1     -40.604 -47.267  11.049  1.00  0.00     0.038 C 
HETATM   20  C   UNL     1     -41.760 -46.281  11.172  1.00  0.00     0.273 C 
HETATM   21  N   UNL     1     -42.992 -47.001  10.804  1.00  0.00     0.093 N 
HETATM   22  C   UNL     1     -42.704 -48.408  11.142  1.00  0.00     0.279 C 
BRANCH  21  23
HETATM   23  C   UNL     1     -43.352 -46.809   9.383  1.00  0.00     0.223 A 
HETATM   24  C   UNL     1     -44.682 -46.185   9.045  1.00  0.00     0.038 A 
HETATM   25  C   UNL     1     -44.453 -47.642   8.782  1.00  0.00     0.038 A 
ENDBRANCH  21  23
ENDBRANCH  17  18
ENDBRANCH   3  17
TORSDOF 7
ENDMDL
MODEL 9
REMARK VINA RESULT:      -5.6      3.627      7.570
REMARK  7 active torsions:
REMARK  status: ('A' for Active; 'I' for Inactive)
REMARK    1  A    between atoms: O_2  and  C_3 
REMARK    2  A    between atoms: C_3  and  C_4 
REMARK    3  A    between atoms: C_4  and  N_5 
REMARK    4  A    between atoms: C_8  and  C_13 
REMARK       I    between atoms: C_13  and  N_15 
REMARK    5  A    between atoms: N_15  and  C_16 
REMARK    6  A    between atoms: C_16  and  C_17 
REMARK    7  A    between atoms: N_20  and  C_22 
ROOT
HETATM    1  C   UNL     1     -41.012 -52.705  12.852  1.00  0.00     0.269 C 
HETATM    2  O   UNL     1     -39.970 -53.342  12.857  1.00  0.00    -0.266 OA
HETATM    3  N   UNL     1     -41.122 -51.380  12.490  1.00  0.00    -0.355 N 
HETATM    4  H   UNL     1     -42.053 -50.970  12.502  1.00  0.00     0.162 HD
ENDROOT
BRANCH   1   5
HETATM    5  C   UNL     1     -42.326 -53.369  13.286  1.00  0.00     0.116 A 
HETATM    6  N   UNL     1     -43.448 -52.937  12.790  1.00  0.00    -0.290 N 
HETATM    7  N   UNL     1     -44.608 -53.557  13.231  1.00  0.00    -0.255 N 
ATOM      8  HN  UNL     1     -43.475 -52.178  12.109  1.00  0.00     0.187 HD
HETATM    9  C   UNL     1     -44.643 -54.530  14.225  1.00  0.00     0.262 A 
HETATM   10  C   UNL     1     -43.335 -55.008  14.712  1.00  0.00     0.078 A 
HETATM   11  O   UNL     1     -45.668 -55.008  14.707  1.00  0.00    -0.267 OA
HETATM   12  C   UNL     1     -42.202 -54.466  14.266  1.00  0.00     0.042 A 
BRANCH   7  13
HETATM   13  C   UNL     1     -45.868 -53.047  12.699  1.00  0.00     0.178 C 
BRANCH  13  14
HETATM   14  C   UNL     1     -46.024 -51.547  12.936  1.00  0.00     0.189 C 
BRANCH  14  15
HETATM   15  O   UNL     1     -45.716 -51.248  14.301  1.00  0.00    -0.394 OA
HETATM   16  C   UNL     1     -46.862 -51.386  15.132  1.00  0.00     0.201 C 
ENDBRANCH  14  15
ENDBRANCH  13  14
ENDBRANCH   7  13
ENDBRANCH   1   5
BRANCH   3  17
HETATM   17  C   UNL     1     -39.960 -50.620  12.074  1.00  0.00     0.129 C 
BRANCH  17  18
HETATM   18  C   UNL     1     -39.409 -49.737  13.185  1.00  0.00     0.033 C 
HETATM   19  C   UNL     1     -40.047 -48.351  13.244  1.00  0.00     0.038 C 
HETATM   20  C   UNL     1     -38.912 -47.399  13.606  1.00  0.00     0.273 C 
HETATM   21  N   UNL     1     -37.716 -48.222  13.860  1.00  0.00     0.093 N 
HETATM   22  C   UNL     1     -37.922 -49.426  13.034  1.00  0.00     0.279 C 
BRANCH  21  23
HETATM   23  C   UNL     1     -37.538 -48.526  15.295  1.00  0.00     0.223 A 
HETATM   24  C   UNL     1     -36.290 -48.049  15.994  1.00  0.00     0.038 A 
HETATM   25  C   UNL     1     -36.477 -49.509  15.714  1.00  0.00     0.038 A 
ENDBRANCH  21  23
ENDBRANCH  17  18
ENDBRANCH   3  17
TORSDOF 7
ENDMDL
