MODEL 1
REMARK VINA RESULT:      -6.2      0.000      0.000
REMARK  4 active torsions:
REMARK  status: ('A' for Active; 'I' for Inactive)
REMARK    1  A    between atoms: C_2  and  C_3 
REMARK    2  A    between atoms: C_2  and  N_10 
REMARK    3  A    between atoms: C_3  and  N_4 
REMARK       I    between atoms: N_10  and  C_11 
REMARK    4  A    between atoms: C_11  and  C_13 
REMARK       I    between atoms: N_17  and  C_19 
REMARK       I    between atoms: C_19  and  N_21 
ROOT
HETATM    1  N   UNL     1     -42.950 -51.738  12.944  1.00  0.00    -0.355 N 
HETATM    2  C   UNL     1     -43.555 -51.235  14.072  1.00  0.00     0.223 C 
HETATM    3  O   UNL     1     -42.891 -50.874  15.047  1.00  0.00    -0.273 OA
HETATM    4  H   UNL     1     -43.491 -51.842  12.097  1.00  0.00     0.162 HD
ENDROOT
BRANCH   2   5
HETATM    5  C   UNL     1     -45.074 -51.065  14.092  1.00  0.00     0.096 C 
HETATM    6  C   UNL     1     -45.800 -51.073  15.449  1.00  0.00     0.017 C 
HETATM    7  C   UNL     1     -46.349 -52.435  15.896  1.00  0.00     0.021 C 
HETATM    8  C   UNL     1     -47.000 -53.204  14.752  1.00  0.00     0.127 C 
HETATM    9  N   UNL     1     -46.067 -53.285  13.633  1.00  0.00    -0.338 N 
HETATM   10  C   UNL     1     -45.721 -51.989  13.056  1.00  0.00     0.141 C 
HETATM   11  C   UNL     1     -45.306 -54.377  13.295  1.00  0.00     0.294 C 
HETATM   12  O   UNL     1     -44.391 -54.362  12.480  1.00  0.00    -0.254 OA
HETATM   13  N   UNL     1     -45.574 -55.529  13.952  1.00  0.00    -0.254 NA
HETATM   14  H   UNL     1     -46.544 -55.760  14.098  1.00  0.00     0.128 HD
HETATM   15  H   UNL     1     -45.033 -56.303  13.584  1.00  0.00     0.128 HD
ENDBRANCH   2   5
BRANCH   1  16
HETATM   16  C   UNL     1     -41.478 -51.716  12.826  1.00  0.00     0.100 C 
HETATM   17  C   UNL     1     -40.959 -53.099  12.435  1.00  0.00     0.034 C 
BRANCH  16  18
HETATM   18  C   UNL     1     -41.021 -50.607  11.859  1.00  0.00     0.172 C 
BRANCH  18  19
HETATM   19  N   UNL     1     -39.619 -50.254  11.999  1.00  0.00    -0.302 N 
HETATM   20  C   UNL     1     -38.949 -50.014  13.165  1.00  0.00     0.111 A 
HETATM   21  C   UNL     1     -37.659 -49.706  12.809  1.00  0.00     0.037 A 
HETATM   22  C   UNL     1     -37.649 -49.771  11.402  1.00  0.00     0.108 A 
HETATM   23  N   UNL     1     -38.848 -50.092  10.905  1.00  0.00    -0.310 N 
ATOM     24  HN  UNL     1     -39.117 -50.192   9.926  1.00  0.00     0.186 HD
ENDBRANCH  18  19
ENDBRANCH  16  18
ENDBRANCH   1  16
TORSDOF 4
ENDMDL
MODEL 2
REMARK VINA RESULT:      -6.1      2.173      2.680
REMARK  4 active torsions:
REMARK  status: ('A' for Active; 'I' for Inactive)
REMARK    1  A    between atoms: C_2  and  C_3 
REMARK    2  A    between atoms: C_2  and  N_10 
REMARK    3  A    between atoms: C_3  and  N_4 
REMARK       I    between atoms: N_10  and  C_11 
REMARK    4  A    between atoms: C_11  and  C_13 
REMARK       I    between atoms: N_17  and  C_19 
REMARK       I    between atoms: C_19  and  N_21 
ROOT
HETATM    1  N   UNL     1     -42.878 -51.194  12.649  1.00  0.00    -0.355 N 
HETATM    2  C   UNL     1     -43.974 -50.865  13.412  1.00  0.00     0.223 C 
HETATM    3  O   UNL     1     -43.901 -50.017  14.304  1.00  0.00    -0.273 OA
HETATM    4  H   UNL     1     -43.007 -51.740  11.808  1.00  0.00     0.162 HD
ENDROOT
BRANCH   2   5
HETATM    5  C   UNL     1     -45.321 -51.520  13.107  1.00  0.00     0.096 C 
HETATM    6  C   UNL     1     -46.450 -51.407  14.147  1.00  0.00     0.017 C 
HETATM    7  C   UNL     1     -46.559 -52.578  15.134  1.00  0.00     0.021 C 
HETATM    8  C   UNL     1     -46.367 -53.930  14.456  1.00  0.00     0.127 C 
HETATM    9  N   UNL     1     -45.123 -53.916  13.694  1.00  0.00    -0.338 N 
HETATM   10  C   UNL     1     -45.109 -52.950  12.600  1.00  0.00     0.141 C 
HETATM   11  C   UNL     1     -43.933 -54.483  14.082  1.00  0.00     0.294 C 
HETATM   12  O   UNL     1     -42.858 -54.293  13.527  1.00  0.00    -0.254 OA
HETATM   13  N   UNL     1     -43.968 -55.269  15.184  1.00  0.00    -0.254 NA
HETATM   14  H   UNL     1     -44.749 -55.899  15.274  1.00  0.00     0.128 HD
HETATM   15  H   UNL     1     -43.075 -55.717  15.350  1.00  0.00     0.128 HD
ENDBRANCH   2   5
BRANCH   1  16
HETATM   16  C   UNL     1     -41.625 -50.426  12.790  1.00  0.00     0.100 C 
HETATM   17  C   UNL     1     -40.559 -51.277  13.480  1.00  0.00     0.034 C 
BRANCH  16  18
HETATM   18  C   UNL     1     -41.164 -49.874  11.428  1.00  0.00     0.172 C 
BRANCH  18  19
HETATM   19  N   UNL     1     -41.833 -48.642  11.043  1.00  0.00    -0.302 N 
HETATM   20  C   UNL     1     -42.473 -47.766  11.872  1.00  0.00     0.111 A 
HETATM   21  C   UNL     1     -42.959 -46.764  11.068  1.00  0.00     0.037 A 
HETATM   22  C   UNL     1     -42.574 -47.131   9.764  1.00  0.00     0.108 A 
HETATM   23  N   UNL     1     -41.898 -48.284   9.745  1.00  0.00    -0.310 N 
ATOM     24  HN  UNL     1     -41.519 -48.778   8.937  1.00  0.00     0.186 HD
ENDBRANCH  18  19
ENDBRANCH  16  18
ENDBRANCH   1  16
TORSDOF 4
ENDMDL
MODEL 3
REMARK VINA RESULT:      -6.0      1.671      2.032
REMARK  4 active torsions:
REMARK  status: ('A' for Active; 'I' for Inactive)
REMARK    1  A    between atoms: C_2  and  C_3 
REMARK    2  A    between atoms: C_2  and  N_10 
REMARK    3  A    between atoms: C_3  and  N_4 
REMARK       I    between atoms: N_10  and  C_11 
REMARK    4  A    between atoms: C_11  and  C_13 
REMARK       I    between atoms: N_17  and  C_19 
REMARK       I    between atoms: C_19  and  N_21 
ROOT
HETATM    1  N   UNL     1     -42.721 -53.219  13.650  1.00  0.00    -0.355 N 
HETATM    2  C   UNL     1     -43.546 -52.136  13.453  1.00  0.00     0.223 C 
HETATM    3  O   UNL     1     -43.126 -50.982  13.567  1.00  0.00    -0.273 OA
HETATM    4  H   UNL     1     -43.033 -54.137  13.365  1.00  0.00     0.162 HD
ENDROOT
BRANCH   2   5
HETATM    5  C   UNL     1     -44.996 -52.369  13.028  1.00  0.00     0.096 C 
HETATM    6  C   UNL     1     -46.047 -51.296  13.365  1.00  0.00     0.017 C 
HETATM    7  C   UNL     1     -46.818 -51.517  14.674  1.00  0.00     0.021 C 
HETATM    8  C   UNL     1     -47.218 -52.974  14.875  1.00  0.00     0.127 C 
HETATM    9  N   UNL     1     -46.040 -53.822  14.737  1.00  0.00    -0.338 N 
HETATM   10  C   UNL     1     -45.436 -53.786  13.409  1.00  0.00     0.141 C 
HETATM   11  C   UNL     1     -45.322 -54.379  15.768  1.00  0.00     0.294 C 
HETATM   12  O   UNL     1     -44.230 -54.920  15.643  1.00  0.00    -0.254 OA
HETATM   13  N   UNL     1     -45.859 -54.273  17.006  1.00  0.00    -0.254 NA
HETATM   14  H   UNL     1     -46.851 -54.429  17.091  1.00  0.00     0.128 HD
HETATM   15  H   UNL     1     -45.316 -54.784  17.692  1.00  0.00     0.128 HD
ENDBRANCH   2   5
BRANCH   1  16
HETATM   16  C   UNL     1     -41.274 -53.013  13.858  1.00  0.00     0.100 C 
HETATM   17  C   UNL     1     -40.714 -54.092  14.785  1.00  0.00     0.034 C 
BRANCH  16  18
HETATM   18  C   UNL     1     -40.532 -52.935  12.510  1.00  0.00     0.172 C 
BRANCH  18  19
HETATM   19  N   UNL     1     -40.170 -51.583  12.122  1.00  0.00    -0.302 N 
HETATM   20  C   UNL     1     -39.103 -50.860  12.572  1.00  0.00     0.111 A 
HETATM   21  C   UNL     1     -39.171 -49.641  11.943  1.00  0.00     0.037 A 
HETATM   22  C   UNL     1     -40.326 -49.716  11.140  1.00  0.00     0.108 A 
HETATM   23  N   UNL     1     -40.945 -50.896  11.258  1.00  0.00    -0.310 N 
ATOM     24  HN  UNL     1     -41.803 -51.204  10.801  1.00  0.00     0.186 HD
ENDBRANCH  18  19
ENDBRANCH  16  18
ENDBRANCH   1  16
TORSDOF 4
ENDMDL
MODEL 4
REMARK VINA RESULT:      -5.8      2.438      3.408
REMARK  4 active torsions:
REMARK  status: ('A' for Active; 'I' for Inactive)
REMARK    1  A    between atoms: C_2  and  C_3 
REMARK    2  A    between atoms: C_2  and  N_10 
REMARK    3  A    between atoms: C_3  and  N_4 
REMARK       I    between atoms: N_10  and  C_11 
REMARK    4  A    between atoms: C_11  and  C_13 
REMARK       I    between atoms: N_17  and  C_19 
REMARK       I    between atoms: C_19  and  N_21 
ROOT
HETATM    1  N   UNL     1     -43.460 -51.683  12.697  1.00  0.00    -0.355 N 
HETATM    2  C   UNL     1     -44.054 -52.923  12.724  1.00  0.00     0.223 C 
HETATM    3  O   UNL     1     -43.380 -53.956  12.686  1.00  0.00    -0.273 OA
HETATM    4  H   UNL     1     -44.010 -50.866  12.923  1.00  0.00     0.162 HD
ENDROOT
BRANCH   2   5
HETATM    5  C   UNL     1     -45.573 -53.022  12.865  1.00  0.00     0.096 C 
HETATM    6  C   UNL     1     -46.380 -51.729  13.076  1.00  0.00     0.017 C 
HETATM    7  C   UNL     1     -46.672 -51.363  14.538  1.00  0.00     0.021 C 
HETATM    8  C   UNL     1     -47.064 -52.576  15.374  1.00  0.00     0.127 C 
HETATM    9  N   UNL     1     -46.055 -53.617  15.218  1.00  0.00    -0.338 N 
HETATM   10  C   UNL     1     -45.939 -54.131  13.857  1.00  0.00     0.141 C 
HETATM   11  C   UNL     1     -45.064 -53.921  16.119  1.00  0.00     0.294 C 
HETATM   12  O   UNL     1     -44.113 -54.658  15.886  1.00  0.00    -0.254 OA
HETATM   13  N   UNL     1     -45.139 -53.318  17.329  1.00  0.00    -0.254 NA
HETATM   14  H   UNL     1     -46.050 -53.257  17.756  1.00  0.00     0.128 HD
HETATM   15  H   UNL     1     -44.426 -53.661  17.961  1.00  0.00     0.128 HD
ENDBRANCH   2   5
BRANCH   1  16
HETATM   16  C   UNL     1     -41.989 -51.570  12.769  1.00  0.00     0.100 C 
HETATM   17  C   UNL     1     -41.516 -50.335  12.003  1.00  0.00     0.034 C 
BRANCH  16  18
HETATM   18  C   UNL     1     -41.510 -51.588  14.234  1.00  0.00     0.172 C 
BRANCH  18  19
HETATM   19  N   UNL     1     -40.742 -52.772  14.579  1.00  0.00    -0.302 N 
HETATM   20  C   UNL     1     -39.395 -52.944  14.436  1.00  0.00     0.111 A 
HETATM   21  C   UNL     1     -39.121 -54.215  14.880  1.00  0.00     0.037 A 
HETATM   22  C   UNL     1     -40.372 -54.740  15.258  1.00  0.00     0.108 A 
HETATM   23  N   UNL     1     -41.365 -53.866  15.063  1.00  0.00    -0.310 N 
ATOM     24  HN  UNL     1     -42.361 -53.996  15.239  1.00  0.00     0.186 HD
ENDBRANCH  18  19
ENDBRANCH  16  18
ENDBRANCH   1  16
TORSDOF 4
ENDMDL
MODEL 5
REMARK VINA RESULT:      -5.7      2.076      6.706
REMARK  4 active torsions:
REMARK  status: ('A' for Active; 'I' for Inactive)
REMARK    1  A    between atoms: C_2  and  C_3 
REMARK    2  A    between atoms: C_2  and  N_10 
REMARK    3  A    between atoms: C_3  and  N_4 
REMARK       I    between atoms: N_10  and  C_11 
REMARK    4  A    between atoms: C_11  and  C_13 
REMARK       I    between atoms: N_17  and  C_19 
REMARK       I    between atoms: C_19  and  N_21 
ROOT
HETATM    1  N   UNL     1     -41.408 -51.893  13.807  1.00  0.00    -0.355 N 
HETATM    2  C   UNL     1     -41.546 -50.635  13.269  1.00  0.00     0.223 C 
HETATM    3  O   UNL     1     -42.369 -50.406  12.380  1.00  0.00    -0.273 OA
HETATM    4  H   UNL     1     -40.874 -52.013  14.657  1.00  0.00     0.162 HD
ENDROOT
BRANCH   2   5
HETATM    5  C   UNL     1     -40.706 -49.487  13.828  1.00  0.00     0.096 C 
HETATM    6  C   UNL     1     -40.389 -48.290  12.914  1.00  0.00     0.017 C 
HETATM    7  C   UNL     1     -39.053 -48.369  12.163  1.00  0.00     0.021 C 
HETATM    8  C   UNL     1     -37.922 -48.897  13.039  1.00  0.00     0.127 C 
HETATM    9  N   UNL     1     -38.331 -50.159  13.646  1.00  0.00    -0.338 N 
HETATM   10  C   UNL     1     -39.472 -50.040  14.549  1.00  0.00     0.141 C 
HETATM   11  C   UNL     1     -37.950 -51.413  13.234  1.00  0.00     0.294 C 
HETATM   12  O   UNL     1     -38.454 -52.458  13.627  1.00  0.00    -0.254 OA
HETATM   13  N   UNL     1     -36.976 -51.472  12.295  1.00  0.00    -0.254 NA
HETATM   14  H   UNL     1     -36.197 -50.842  12.401  1.00  0.00     0.128 HD
HETATM   15  H   UNL     1     -36.693 -52.427  12.112  1.00  0.00     0.128 HD
ENDBRANCH   2   5
BRANCH   1  16
HETATM   16  C   UNL     1     -42.351 -52.964  13.426  1.00  0.00     0.100 C 
HETATM   17  C   UNL     1     -41.598 -54.274  13.196  1.00  0.00     0.034 C 
BRANCH  16  18
HETATM   18  C   UNL     1     -43.480 -53.095  14.466  1.00  0.00     0.172 C 
BRANCH  18  19
HETATM   19  N   UNL     1     -44.706 -52.416  14.082  1.00  0.00    -0.302 N 
HETATM   20  C   UNL     1     -45.732 -52.053  14.907  1.00  0.00     0.111 A 
HETATM   21  C   UNL     1     -46.675 -51.455  14.106  1.00  0.00     0.037 A 
HETATM   22  C   UNL     1     -46.133 -51.517  12.807  1.00  0.00     0.108 A 
HETATM   23  N   UNL     1     -44.937 -52.115  12.789  1.00  0.00    -0.310 N 
ATOM     24  HN  UNL     1     -44.339 -52.301  11.983  1.00  0.00     0.186 HD
ENDBRANCH  18  19
ENDBRANCH  16  18
ENDBRANCH   1  16
TORSDOF 4
ENDMDL
MODEL 6
REMARK VINA RESULT:      -5.5      2.187      6.674
REMARK  4 active torsions:
REMARK  status: ('A' for Active; 'I' for Inactive)
REMARK    1  A    between atoms: C_2  and  C_3 
REMARK    2  A    between atoms: C_2  and  N_10 
REMARK    3  A    between atoms: C_3  and  N_4 
REMARK       I    between atoms: N_10  and  C_11 
REMARK    4  A    between atoms: C_11  and  C_13 
REMARK       I    between atoms: N_17  and  C_19 
REMARK       I    between atoms: C_19  and  N_21 
ROOT
HETATM    1  N   UNL     1     -43.988 -52.815  14.662  1.00  0.00    -0.355 N 
HETATM    2  C   UNL     1     -43.969 -51.556  14.108  1.00  0.00     0.223 C 
HETATM    3  O   UNL     1     -44.967 -51.083  13.560  1.00  0.00    -0.273 OA
HETATM    4  H   UNL     1     -43.232 -53.101  15.268  1.00  0.00     0.162 HD
ENDROOT
BRANCH   2   5
HETATM    5  C   UNL     1     -42.703 -50.707  14.228  1.00  0.00     0.096 C 
HETATM    6  C   UNL     1     -42.487 -49.559  13.226  1.00  0.00     0.017 C 
HETATM    7  C   UNL     1     -41.650 -49.911  11.989  1.00  0.00     0.021 C 
HETATM    8  C   UNL     1     -40.442 -50.776  12.330  1.00  0.00     0.127 C 
HETATM    9  N   UNL     1     -40.881 -51.939  13.094  1.00  0.00    -0.338 N 
HETATM   10  C   UNL     1     -41.476 -51.610  14.385  1.00  0.00     0.141 C 
HETATM   11  C   UNL     1     -41.047 -53.211  12.601  1.00  0.00     0.294 C 
HETATM   12  O   UNL     1     -41.601 -54.123  13.203  1.00  0.00    -0.254 OA
HETATM   13  N   UNL     1     -40.598 -53.437  11.345  1.00  0.00    -0.254 NA
HETATM   14  H   UNL     1     -39.708 -53.035  11.096  1.00  0.00     0.128 HD
HETATM   15  H   UNL     1     -40.676 -54.415  11.092  1.00  0.00     0.128 HD
ENDBRANCH   2   5
BRANCH   1  16
HETATM   16  C   UNL     1     -45.258 -53.566  14.738  1.00  0.00     0.100 C 
HETATM   17  C   UNL     1     -45.152 -54.865  13.941  1.00  0.00     0.034 C 
BRANCH  16  18
HETATM   18  C   UNL     1     -45.673 -53.792  16.205  1.00  0.00     0.172 C 
BRANCH  18  19
HETATM   19  N   UNL     1     -46.554 -52.761  16.726  1.00  0.00    -0.302 N 
HETATM   20  C   UNL     1     -47.287 -51.868  15.999  1.00  0.00     0.111 A 
HETATM   21  C   UNL     1     -47.952 -51.085  16.911  1.00  0.00     0.037 A 
HETATM   22  C   UNL     1     -47.544 -51.573  18.168  1.00  0.00     0.108 A 
HETATM   23  N   UNL     1     -46.680 -52.588  18.057  1.00  0.00    -0.310 N 
ATOM     24  HN  UNL     1     -46.223 -53.109  18.805  1.00  0.00     0.186 HD
ENDBRANCH  18  19
ENDBRANCH  16  18
ENDBRANCH   1  16
TORSDOF 4
ENDMDL
MODEL 7
REMARK VINA RESULT:      -5.4      5.064      7.000
REMARK  4 active torsions:
REMARK  status: ('A' for Active; 'I' for Inactive)
REMARK    1  A    between atoms: C_2  and  C_3 
REMARK    2  A    between atoms: C_2  and  N_10 
REMARK    3  A    between atoms: C_3  and  N_4 
REMARK       I    between atoms: N_10  and  C_11 
REMARK    4  A    between atoms: C_11  and  C_13 
REMARK       I    between atoms: N_17  and  C_19 
REMARK       I    between atoms: C_19  and  N_21 
ROOT
HETATM    1  N   UNL     1     -39.818 -46.320  13.312  1.00  0.00    -0.355 N 
HETATM    2  C   UNL     1     -40.605 -47.375  13.710  1.00  0.00     0.223 C 
HETATM    3  O   UNL     1     -41.784 -47.461  13.359  1.00  0.00    -0.273 OA
HETATM    4  H   UNL     1     -38.818 -46.370  13.447  1.00  0.00     0.162 HD
ENDROOT
BRANCH   2   5
HETATM    5  C   UNL     1     -39.989 -48.490  14.555  1.00  0.00     0.096 C 
HETATM    6  C   UNL     1     -38.598 -48.265  15.175  1.00  0.00     0.017 C 
HETATM    7  C   UNL     1     -37.415 -48.786  14.348  1.00  0.00     0.021 C 
HETATM    8  C   UNL     1     -37.692 -50.153  13.733  1.00  0.00     0.127 C 
HETATM    9  N   UNL     1     -38.949 -50.105  12.995  1.00  0.00    -0.338 N 
HETATM   10  C   UNL     1     -40.116 -49.832  13.828  1.00  0.00     0.141 C 
HETATM   11  C   UNL     1     -39.080 -50.000  11.631  1.00  0.00     0.294 C 
HETATM   12  O   UNL     1     -40.131 -49.763  11.049  1.00  0.00    -0.254 OA
HETATM   13  N   UNL     1     -37.947 -50.128  10.902  1.00  0.00    -0.254 NA
HETATM   14  H   UNL     1     -37.302 -50.852  11.179  1.00  0.00     0.128 HD
HETATM   15  H   UNL     1     -38.141 -50.127   9.908  1.00  0.00     0.128 HD
ENDBRANCH   2   5
BRANCH   1  16
HETATM   16  C   UNL     1     -40.335 -45.345  12.330  1.00  0.00     0.100 C 
HETATM   17  C   UNL     1     -39.643 -43.995  12.512  1.00  0.00     0.034 C 
BRANCH  16  18
HETATM   18  C   UNL     1     -40.214 -45.894  10.896  1.00  0.00     0.172 C 
BRANCH  18  19
HETATM   19  N   UNL     1     -41.476 -46.346  10.337  1.00  0.00    -0.302 N 
HETATM   20  C   UNL     1     -42.592 -45.589  10.119  1.00  0.00     0.111 A 
HETATM   21  C   UNL     1     -43.535 -46.439   9.594  1.00  0.00     0.037 A 
HETATM   22  C   UNL     1     -42.900 -47.695   9.545  1.00  0.00     0.108 A 
HETATM   23  N   UNL     1     -41.647 -47.643  10.011  1.00  0.00    -0.310 N 
ATOM     24  HN  UNL     1     -40.977 -48.407  10.099  1.00  0.00     0.186 HD
ENDBRANCH  18  19
ENDBRANCH  16  18
ENDBRANCH   1  16
TORSDOF 4
ENDMDL
MODEL 8
REMARK VINA RESULT:      -5.2      4.201      6.305
REMARK  4 active torsions:
REMARK  status: ('A' for Active; 'I' for Inactive)
REMARK    1  A    between atoms: C_2  and  C_3 
REMARK    2  A    between atoms: C_2  and  N_10 
REMARK    3  A    between atoms: C_3  and  N_4 
REMARK       I    between atoms: N_10  and  C_11 
REMARK    4  A    between atoms: C_11  and  C_13 
REMARK       I    between atoms: N_17  and  C_19 
REMARK       I    between atoms: C_19  and  N_21 
ROOT
HETATM    1  N   UNL     1     -41.550 -48.152  12.642  1.00  0.00    -0.355 N 
HETATM    2  C   UNL     1     -40.178 -48.247  12.633  1.00  0.00     0.223 C 
HETATM    3  O   UNL     1     -39.500 -47.643  11.799  1.00  0.00    -0.273 OA
HETATM    4  H   UNL     1     -42.065 -48.493  13.442  1.00  0.00     0.162 HD
ENDROOT
BRANCH   2   5
HETATM    5  C   UNL     1     -39.479 -49.069  13.716  1.00  0.00     0.096 C 
HETATM    6  C   UNL     1     -37.997 -49.436  13.524  1.00  0.00     0.017 C 
HETATM    7  C   UNL     1     -37.735 -50.805  12.881  1.00  0.00     0.021 C 
HETATM    8  C   UNL     1     -38.658 -51.890  13.424  1.00  0.00     0.127 C 
HETATM    9  N   UNL     1     -40.043 -51.445  13.314  1.00  0.00    -0.338 N 
HETATM   10  C   UNL     1     -40.351 -50.264  14.115  1.00  0.00     0.141 C 
HETATM   11  C   UNL     1     -40.942 -51.836  12.352  1.00  0.00     0.294 C 
HETATM   12  O   UNL     1     -42.030 -51.306  12.159  1.00  0.00    -0.254 OA
HETATM   13  N   UNL     1     -40.559 -52.851  11.543  1.00  0.00    -0.254 NA
HETATM   14  H   UNL     1     -40.086 -53.629  11.975  1.00  0.00     0.128 HD
HETATM   15  H   UNL     1     -41.309 -53.136  10.923  1.00  0.00     0.128 HD
ENDBRANCH   2   5
BRANCH   1  16
HETATM   16  C   UNL     1     -42.228 -47.203  11.736  1.00  0.00     0.100 C 
HETATM   17  C   UNL     1     -43.481 -47.843  11.141  1.00  0.00     0.034 C 
BRANCH  16  18
HETATM   18  C   UNL     1     -42.518 -45.871  12.455  1.00  0.00     0.172 C 
BRANCH  18  19
HETATM   19  N   UNL     1     -41.799 -44.739  11.895  1.00  0.00    -0.302 N 
HETATM   20  C   UNL     1     -42.228 -43.444  11.842  1.00  0.00     0.111 A 
HETATM   21  C   UNL     1     -41.230 -42.735  11.219  1.00  0.00     0.037 A 
HETATM   22  C   UNL     1     -40.242 -43.693  10.920  1.00  0.00     0.108 A 
HETATM   23  N   UNL     1     -40.594 -44.920  11.320  1.00  0.00    -0.310 N 
ATOM     24  HN  UNL     1     -40.071 -45.789  11.214  1.00  0.00     0.186 HD
ENDBRANCH  18  19
ENDBRANCH  16  18
ENDBRANCH   1  16
TORSDOF 4
ENDMDL
MODEL 9
REMARK VINA RESULT:      -5.1      2.731      4.534
REMARK  4 active torsions:
REMARK  status: ('A' for Active; 'I' for Inactive)
REMARK    1  A    between atoms: C_2  and  C_3 
REMARK    2  A    between atoms: C_2  and  N_10 
REMARK    3  A    between atoms: C_3  and  N_4 
REMARK       I    between atoms: N_10  and  C_11 
REMARK    4  A    between atoms: C_11  and  C_13 
REMARK       I    between atoms: N_17  and  C_19 
REMARK       I    between atoms: C_19  and  N_21 
ROOT
HETATM    1  N   UNL     1     -39.298 -51.051  12.820  1.00  0.00    -0.355 N 
HETATM    2  C   UNL     1     -39.136 -51.374  14.146  1.00  0.00     0.223 C 
HETATM    3  O   UNL     1     -38.536 -50.622  14.919  1.00  0.00    -0.273 OA
HETATM    4  H   UNL     1     -39.951 -51.580  12.258  1.00  0.00     0.162 HD
ENDROOT
BRANCH   2   5
HETATM    5  C   UNL     1     -39.762 -52.660  14.685  1.00  0.00     0.096 C 
HETATM    6  C   UNL     1     -39.692 -53.933  13.823  1.00  0.00     0.017 C 
HETATM    7  C   UNL     1     -40.911 -54.191  12.927  1.00  0.00     0.021 C 
HETATM    8  C   UNL     1     -42.228 -53.901  13.637  1.00  0.00     0.127 C 
HETATM    9  N   UNL     1     -42.186 -52.556  14.200  1.00  0.00    -0.338 N 
HETATM   10  C   UNL     1     -41.165 -52.375  15.228  1.00  0.00     0.141 C 
HETATM   11  C   UNL     1     -42.784 -51.440  13.667  1.00  0.00     0.294 C 
HETATM   12  O   UNL     1     -42.575 -50.292  14.043  1.00  0.00    -0.254 OA
HETATM   13  N   UNL     1     -43.625 -51.642  12.626  1.00  0.00    -0.254 NA
HETATM   14  H   UNL     1     -44.252 -52.428  12.689  1.00  0.00     0.128 HD
HETATM   15  H   UNL     1     -44.089 -50.785  12.351  1.00  0.00     0.128 HD
ENDBRANCH   2   5
BRANCH   1  16
HETATM   16  C   UNL     1     -38.882 -49.722  12.329  1.00  0.00     0.100 C 
HETATM   17  C   UNL     1     -37.645 -49.850  11.440  1.00  0.00     0.034 C 
BRANCH  16  18
HETATM   18  C   UNL     1     -40.053 -49.004  11.630  1.00  0.00     0.172 C 
BRANCH  18  19
HETATM   19  N   UNL     1     -39.954 -47.556  11.669  1.00  0.00    -0.302 N 
HETATM   20  C   UNL     1     -39.707 -46.782  12.766  1.00  0.00     0.111 A 
HETATM   21  C   UNL     1     -39.716 -45.480  12.328  1.00  0.00     0.037 A 
HETATM   22  C   UNL     1     -39.992 -45.567  10.950  1.00  0.00     0.108 A 
HETATM   23  N   UNL     1     -40.151 -46.832  10.548  1.00  0.00    -0.310 N 
ATOM     24  HN  UNL     1     -40.370 -47.172   9.611  1.00  0.00     0.186 HD
ENDBRANCH  18  19
ENDBRANCH  16  18
ENDBRANCH   1  16
TORSDOF 4
ENDMDL
