MODEL 1
REMARK VINA RESULT:      -6.4      0.000      0.000
REMARK  8 active torsions:
REMARK  status: ('A' for Active; 'I' for Inactive)
REMARK    1  A    between atoms: N_4  and  C_5 
REMARK    2  A    between atoms: C_5  and  C_6 
REMARK    3  A    between atoms: C_6  and  O_7 
REMARK    4  A    between atoms: C_6  and  C_8 
REMARK    5  A    between atoms: C_8  and  N_9 
REMARK    6  A    between atoms: N_9  and  C_10 
REMARK    7  A    between atoms: C_10  and  C_11 
REMARK    8  A    between atoms: C_11  and  N_12 
ROOT
HETATM    1  C   UNL     1     -41.359 -52.088  12.262  1.00  0.00     0.174 C 
ENDROOT
BRANCH   1   2
HETATM    2  C   UNL     1     -42.788 -51.968  12.846  1.00  0.00     0.305 C 
BRANCH   2   3
HETATM    3  N   UNL     1     -43.290 -53.213  13.453  1.00  0.00     0.096 N 
HETATM    4  C   UNL     1     -44.567 -52.973  14.158  1.00  0.00     0.303 C 
HETATM    5  C   UNL     1     -45.103 -54.261  14.818  1.00  0.00     0.146 C 
HETATM    6  C   UNL     1     -45.581 -55.291  13.795  1.00  0.00     0.041 C 
HETATM    7  O   UNL     1     -44.134 -54.823  15.721  1.00  0.00    -0.378 OA
HETATM    8  C   UNL     1     -42.866 -55.055  15.088  1.00  0.00     0.146 C 
HETATM    9  C   UNL     1     -42.326 -53.772  14.427  1.00  0.00     0.303 C 
HETATM   10  C   UNL     1     -41.891 -55.547  16.151  1.00  0.00     0.041 C 
ENDBRANCH   2   3
ENDBRANCH   1   2
BRANCH   1  11
HETATM   11  O   UNL     1     -41.348 -52.767  11.000  1.00  0.00    -0.392 OA
HETATM   12  H   UNL     1     -40.818 -52.231  10.387  1.00  0.00     0.210 HD
ENDBRANCH   1  11
BRANCH   1  13
HETATM   13  C   UNL     1     -40.764 -50.687  12.077  1.00  0.00     0.302 C 
BRANCH  13  14
HETATM   14  N   UNL     1     -41.705 -49.842  11.331  1.00  0.00     0.087 N 
HETATM   15  H   UNL     1     -42.472 -49.593  11.964  1.00  0.00     0.316 HD
BRANCH  14  16
HETATM   16  C   UNL     1     -41.064 -48.642  10.794  1.00  0.00     0.291 C 
BRANCH  16  17
HETATM   17  C   UNL     1     -41.966 -47.413  10.915  1.00  0.00     0.178 C 
BRANCH  17  18
HETATM   18  N   UNL     1     -43.070 -47.448   9.977  1.00  0.00    -0.302 N 
HETATM   19  C   UNL     1     -44.390 -47.398  10.290  1.00  0.00     0.118 A 
HETATM   20  C   UNL     1     -45.067 -47.607   9.107  1.00  0.00    -0.028 A 
HETATM   21  C   UNL     1     -46.529 -47.681   8.895  1.00  0.00     0.051 C 
HETATM   22  C   UNL     1     -44.042 -47.751   8.146  1.00  0.00     0.115 A 
HETATM   23  N   UNL     1     -42.821 -47.644   8.672  1.00  0.00    -0.310 N 
ATOM     24  HN  UNL     1     -41.919 -47.698   8.199  1.00  0.00     0.186 HD
ENDBRANCH  17  18
ENDBRANCH  16  17
ENDBRANCH  14  16
ENDBRANCH  13  14
ENDBRANCH   1  13
TORSDOF 8
ENDMDL
MODEL 2
REMARK VINA RESULT:      -6.3      1.077      2.048
REMARK  8 active torsions:
REMARK  status: ('A' for Active; 'I' for Inactive)
REMARK    1  A    between atoms: N_4  and  C_5 
REMARK    2  A    between atoms: C_5  and  C_6 
REMARK    3  A    between atoms: C_6  and  O_7 
REMARK    4  A    between atoms: C_6  and  C_8 
REMARK    5  A    between atoms: C_8  and  N_9 
REMARK    6  A    between atoms: N_9  and  C_10 
REMARK    7  A    between atoms: C_10  and  C_11 
REMARK    8  A    between atoms: C_11  and  N_12 
ROOT
HETATM    1  C   UNL     1     -41.096 -52.368  12.364  1.00  0.00     0.174 C 
ENDROOT
BRANCH   1   2
HETATM    2  C   UNL     1     -42.634 -52.329  12.180  1.00  0.00     0.305 C 
BRANCH   2   3
HETATM    3  N   UNL     1     -43.387 -52.635  13.408  1.00  0.00     0.096 N 
HETATM    4  C   UNL     1     -43.743 -54.070  13.458  1.00  0.00     0.303 C 
HETATM    5  C   UNL     1     -44.550 -54.412  14.728  1.00  0.00     0.146 C 
HETATM    6  C   UNL     1     -43.708 -54.326  16.002  1.00  0.00     0.041 C 
HETATM    7  O   UNL     1     -45.736 -53.602  14.823  1.00  0.00    -0.378 OA
HETATM    8  C   UNL     1     -45.446 -52.197  14.756  1.00  0.00     0.146 C 
HETATM    9  C   UNL     1     -44.639 -51.850  13.490  1.00  0.00     0.303 C 
HETATM   10  C   UNL     1     -46.769 -51.441  14.758  1.00  0.00     0.041 C 
ENDBRANCH   2   3
ENDBRANCH   1   2
BRANCH   1  11
HETATM   11  O   UNL     1     -40.501 -53.482  11.688  1.00  0.00    -0.392 OA
HETATM   12  H   UNL     1     -39.665 -53.174  11.300  1.00  0.00     0.210 HD
ENDBRANCH   1  11
BRANCH   1  13
HETATM   13  C   UNL     1     -40.484 -51.072  11.819  1.00  0.00     0.302 C 
BRANCH  13  14
HETATM   14  N   UNL     1     -41.552 -50.162  11.384  1.00  0.00     0.087 N 
HETATM   15  H   UNL     1     -42.143 -49.962  12.197  1.00  0.00     0.316 HD
BRANCH  14  16
HETATM   16  C   UNL     1     -41.024 -48.927  10.806  1.00  0.00     0.291 C 
BRANCH  16  17
HETATM   17  C   UNL     1     -41.933 -47.732  11.095  1.00  0.00     0.178 C 
BRANCH  17  18
HETATM   18  N   UNL     1     -42.998 -47.604  10.120  1.00  0.00    -0.302 N 
HETATM   19  C   UNL     1     -44.313 -47.397  10.390  1.00  0.00     0.118 A 
HETATM   20  C   UNL     1     -44.967 -47.489   9.180  1.00  0.00    -0.028 A 
HETATM   21  C   UNL     1     -46.417 -47.373   8.917  1.00  0.00     0.051 C 
HETATM   22  C   UNL     1     -43.933 -47.735   8.249  1.00  0.00     0.115 A 
HETATM   23  N   UNL     1     -42.728 -47.795   8.819  1.00  0.00    -0.310 N 
ATOM     24  HN  UNL     1     -41.823 -47.950   8.374  1.00  0.00     0.186 HD
ENDBRANCH  17  18
ENDBRANCH  16  17
ENDBRANCH  14  16
ENDBRANCH  13  14
ENDBRANCH   1  13
TORSDOF 8
ENDMDL
MODEL 3
REMARK VINA RESULT:      -6.1      1.892      2.319
REMARK  8 active torsions:
REMARK  status: ('A' for Active; 'I' for Inactive)
REMARK    1  A    between atoms: N_4  and  C_5 
REMARK    2  A    between atoms: C_5  and  C_6 
REMARK    3  A    between atoms: C_6  and  O_7 
REMARK    4  A    between atoms: C_6  and  C_8 
REMARK    5  A    between atoms: C_8  and  N_9 
REMARK    6  A    between atoms: N_9  and  C_10 
REMARK    7  A    between atoms: C_10  and  C_11 
REMARK    8  A    between atoms: C_11  and  N_12 
ROOT
HETATM    1  C   UNL     1     -40.985 -52.709  12.390  1.00  0.00     0.174 C 
ENDROOT
BRANCH   1   2
HETATM    2  C   UNL     1     -42.530 -52.603  12.416  1.00  0.00     0.305 C 
BRANCH   2   3
HETATM    3  N   UNL     1     -43.185 -53.661  13.204  1.00  0.00     0.096 N 
HETATM    4  C   UNL     1     -44.403 -53.143  13.864  1.00  0.00     0.303 C 
HETATM    5  C   UNL     1     -45.097 -54.229  14.711  1.00  0.00     0.146 C 
HETATM    6  C   UNL     1     -45.734 -55.325  13.856  1.00  0.00     0.041 C 
HETATM    7  O   UNL     1     -44.196 -54.778  15.690  1.00  0.00    -0.378 OA
HETATM    8  C   UNL     1     -42.986 -55.276  15.101  1.00  0.00     0.146 C 
HETATM    9  C   UNL     1     -42.288 -54.195  14.252  1.00  0.00     0.303 C 
HETATM   10  C   UNL     1     -42.065 -55.734  16.227  1.00  0.00     0.041 C 
ENDBRANCH   2   3
ENDBRANCH   1   2
BRANCH   1  11
HETATM   11  O   UNL     1     -40.513 -53.418  11.238  1.00  0.00    -0.392 OA
HETATM   12  H   UNL     1     -41.249 -53.959  10.908  1.00  0.00     0.210 HD
ENDBRANCH   1  11
BRANCH   1  13
HETATM   13  C   UNL     1     -40.377 -51.300  12.389  1.00  0.00     0.302 C 
BRANCH  13  14
HETATM   14  N   UNL     1     -40.577 -50.673  11.077  1.00  0.00     0.087 N 
HETATM   15  H   UNL     1     -41.526 -50.901  10.762  1.00  0.00     0.316 HD
BRANCH  14  16
HETATM   16  C   UNL     1     -40.377 -49.225  11.120  1.00  0.00     0.291 C 
BRANCH  16  17
HETATM   17  C   UNL     1     -41.651 -48.464  10.748  1.00  0.00     0.178 C 
BRANCH  17  18
HETATM   18  N   UNL     1     -41.476 -47.028  10.832  1.00  0.00    -0.302 N 
HETATM   19  C   UNL     1     -42.422 -46.124  11.195  1.00  0.00     0.118 A 
HETATM   20  C   UNL     1     -41.858 -44.883  10.990  1.00  0.00    -0.028 A 
HETATM   21  C   UNL     1     -42.476 -43.556  11.199  1.00  0.00     0.051 C 
HETATM   22  C   UNL     1     -40.557 -45.171  10.520  1.00  0.00     0.115 A 
HETATM   23  N   UNL     1     -40.317 -46.480  10.432  1.00  0.00    -0.310 N 
ATOM     24  HN  UNL     1     -39.462 -46.949  10.134  1.00  0.00     0.186 HD
ENDBRANCH  17  18
ENDBRANCH  16  17
ENDBRANCH  14  16
ENDBRANCH  13  14
ENDBRANCH   1  13
TORSDOF 8
ENDMDL
MODEL 4
REMARK VINA RESULT:      -6.1      1.333      1.890
REMARK  8 active torsions:
REMARK  status: ('A' for Active; 'I' for Inactive)
REMARK    1  A    between atoms: N_4  and  C_5 
REMARK    2  A    between atoms: C_5  and  C_6 
REMARK    3  A    between atoms: C_6  and  O_7 
REMARK    4  A    between atoms: C_6  and  C_8 
REMARK    5  A    between atoms: C_8  and  N_9 
REMARK    6  A    between atoms: N_9  and  C_10 
REMARK    7  A    between atoms: C_10  and  C_11 
REMARK    8  A    between atoms: C_11  and  N_12 
ROOT
HETATM    1  C   UNL     1     -40.533 -52.506  12.542  1.00  0.00     0.174 C 
ENDROOT
BRANCH   1   2
HETATM    2  C   UNL     1     -41.236 -52.971  13.842  1.00  0.00     0.305 C 
BRANCH   2   3
HETATM    3  N   UNL     1     -42.703 -52.845  13.801  1.00  0.00     0.096 N 
HETATM    4  C   UNL     1     -43.200 -52.134  14.999  1.00  0.00     0.303 C 
HETATM    5  C   UNL     1     -44.738 -52.006  14.989  1.00  0.00     0.146 C 
HETATM    6  C   UNL     1     -45.241 -51.045  13.911  1.00  0.00     0.041 C 
HETATM    7  O   UNL     1     -45.365 -53.297  14.881  1.00  0.00    -0.378 OA
HETATM    8  C   UNL     1     -44.899 -54.038  13.743  1.00  0.00     0.146 C 
HETATM    9  C   UNL     1     -43.364 -54.168  13.748  1.00  0.00     0.303 C 
HETATM   10  C   UNL     1     -45.543 -55.419  13.783  1.00  0.00     0.041 C 
ENDBRANCH   2   3
ENDBRANCH   1   2
BRANCH   1  11
HETATM   11  O   UNL     1     -40.674 -53.461  11.483  1.00  0.00    -0.392 OA
HETATM   12  H   UNL     1     -40.233 -54.279  11.768  1.00  0.00     0.210 HD
ENDBRANCH   1  11
BRANCH   1  13
HETATM   13  C   UNL     1     -41.133 -51.170  12.088  1.00  0.00     0.302 C 
BRANCH  13  14
HETATM   14  N   UNL     1     -40.087 -50.332  11.489  1.00  0.00     0.087 N 
HETATM   15  H   UNL     1     -39.532 -50.925  10.862  1.00  0.00     0.316 HD
BRANCH  14  16
HETATM   16  C   UNL     1     -40.641 -49.187  10.767  1.00  0.00     0.291 C 
BRANCH  16  17
HETATM   17  C   UNL     1     -41.958 -48.712  11.381  1.00  0.00     0.178 C 
BRANCH  17  18
HETATM   18  N   UNL     1     -42.832 -48.101  10.400  1.00  0.00    -0.302 N 
HETATM   19  C   UNL     1     -44.100 -47.664  10.616  1.00  0.00     0.118 A 
HETATM   20  C   UNL     1     -44.589 -47.298   9.381  1.00  0.00    -0.028 A 
HETATM   21  C   UNL     1     -45.936 -46.784   9.050  1.00  0.00     0.051 C 
HETATM   22  C   UNL     1     -43.513 -47.542   8.499  1.00  0.00     0.115 A 
HETATM   23  N   UNL     1     -42.435 -48.023   9.120  1.00  0.00    -0.310 N 
ATOM     24  HN  UNL     1     -41.530 -48.270   8.720  1.00  0.00     0.186 HD
ENDBRANCH  17  18
ENDBRANCH  16  17
ENDBRANCH  14  16
ENDBRANCH  13  14
ENDBRANCH   1  13
TORSDOF 8
ENDMDL
MODEL 5
REMARK VINA RESULT:      -6.0      1.916      2.540
REMARK  8 active torsions:
REMARK  status: ('A' for Active; 'I' for Inactive)
REMARK    1  A    between atoms: N_4  and  C_5 
REMARK    2  A    between atoms: C_5  and  C_6 
REMARK    3  A    between atoms: C_6  and  O_7 
REMARK    4  A    between atoms: C_6  and  C_8 
REMARK    5  A    between atoms: C_8  and  N_9 
REMARK    6  A    between atoms: N_9  and  C_10 
REMARK    7  A    between atoms: C_10  and  C_11 
REMARK    8  A    between atoms: C_11  and  N_12 
ROOT
HETATM    1  C   UNL     1     -40.611 -49.445  11.544  1.00  0.00     0.174 C 
ENDROOT
BRANCH   1   2
HETATM    2  C   UNL     1     -41.954 -49.815  12.224  1.00  0.00     0.305 C 
BRANCH   2   3
HETATM    3  N   UNL     1     -42.137 -51.262  12.429  1.00  0.00     0.096 N 
HETATM    4  C   UNL     1     -43.204 -51.518  13.421  1.00  0.00     0.303 C 
HETATM    5  C   UNL     1     -43.402 -53.028  13.667  1.00  0.00     0.146 C 
HETATM    6  C   UNL     1     -44.013 -53.746  12.463  1.00  0.00     0.041 C 
HETATM    7  O   UNL     1     -42.174 -53.651  14.086  1.00  0.00    -0.378 OA
HETATM    8  C   UNL     1     -41.098 -53.413  13.165  1.00  0.00     0.146 C 
HETATM    9  C   UNL     1     -40.896 -51.906  12.915  1.00  0.00     0.303 C 
HETATM   10  C   UNL     1     -39.830 -54.021  13.753  1.00  0.00     0.041 C 
ENDBRANCH   2   3
ENDBRANCH   1   2
BRANCH   1  11
HETATM   11  O   UNL     1     -40.495 -50.016  10.236  1.00  0.00    -0.392 OA
HETATM   12  H   UNL     1     -39.903 -49.444   9.720  1.00  0.00     0.210 HD
ENDBRANCH   1  11
BRANCH   1  13
HETATM   13  C   UNL     1     -40.501 -47.920  11.432  1.00  0.00     0.302 C 
BRANCH  13  14
HETATM   14  N   UNL     1     -41.198 -47.458  10.225  1.00  0.00     0.087 N 
HETATM   15  H   UNL     1     -41.658 -48.269   9.800  1.00  0.00     0.316 HD
BRANCH  14  16
HETATM   16  C   UNL     1     -42.168 -46.403  10.517  1.00  0.00     0.291 C 
BRANCH  16  17
HETATM   17  C   UNL     1     -42.881 -45.921   9.253  1.00  0.00     0.178 C 
BRANCH  17  18
HETATM   18  N   UNL     1     -44.227 -46.446   9.147  1.00  0.00    -0.302 N 
HETATM   19  C   UNL     1     -44.575 -47.757   9.085  1.00  0.00     0.118 A 
HETATM   20  C   UNL     1     -45.932 -47.778   8.845  1.00  0.00    -0.028 A 
HETATM   21  C   UNL     1     -46.806 -48.956   8.658  1.00  0.00     0.051 C 
HETATM   22  C   UNL     1     -46.294 -46.413   8.804  1.00  0.00     0.115 A 
HETATM   23  N   UNL     1     -45.257 -45.597   8.999  1.00  0.00    -0.310 N 
ATOM     24  HN  UNL     1     -45.248 -44.578   9.027  1.00  0.00     0.186 HD
ENDBRANCH  17  18
ENDBRANCH  16  17
ENDBRANCH  14  16
ENDBRANCH  13  14
ENDBRANCH   1  13
TORSDOF 8
ENDMDL
MODEL 6
REMARK VINA RESULT:      -6.0      1.734      2.772
REMARK  8 active torsions:
REMARK  status: ('A' for Active; 'I' for Inactive)
REMARK    1  A    between atoms: N_4  and  C_5 
REMARK    2  A    between atoms: C_5  and  C_6 
REMARK    3  A    between atoms: C_6  and  O_7 
REMARK    4  A    between atoms: C_6  and  C_8 
REMARK    5  A    between atoms: C_8  and  N_9 
REMARK    6  A    between atoms: N_9  and  C_10 
REMARK    7  A    between atoms: C_10  and  C_11 
REMARK    8  A    between atoms: C_11  and  N_12 
ROOT
HETATM    1  C   UNL     1     -40.412 -49.998  11.596  1.00  0.00     0.174 C 
ENDROOT
BRANCH   1   2
HETATM    2  C   UNL     1     -41.796 -50.378  12.179  1.00  0.00     0.305 C 
BRANCH   2   3
HETATM    3  N   UNL     1     -41.781 -51.607  12.991  1.00  0.00     0.096 N 
HETATM    4  C   UNL     1     -40.748 -52.545  12.499  1.00  0.00     0.303 C 
HETATM    5  C   UNL     1     -40.726 -53.850  13.323  1.00  0.00     0.146 C 
HETATM    6  C   UNL     1     -40.205 -53.640  14.745  1.00  0.00     0.041 C 
HETATM    7  O   UNL     1     -42.017 -54.487  13.322  1.00  0.00    -0.378 OA
HETATM    8  C   UNL     1     -43.060 -53.608  13.771  1.00  0.00     0.146 C 
HETATM    9  C   UNL     1     -43.087 -52.303  12.952  1.00  0.00     0.303 C 
HETATM   10  C   UNL     1     -44.389 -54.342  13.630  1.00  0.00     0.041 C 
ENDBRANCH   2   3
ENDBRANCH   1   2
BRANCH   1  11
HETATM   11  O   UNL     1     -40.392 -50.072  10.165  1.00  0.00    -0.392 OA
HETATM   12  H   UNL     1     -39.472 -50.226   9.895  1.00  0.00     0.210 HD
ENDBRANCH   1  11
BRANCH   1  13
HETATM   13  C   UNL     1     -40.054 -48.569  12.024  1.00  0.00     0.302 C 
BRANCH  13  14
HETATM   14  N   UNL     1     -40.460 -47.621  10.980  1.00  0.00     0.087 N 
HETATM   15  H   UNL     1     -40.449 -48.117  10.083  1.00  0.00     0.316 HD
BRANCH  14  16
HETATM   16  C   UNL     1     -41.780 -47.044  11.239  1.00  0.00     0.291 C 
BRANCH  16  17
HETATM   17  C   UNL     1     -42.237 -46.137  10.097  1.00  0.00     0.178 C 
BRANCH  17  18
HETATM   18  N   UNL     1     -43.620 -46.370   9.732  1.00  0.00    -0.302 N 
HETATM   19  C   UNL     1     -44.287 -47.550   9.823  1.00  0.00     0.118 A 
HETATM   20  C   UNL     1     -45.515 -47.337   9.234  1.00  0.00    -0.028 A 
HETATM   21  C   UNL     1     -46.613 -48.308   9.040  1.00  0.00     0.051 C 
HETATM   22  C   UNL     1     -45.477 -45.979   8.843  1.00  0.00     0.115 A 
HETATM   23  N   UNL     1     -44.326 -45.383   9.155  1.00  0.00    -0.310 N 
ATOM     24  HN  UNL     1     -44.049 -44.415   8.995  1.00  0.00     0.186 HD
ENDBRANCH  17  18
ENDBRANCH  16  17
ENDBRANCH  14  16
ENDBRANCH  13  14
ENDBRANCH   1  13
TORSDOF 8
ENDMDL
MODEL 7
REMARK VINA RESULT:      -5.9      2.129      2.960
REMARK  8 active torsions:
REMARK  status: ('A' for Active; 'I' for Inactive)
REMARK    1  A    between atoms: N_4  and  C_5 
REMARK    2  A    between atoms: C_5  and  C_6 
REMARK    3  A    between atoms: C_6  and  O_7 
REMARK    4  A    between atoms: C_6  and  C_8 
REMARK    5  A    between atoms: C_8  and  N_9 
REMARK    6  A    between atoms: N_9  and  C_10 
REMARK    7  A    between atoms: C_10  and  C_11 
REMARK    8  A    between atoms: C_11  and  N_12 
ROOT
HETATM    1  C   UNL     1     -40.907 -52.450  12.621  1.00  0.00     0.174 C 
ENDROOT
BRANCH   1   2
HETATM    2  C   UNL     1     -42.306 -51.804  12.463  1.00  0.00     0.305 C 
BRANCH   2   3
HETATM    3  N   UNL     1     -43.363 -52.481  13.234  1.00  0.00     0.096 N 
HETATM    4  C   UNL     1     -43.906 -53.630  12.480  1.00  0.00     0.303 C 
HETATM    5  C   UNL     1     -45.029 -54.345  13.261  1.00  0.00     0.146 C 
HETATM    6  C   UNL     1     -44.510 -55.087  14.492  1.00  0.00     0.041 C 
HETATM    7  O   UNL     1     -46.086 -53.430  13.602  1.00  0.00    -0.378 OA
HETATM    8  C   UNL     1     -45.606 -52.282  14.319  1.00  0.00     0.146 C 
HETATM    9  C   UNL     1     -44.484 -51.565  13.544  1.00  0.00     0.303 C 
HETATM   10  C   UNL     1     -46.781 -51.335  14.536  1.00  0.00     0.041 C 
ENDBRANCH   2   3
ENDBRANCH   1   2
BRANCH   1  11
HETATM   11  O   UNL     1     -40.456 -53.064  11.408  1.00  0.00    -0.392 OA
HETATM   12  H   UNL     1     -39.582 -53.450  11.584  1.00  0.00     0.210 HD
ENDBRANCH   1  11
BRANCH   1  13
HETATM   13  C   UNL     1     -39.895 -51.376  13.039  1.00  0.00     0.302 C 
BRANCH  13  14
HETATM   14  N   UNL     1     -38.906 -51.181  11.971  1.00  0.00     0.087 N 
HETATM   15  H   UNL     1     -39.138 -51.825  11.209  1.00  0.00     0.316 HD
BRANCH  14  16
HETATM   16  C   UNL     1     -38.873 -49.799  11.494  1.00  0.00     0.291 C 
BRANCH  16  17
HETATM   17  C   UNL     1     -39.857 -48.911  12.257  1.00  0.00     0.178 C 
BRANCH  17  18
HETATM   18  N   UNL     1     -40.752 -48.195  11.370  1.00  0.00    -0.302 N 
HETATM   19  C   UNL     1     -41.092 -46.883  11.460  1.00  0.00     0.118 A 
HETATM   20  C   UNL     1     -42.068 -46.679  10.509  1.00  0.00    -0.028 A 
HETATM   21  C   UNL     1     -42.804 -45.432  10.211  1.00  0.00     0.051 C 
HETATM   22  C   UNL     1     -42.216 -47.942   9.892  1.00  0.00     0.115 A 
HETATM   23  N   UNL     1     -41.405 -48.867  10.409  1.00  0.00    -0.310 N 
ATOM     24  HN  UNL     1     -41.307 -49.846  10.139  1.00  0.00     0.186 HD
ENDBRANCH  17  18
ENDBRANCH  16  17
ENDBRANCH  14  16
ENDBRANCH  13  14
ENDBRANCH   1  13
TORSDOF 8
ENDMDL
MODEL 8
REMARK VINA RESULT:      -5.8      2.629      3.754
REMARK  8 active torsions:
REMARK  status: ('A' for Active; 'I' for Inactive)
REMARK    1  A    between atoms: N_4  and  C_5 
REMARK    2  A    between atoms: C_5  and  C_6 
REMARK    3  A    between atoms: C_6  and  O_7 
REMARK    4  A    between atoms: C_6  and  C_8 
REMARK    5  A    between atoms: C_8  and  N_9 
REMARK    6  A    between atoms: N_9  and  C_10 
REMARK    7  A    between atoms: C_10  and  C_11 
REMARK    8  A    between atoms: C_11  and  N_12 
ROOT
HETATM    1  C   UNL     1     -40.844 -51.751  12.473  1.00  0.00     0.174 C 
ENDROOT
BRANCH   1   2
HETATM    2  C   UNL     1     -42.355 -51.518  12.218  1.00  0.00     0.305 C 
BRANCH   2   3
HETATM    3  N   UNL     1     -43.234 -52.268  13.131  1.00  0.00     0.096 N 
HETATM    4  C   UNL     1     -43.750 -53.488  12.474  1.00  0.00     0.303 C 
HETATM    5  C   UNL     1     -44.690 -54.282  13.406  1.00  0.00     0.146 C 
HETATM    6  C   UNL     1     -43.949 -54.931  14.575  1.00  0.00     0.041 C 
HETATM    7  O   UNL     1     -45.782 -53.463  13.861  1.00  0.00    -0.378 OA
HETATM    8  C   UNL     1     -45.333 -52.252  14.488  1.00  0.00     0.146 C 
HETATM    9  C   UNL     1     -44.393 -51.456  13.563  1.00  0.00     0.303 C 
HETATM   10  C   UNL     1     -46.560 -51.416  14.835  1.00  0.00     0.041 C 
ENDBRANCH   2   3
ENDBRANCH   1   2
BRANCH   1  11
HETATM   11  O   UNL     1     -40.350 -52.896  11.769  1.00  0.00    -0.392 OA
HETATM   12  H   UNL     1     -39.468 -53.098  12.125  1.00  0.00     0.210 HD
ENDBRANCH   1  11
BRANCH   1  13
HETATM   13  C   UNL     1     -40.055 -50.514  12.025  1.00  0.00     0.302 C 
BRANCH  13  14
HETATM   14  N   UNL     1     -40.521 -50.079  10.703  1.00  0.00     0.087 N 
HETATM   15  H   UNL     1     -41.282 -50.704  10.417  1.00  0.00     0.316 HD
BRANCH  14  16
HETATM   16  C   UNL     1     -40.964 -48.685  10.703  1.00  0.00     0.291 C 
BRANCH  16  17
HETATM   17  C   UNL     1     -40.462 -47.930  11.934  1.00  0.00     0.178 C 
BRANCH  17  18
HETATM   18  N   UNL     1     -40.175 -46.539  11.645  1.00  0.00    -0.302 N 
HETATM   19  C   UNL     1     -40.164 -45.519  12.542  1.00  0.00     0.118 A 
HETATM   20  C   UNL     1     -39.989 -44.368  11.803  1.00  0.00    -0.028 A 
HETATM   21  C   UNL     1     -39.936 -42.973  12.289  1.00  0.00     0.051 C 
HETATM   22  C   UNL     1     -39.887 -44.828  10.471  1.00  0.00     0.115 A 
HETATM   23  N   UNL     1     -39.990 -46.154  10.372  1.00  0.00    -0.310 N 
ATOM     24  HN  UNL     1     -39.940 -46.734   9.534  1.00  0.00     0.186 HD
ENDBRANCH  17  18
ENDBRANCH  16  17
ENDBRANCH  14  16
ENDBRANCH  13  14
ENDBRANCH   1  13
TORSDOF 8
ENDMDL
MODEL 9
REMARK VINA RESULT:      -5.7      2.626      7.691
REMARK  8 active torsions:
REMARK  status: ('A' for Active; 'I' for Inactive)
REMARK    1  A    between atoms: N_4  and  C_5 
REMARK    2  A    between atoms: C_5  and  C_6 
REMARK    3  A    between atoms: C_6  and  O_7 
REMARK    4  A    between atoms: C_6  and  C_8 
REMARK    5  A    between atoms: C_8  and  N_9 
REMARK    6  A    between atoms: N_9  and  C_10 
REMARK    7  A    between atoms: C_10  and  C_11 
REMARK    8  A    between atoms: C_11  and  N_12 
ROOT
HETATM    1  C   UNL     1     -40.743 -50.175  11.595  1.00  0.00     0.174 C 
ENDROOT
BRANCH   1   2
HETATM    2  C   UNL     1     -41.825 -49.100  11.866  1.00  0.00     0.305 C 
BRANCH   2   3
HETATM    3  N   UNL     1     -41.643 -47.864  11.086  1.00  0.00     0.096 N 
HETATM    4  C   UNL     1     -41.307 -46.731  11.974  1.00  0.00     0.303 C 
HETATM    5  C   UNL     1     -41.129 -45.419  11.181  1.00  0.00     0.146 C 
HETATM    6  C   UNL     1     -39.873 -45.424  10.310  1.00  0.00     0.041 C 
HETATM    7  O   UNL     1     -42.306 -45.115  10.411  1.00  0.00    -0.378 OA
HETATM    8  C   UNL     1     -42.687 -46.196   9.546  1.00  0.00     0.146 C 
HETATM    9  C   UNL     1     -42.866 -47.509  10.332  1.00  0.00     0.303 C 
HETATM   10  C   UNL     1     -43.994 -45.814   8.860  1.00  0.00     0.041 C 
ENDBRANCH   2   3
ENDBRANCH   1   2
BRANCH   1  11
HETATM   11  O   UNL     1     -39.771 -49.733  10.639  1.00  0.00    -0.392 OA
HETATM   12  H   UNL     1     -39.548 -48.812  10.857  1.00  0.00     0.210 HD
ENDBRANCH   1  11
BRANCH   1  13
HETATM   13  C   UNL     1     -40.027 -50.519  12.907  1.00  0.00     0.302 C 
BRANCH  13  14
HETATM   14  N   UNL     1     -39.837 -51.972  13.004  1.00  0.00     0.087 N 
HETATM   15  H   UNL     1     -39.911 -52.232  13.993  1.00  0.00     0.316 HD
BRANCH  14  16
HETATM   16  C   UNL     1     -40.807 -52.712  12.197  1.00  0.00     0.291 C 
BRANCH  16  17
HETATM   17  C   UNL     1     -41.383 -53.908  12.955  1.00  0.00     0.178 C 
BRANCH  17  18
HETATM   18  N   UNL     1     -42.823 -53.829  13.091  1.00  0.00    -0.302 N 
HETATM   19  C   UNL     1     -43.573 -54.432  14.050  1.00  0.00     0.118 A 
HETATM   20  C   UNL     1     -44.887 -54.203  13.703  1.00  0.00    -0.028 A 
HETATM   21  C   UNL     1     -46.107 -54.670  14.394  1.00  0.00     0.051 C 
HETATM   22  C   UNL     1     -44.800 -53.430  12.523  1.00  0.00     0.115 A 
HETATM   23  N   UNL     1     -43.541 -53.191  12.153  1.00  0.00    -0.310 N 
ATOM     24  HN  UNL     1     -43.206 -52.655  11.353  1.00  0.00     0.186 HD
ENDBRANCH  17  18
ENDBRANCH  16  17
ENDBRANCH  14  16
ENDBRANCH  13  14
ENDBRANCH   1  13
TORSDOF 8
ENDMDL
