MODEL 1
REMARK VINA RESULT:      -5.6      0.000      0.000
REMARK  5 active torsions:
REMARK  status: ('A' for Active; 'I' for Inactive)
REMARK    1  A    between atoms: C_2  and  C_3 
REMARK    2  A    between atoms: C_3  and  C_4 
REMARK    3  A    between atoms: C_4  and  N_7 
REMARK       I    between atoms: N_7  and  C_8 
REMARK    4  A    between atoms: C_8  and  C_10 
REMARK    5  A    between atoms: C_10  and  N_11 
ROOT
HETATM    1  N   UNL     1     -44.204 -52.794  14.446  1.00  0.00    -0.351 N 
HETATM    2  C   UNL     1     -43.002 -52.894  13.767  1.00  0.00     0.236 C 
HETATM    3  O   UNL     1     -42.882 -53.413  12.658  1.00  0.00    -0.272 OA
HETATM    4  H   UNL     1     -44.159 -52.566  15.434  1.00  0.00     0.163 HD
ENDROOT
BRANCH   2   5
HETATM    5  C   UNL     1     -41.797 -52.280  14.489  1.00  0.00     0.235 C 
BRANCH   5   6
HETATM    6  N   UNL     1     -40.788 -53.286  14.822  1.00  0.00    -0.301 N 
HETATM    7  C   UNL     1     -40.926 -54.058  15.957  1.00  0.00     0.102 A 
HETATM    8  C   UNL     1     -40.038 -54.999  16.284  1.00  0.00     0.092 A 
HETATM    9  C   UNL     1     -38.875 -55.212  15.406  1.00  0.00     0.250 A 
HETATM   10  O   UNL     1     -38.051 -56.084  15.647  1.00  0.00    -0.268 OA
HETATM   11  N   UNL     1     -38.789 -54.384  14.326  1.00  0.00    -0.275 N 
HETATM   12  C   UNL     1     -39.689 -53.409  13.984  1.00  0.00     0.329 A 
HETATM   13  H   UNL     1     -37.995 -54.506  13.716  1.00  0.00     0.173 HD
HETATM   14  O   UNL     1     -39.512 -52.709  12.989  1.00  0.00    -0.246 OA
ENDBRANCH   5   6
ENDBRANCH   2   5
BRANCH   1  15
HETATM   15  C   UNL     1     -45.495 -53.296  13.932  1.00  0.00     0.025 C 
HETATM   16  C   UNL     1     -46.628 -52.817  14.865  1.00  0.00     0.038 C 
HETATM   17  C   UNL     1     -45.516 -54.838  13.956  1.00  0.00     0.038 C 
BRANCH  15  18
HETATM   18  C   UNL     1     -45.764 -52.794  12.484  1.00  0.00     0.030 C 
BRANCH  18  19
HETATM   19  C   UNL     1     -46.690 -51.572  12.395  1.00  0.00    -0.002 C 
HETATM   20  C   UNL     1     -47.456 -51.538  11.079  1.00  0.00     0.005 C 
ENDBRANCH  18  19
ENDBRANCH  15  18
ENDBRANCH   1  15
TORSDOF 5
ENDMDL
MODEL 2
REMARK VINA RESULT:      -5.4      5.318      7.196
REMARK  5 active torsions:
REMARK  status: ('A' for Active; 'I' for Inactive)
REMARK    1  A    between atoms: C_2  and  C_3 
REMARK    2  A    between atoms: C_3  and  C_4 
REMARK    3  A    between atoms: C_4  and  N_7 
REMARK       I    between atoms: N_7  and  C_8 
REMARK    4  A    between atoms: C_8  and  C_10 
REMARK    5  A    between atoms: C_10  and  N_11 
ROOT
HETATM    1  N   UNL     1     -42.475 -50.904  12.077  1.00  0.00    -0.351 N 
HETATM    2  C   UNL     1     -41.933 -49.650  12.300  1.00  0.00     0.236 C 
HETATM    3  O   UNL     1     -42.009 -49.050  13.370  1.00  0.00    -0.272 OA
HETATM    4  H   UNL     1     -42.561 -51.206  11.112  1.00  0.00     0.163 HD
ENDROOT
BRANCH   2   5
HETATM    5  C   UNL     1     -41.191 -49.044  11.103  1.00  0.00     0.235 C 
BRANCH   5   6
HETATM    6  N   UNL     1     -41.835 -47.823  10.620  1.00  0.00    -0.301 N 
HETATM    7  C   UNL     1     -43.103 -47.874  10.078  1.00  0.00     0.102 A 
HETATM    8  C   UNL     1     -43.732 -46.778   9.646  1.00  0.00     0.092 A 
HETATM    9  C   UNL     1     -43.046 -45.480   9.749  1.00  0.00     0.250 A 
HETATM   10  O   UNL     1     -43.594 -44.445   9.396  1.00  0.00    -0.268 OA
HETATM   11  N   UNL     1     -41.782 -45.517  10.259  1.00  0.00    -0.275 N 
HETATM   12  C   UNL     1     -41.122 -46.635  10.699  1.00  0.00     0.329 A 
HETATM   13  H   UNL     1     -41.290 -44.639  10.330  1.00  0.00     0.173 HD
HETATM   14  O   UNL     1     -39.975 -46.559  11.135  1.00  0.00    -0.246 OA
ENDBRANCH   5   6
ENDBRANCH   2   5
BRANCH   1  15
HETATM   15  C   UNL     1     -43.213 -51.684  13.093  1.00  0.00     0.025 C 
HETATM   16  C   UNL     1     -42.251 -52.039  14.248  1.00  0.00     0.038 C 
HETATM   17  C   UNL     1     -43.703 -53.016  12.492  1.00  0.00     0.038 C 
BRANCH  15  18
HETATM   18  C   UNL     1     -44.426 -50.886  13.650  1.00  0.00     0.030 C 
BRANCH  18  19
HETATM   19  C   UNL     1     -45.797 -51.501  13.329  1.00  0.00    -0.002 C 
HETATM   20  C   UNL     1     -46.741 -51.434  14.521  1.00  0.00     0.005 C 
ENDBRANCH  18  19
ENDBRANCH  15  18
ENDBRANCH   1  15
TORSDOF 5
ENDMDL
MODEL 3
REMARK VINA RESULT:      -5.2      2.797      4.222
REMARK  5 active torsions:
REMARK  status: ('A' for Active; 'I' for Inactive)
REMARK    1  A    between atoms: C_2  and  C_3 
REMARK    2  A    between atoms: C_3  and  C_4 
REMARK    3  A    between atoms: C_4  and  N_7 
REMARK       I    between atoms: N_7  and  C_8 
REMARK    4  A    between atoms: C_8  and  C_10 
REMARK    5  A    between atoms: C_10  and  N_11 
ROOT
HETATM    1  N   UNL     1     -43.994 -52.479  12.305  1.00  0.00    -0.351 N 
HETATM    2  C   UNL     1     -42.744 -52.639  12.879  1.00  0.00     0.236 C 
HETATM    3  O   UNL     1     -42.564 -52.970  14.050  1.00  0.00    -0.272 OA
HETATM    4  H   UNL     1     -44.036 -51.987  11.419  1.00  0.00     0.163 HD
ENDROOT
BRANCH   2   5
HETATM    5  C   UNL     1     -41.562 -52.397  11.934  1.00  0.00     0.235 C 
BRANCH   5   6
HETATM    6  N   UNL     1     -40.870 -51.144  12.234  1.00  0.00    -0.301 N 
HETATM    7  C   UNL     1     -41.438 -49.936  11.883  1.00  0.00     0.102 A 
HETATM    8  C   UNL     1     -40.846 -48.771  12.157  1.00  0.00     0.092 A 
HETATM    9  C   UNL     1     -39.548 -48.781  12.851  1.00  0.00     0.250 A 
HETATM   10  O   UNL     1     -38.983 -47.738  13.152  1.00  0.00    -0.268 OA
HETATM   11  N   UNL     1     -39.035 -50.013  13.129  1.00  0.00    -0.275 N 
HETATM   12  C   UNL     1     -39.626 -51.216  12.846  1.00  0.00     0.329 A 
HETATM   13  H   UNL     1     -38.140 -50.043  13.595  1.00  0.00     0.173 HD
HETATM   14  O   UNL     1     -39.072 -52.275  13.132  1.00  0.00    -0.246 OA
ENDBRANCH   5   6
ENDBRANCH   2   5
BRANCH   1  15
HETATM   15  C   UNL     1     -45.270 -52.681  13.022  1.00  0.00     0.025 C 
HETATM   16  C   UNL     1     -45.390 -54.168  13.423  1.00  0.00     0.038 C 
HETATM   17  C   UNL     1     -46.460 -52.371  12.092  1.00  0.00     0.038 C 
BRANCH  15  18
HETATM   18  C   UNL     1     -45.356 -51.789  14.293  1.00  0.00     0.030 C 
BRANCH  18  19
HETATM   19  C   UNL     1     -46.775 -51.323  14.651  1.00  0.00    -0.002 C 
HETATM   20  C   UNL     1     -47.042 -51.422  16.147  1.00  0.00     0.005 C 
ENDBRANCH  18  19
ENDBRANCH  15  18
ENDBRANCH   1  15
TORSDOF 5
ENDMDL
MODEL 4
REMARK VINA RESULT:      -5.1      4.444      6.221
REMARK  5 active torsions:
REMARK  status: ('A' for Active; 'I' for Inactive)
REMARK    1  A    between atoms: C_2  and  C_3 
REMARK    2  A    between atoms: C_3  and  C_4 
REMARK    3  A    between atoms: C_4  and  N_7 
REMARK       I    between atoms: N_7  and  C_8 
REMARK    4  A    between atoms: C_8  and  C_10 
REMARK    5  A    between atoms: C_10  and  N_11 
ROOT
HETATM    1  N   UNL     1     -41.694 -47.930  12.279  1.00  0.00    -0.351 N 
HETATM    2  C   UNL     1     -41.189 -49.172  11.933  1.00  0.00     0.236 C 
HETATM    3  O   UNL     1     -40.698 -49.431  10.836  1.00  0.00    -0.272 OA
HETATM    4  H   UNL     1     -42.279 -47.883  13.107  1.00  0.00     0.163 HD
ENDROOT
BRANCH   2   5
HETATM    5  C   UNL     1     -41.259 -50.230  13.040  1.00  0.00     0.235 C 
BRANCH   5   6
HETATM    6  N   UNL     1     -42.424 -51.102  12.891  1.00  0.00    -0.301 N 
HETATM    7  C   UNL     1     -43.630 -50.752  13.464  1.00  0.00     0.102 A 
HETATM    8  C   UNL     1     -44.721 -51.511  13.333  1.00  0.00     0.092 A 
HETATM    9  C   UNL     1     -44.627 -52.760  12.559  1.00  0.00     0.250 A 
HETATM   10  O   UNL     1     -45.607 -53.471  12.385  1.00  0.00    -0.268 OA
HETATM   11  N   UNL     1     -43.394 -53.054  12.057  1.00  0.00    -0.275 N 
HETATM   12  C   UNL     1     -42.265 -52.289  12.191  1.00  0.00     0.329 A 
HETATM   13  H   UNL     1     -43.305 -53.910  11.531  1.00  0.00     0.173 HD
HETATM   14  O   UNL     1     -41.196 -52.652  11.705  1.00  0.00    -0.246 OA
ENDBRANCH   5   6
ENDBRANCH   2   5
BRANCH   1  15
HETATM   15  C   UNL     1     -41.711 -46.759  11.378  1.00  0.00     0.025 C 
HETATM   16  C   UNL     1     -40.258 -46.394  11.002  1.00  0.00     0.038 C 
HETATM   17  C   UNL     1     -42.306 -45.535  12.104  1.00  0.00     0.038 C 
BRANCH  15  18
HETATM   18  C   UNL     1     -42.528 -47.047  10.086  1.00  0.00     0.030 C 
BRANCH  18  19
HETATM   19  C   UNL     1     -43.987 -47.458  10.332  1.00  0.00    -0.002 C 
HETATM   20  C   UNL     1     -44.828 -47.340   9.068  1.00  0.00     0.005 C 
ENDBRANCH  18  19
ENDBRANCH  15  18
ENDBRANCH   1  15
TORSDOF 5
ENDMDL
MODEL 5
REMARK VINA RESULT:      -5.0      2.154      3.116
REMARK  5 active torsions:
REMARK  status: ('A' for Active; 'I' for Inactive)
REMARK    1  A    between atoms: C_2  and  C_3 
REMARK    2  A    between atoms: C_3  and  C_4 
REMARK    3  A    between atoms: C_4  and  N_7 
REMARK       I    between atoms: N_7  and  C_8 
REMARK    4  A    between atoms: C_8  and  C_10 
REMARK    5  A    between atoms: C_10  and  N_11 
ROOT
HETATM    1  N   UNL     1     -43.603 -53.551  13.046  1.00  0.00    -0.351 N 
HETATM    2  C   UNL     1     -42.592 -54.139  13.787  1.00  0.00     0.236 C 
HETATM    3  O   UNL     1     -42.743 -54.576  14.926  1.00  0.00    -0.272 OA
HETATM    4  H   UNL     1     -43.326 -53.021  12.225  1.00  0.00     0.163 HD
ENDROOT
BRANCH   2   5
HETATM    5  C   UNL     1     -41.240 -54.237  13.073  1.00  0.00     0.235 C 
BRANCH   5   6
HETATM    6  N   UNL     1     -40.398 -53.070  13.332  1.00  0.00    -0.301 N 
HETATM    7  C   UNL     1     -39.537 -53.060  14.411  1.00  0.00     0.102 A 
HETATM    8  C   UNL     1     -38.739 -52.022  14.669  1.00  0.00     0.092 A 
HETATM    9  C   UNL     1     -38.784 -50.853  13.776  1.00  0.00     0.250 A 
HETATM   10  O   UNL     1     -38.049 -49.892  13.953  1.00  0.00    -0.268 OA
HETATM   11  N   UNL     1     -39.686 -50.923  12.756  1.00  0.00    -0.275 N 
HETATM   12  C   UNL     1     -40.518 -51.978  12.485  1.00  0.00     0.329 A 
HETATM   13  H   UNL     1     -39.742 -50.128  12.137  1.00  0.00     0.173 HD
HETATM   14  O   UNL     1     -41.304 -51.934  11.541  1.00  0.00    -0.246 OA
ENDBRANCH   5   6
ENDBRANCH   2   5
BRANCH   1  15
HETATM   15  C   UNL     1     -44.989 -53.371  13.525  1.00  0.00     0.025 C 
HETATM   16  C   UNL     1     -45.603 -54.758  13.817  1.00  0.00     0.038 C 
HETATM   17  C   UNL     1     -45.854 -52.720  12.427  1.00  0.00     0.038 C 
BRANCH  15  18
HETATM   18  C   UNL     1     -45.037 -52.497  14.812  1.00  0.00     0.030 C 
BRANCH  18  19
HETATM   19  C   UNL     1     -46.057 -51.350  14.766  1.00  0.00    -0.002 C 
HETATM   20  C   UNL     1     -47.174 -51.547  15.781  1.00  0.00     0.005 C 
ENDBRANCH  18  19
ENDBRANCH  15  18
ENDBRANCH   1  15
TORSDOF 5
ENDMDL
MODEL 6
REMARK VINA RESULT:      -5.0      3.890      5.832
REMARK  5 active torsions:
REMARK  status: ('A' for Active; 'I' for Inactive)
REMARK    1  A    between atoms: C_2  and  C_3 
REMARK    2  A    between atoms: C_3  and  C_4 
REMARK    3  A    between atoms: C_4  and  N_7 
REMARK       I    between atoms: N_7  and  C_8 
REMARK    4  A    between atoms: C_8  and  C_10 
REMARK    5  A    between atoms: C_10  and  N_11 
ROOT
HETATM    1  N   UNL     1     -44.027 -50.846  14.472  1.00  0.00    -0.351 N 
HETATM    2  C   UNL     1     -43.187 -51.163  13.418  1.00  0.00     0.236 C 
HETATM    3  O   UNL     1     -43.360 -52.122  12.668  1.00  0.00    -0.272 OA
HETATM    4  H   UNL     1     -43.676 -50.188  15.161  1.00  0.00     0.163 HD
ENDROOT
BRANCH   2   5
HETATM    5  C   UNL     1     -42.007 -50.205  13.220  1.00  0.00     0.235 C 
BRANCH   5   6
HETATM    6  N   UNL     1     -42.222 -49.298  12.093  1.00  0.00    -0.301 N 
HETATM    7  C   UNL     1     -43.347 -48.500  12.049  1.00  0.00     0.102 A 
HETATM    8  C   UNL     1     -43.568 -47.645  11.047  1.00  0.00     0.092 A 
HETATM    9  C   UNL     1     -42.581 -47.558   9.958  1.00  0.00     0.250 A 
HETATM   10  O   UNL     1     -42.724 -46.767   9.036  1.00  0.00    -0.268 OA
HETATM   11  N   UNL     1     -41.517 -48.406  10.054  1.00  0.00    -0.275 N 
HETATM   12  C   UNL     1     -41.282 -49.293  11.071  1.00  0.00     0.329 A 
HETATM   13  H   UNL     1     -40.834 -48.370   9.313  1.00  0.00     0.173 HD
HETATM   14  O   UNL     1     -40.292 -50.022  11.057  1.00  0.00    -0.246 OA
ENDBRANCH   5   6
ENDBRANCH   2   5
BRANCH   1  15
HETATM   15  C   UNL     1     -45.235 -51.616  14.833  1.00  0.00     0.025 C 
HETATM   16  C   UNL     1     -46.255 -51.521  13.678  1.00  0.00     0.038 C 
HETATM   17  C   UNL     1     -45.908 -51.001  16.077  1.00  0.00     0.038 C 
BRANCH  15  18
HETATM   18  C   UNL     1     -44.896 -53.109  15.109  1.00  0.00     0.030 C 
BRANCH  18  19
HETATM   19  C   UNL     1     -45.987 -54.101  14.679  1.00  0.00    -0.002 C 
HETATM   20  C   UNL     1     -45.436 -55.187  13.766  1.00  0.00     0.005 C 
ENDBRANCH  18  19
ENDBRANCH  15  18
ENDBRANCH   1  15
TORSDOF 5
ENDMDL
MODEL 7
REMARK VINA RESULT:      -5.0      4.095      5.384
REMARK  5 active torsions:
REMARK  status: ('A' for Active; 'I' for Inactive)
REMARK    1  A    between atoms: C_2  and  C_3 
REMARK    2  A    between atoms: C_3  and  C_4 
REMARK    3  A    between atoms: C_4  and  N_7 
REMARK       I    between atoms: N_7  and  C_8 
REMARK    4  A    between atoms: C_8  and  C_10 
REMARK    5  A    between atoms: C_10  and  N_11 
ROOT
HETATM    1  N   UNL     1     -41.994 -49.745  11.396  1.00  0.00    -0.351 N 
HETATM    2  C   UNL     1     -41.199 -50.576  12.167  1.00  0.00     0.236 C 
HETATM    3  O   UNL     1     -40.584 -50.205  13.164  1.00  0.00    -0.272 OA
HETATM    4  H   UNL     1     -42.265 -50.085  10.478  1.00  0.00     0.163 HD
ENDROOT
BRANCH   2   5
HETATM    5  C   UNL     1     -41.150 -52.036  11.703  1.00  0.00     0.235 C 
BRANCH   5   6
HETATM    6  N   UNL     1     -41.788 -52.937  12.662  1.00  0.00    -0.301 N 
HETATM    7  C   UNL     1     -43.162 -52.944  12.800  1.00  0.00     0.102 A 
HETATM    8  C   UNL     1     -43.782 -53.766  13.650  1.00  0.00     0.092 A 
HETATM    9  C   UNL     1     -42.973 -54.687  14.465  1.00  0.00     0.250 A 
HETATM   10  O   UNL     1     -43.499 -55.480  15.233  1.00  0.00    -0.268 OA
HETATM   11  N   UNL     1     -41.623 -54.593  14.299  1.00  0.00    -0.275 N 
HETATM   12  C   UNL     1     -40.973 -53.749  13.437  1.00  0.00     0.329 A 
HETATM   13  H   UNL     1     -41.048 -55.209  14.855  1.00  0.00     0.173 HD
HETATM   14  O   UNL     1     -39.745 -53.738  13.372  1.00  0.00    -0.246 OA
ENDBRANCH   5   6
ENDBRANCH   2   5
BRANCH   1  15
HETATM   15  C   UNL     1     -42.205 -48.308  11.669  1.00  0.00     0.025 C 
HETATM   16  C   UNL     1     -42.659 -48.138  13.135  1.00  0.00     0.038 C 
HETATM   17  C   UNL     1     -43.340 -47.757  10.782  1.00  0.00     0.038 C 
BRANCH  15  18
HETATM   18  C   UNL     1     -40.907 -47.487  11.425  1.00  0.00     0.030 C 
BRANCH  18  19
HETATM   19  C   UNL     1     -41.115 -46.185  10.636  1.00  0.00    -0.002 C 
HETATM   20  C   UNL     1     -39.828 -45.379  10.527  1.00  0.00     0.005 C 
ENDBRANCH  18  19
ENDBRANCH  15  18
ENDBRANCH   1  15
TORSDOF 5
ENDMDL
MODEL 8
REMARK VINA RESULT:      -4.9      3.208      6.658
REMARK  5 active torsions:
REMARK  status: ('A' for Active; 'I' for Inactive)
REMARK    1  A    between atoms: C_2  and  C_3 
REMARK    2  A    between atoms: C_3  and  C_4 
REMARK    3  A    between atoms: C_4  and  N_7 
REMARK       I    between atoms: N_7  and  C_8 
REMARK    4  A    between atoms: C_8  and  C_10 
REMARK    5  A    between atoms: C_10  and  N_11 
ROOT
HETATM    1  N   UNL     1     -38.928 -51.494  13.283  1.00  0.00    -0.351 N 
HETATM    2  C   UNL     1     -39.673 -52.231  14.187  1.00  0.00     0.236 C 
HETATM    3  O   UNL     1     -39.976 -51.834  15.311  1.00  0.00    -0.272 OA
HETATM    4  H   UNL     1     -38.540 -51.992  12.489  1.00  0.00     0.163 HD
ENDROOT
BRANCH   2   5
HETATM    5  C   UNL     1     -40.131 -53.603  13.681  1.00  0.00     0.235 C 
BRANCH   5   6
HETATM    6  N   UNL     1     -41.558 -53.618  13.358  1.00  0.00    -0.301 N 
HETATM    7  C   UNL     1     -42.439 -54.341  14.137  1.00  0.00     0.102 A 
HETATM    8  C   UNL     1     -43.750 -54.363  13.886  1.00  0.00     0.092 A 
HETATM    9  C   UNL     1     -44.266 -53.596  12.740  1.00  0.00     0.250 A 
HETATM   10  O   UNL     1     -45.463 -53.560  12.490  1.00  0.00    -0.268 OA
HETATM   11  N   UNL     1     -43.329 -52.940  11.997  1.00  0.00    -0.275 N 
HETATM   12  C   UNL     1     -41.981 -52.916  12.238  1.00  0.00     0.329 A 
HETATM   13  H   UNL     1     -43.660 -52.416  11.201  1.00  0.00     0.173 HD
HETATM   14  O   UNL     1     -41.219 -52.298  11.497  1.00  0.00    -0.246 OA
ENDBRANCH   5   6
ENDBRANCH   2   5
BRANCH   1  15
HETATM   15  C   UNL     1     -38.401 -50.139  13.549  1.00  0.00     0.025 C 
HETATM   16  C   UNL     1     -39.579 -49.200  13.889  1.00  0.00     0.038 C 
HETATM   17  C   UNL     1     -37.726 -49.571  12.284  1.00  0.00     0.038 C 
BRANCH  15  18
HETATM   18  C   UNL     1     -37.383 -50.146  14.725  1.00  0.00     0.030 C 
BRANCH  18  19
HETATM   19  C   UNL     1     -37.583 -49.018  15.749  1.00  0.00    -0.002 C 
HETATM   20  C   UNL     1     -36.507 -47.948  15.629  1.00  0.00     0.005 C 
ENDBRANCH  18  19
ENDBRANCH  15  18
ENDBRANCH   1  15
TORSDOF 5
ENDMDL
MODEL 9
REMARK VINA RESULT:      -4.9      3.092      5.974
REMARK  5 active torsions:
REMARK  status: ('A' for Active; 'I' for Inactive)
REMARK    1  A    between atoms: C_2  and  C_3 
REMARK    2  A    between atoms: C_3  and  C_4 
REMARK    3  A    between atoms: C_4  and  N_7 
REMARK       I    between atoms: N_7  and  C_8 
REMARK    4  A    between atoms: C_8  and  C_10 
REMARK    5  A    between atoms: C_10  and  N_11 
ROOT
HETATM    1  N   UNL     1     -39.784 -51.015  11.912  1.00  0.00    -0.351 N 
HETATM    2  C   UNL     1     -41.079 -51.248  12.341  1.00  0.00     0.236 C 
HETATM    3  O   UNL     1     -41.717 -50.471  13.048  1.00  0.00    -0.272 OA
HETATM    4  H   UNL     1     -39.271 -51.806  11.536  1.00  0.00     0.163 HD
ENDROOT
BRANCH   2   5
HETATM    5  C   UNL     1     -41.697 -52.561  11.848  1.00  0.00     0.235 C 
BRANCH   5   6
HETATM    6  N   UNL     1     -42.130 -53.412  12.956  1.00  0.00    -0.301 N 
HETATM    7  C   UNL     1     -41.219 -53.839  13.901  1.00  0.00     0.102 A 
HETATM    8  C   UNL     1     -41.580 -54.599  14.937  1.00  0.00     0.092 A 
HETATM    9  C   UNL     1     -42.992 -54.996  15.069  1.00  0.00     0.250 A 
HETATM   10  O   UNL     1     -43.375 -55.664  16.018  1.00  0.00    -0.268 OA
HETATM   11  N   UNL     1     -43.821 -54.567  14.076  1.00  0.00    -0.275 N 
HETATM   12  C   UNL     1     -43.464 -53.794  13.003  1.00  0.00     0.329 A 
HETATM   13  H   UNL     1     -44.792 -54.835  14.141  1.00  0.00     0.173 HD
HETATM   14  O   UNL     1     -44.293 -53.468  12.155  1.00  0.00    -0.246 OA
ENDBRANCH   5   6
ENDBRANCH   2   5
BRANCH   1  15
HETATM   15  C   UNL     1     -39.001 -49.807  12.247  1.00  0.00     0.025 C 
HETATM   16  C   UNL     1     -39.740 -48.564  11.704  1.00  0.00     0.038 C 
HETATM   17  C   UNL     1     -37.626 -49.850  11.550  1.00  0.00     0.038 C 
BRANCH  15  18
HETATM   18  C   UNL     1     -38.802 -49.666  13.783  1.00  0.00     0.030 C 
BRANCH  18  19
HETATM   19  C   UNL     1     -37.901 -50.741  14.411  1.00  0.00    -0.002 C 
HETATM   20  C   UNL     1     -38.678 -51.652  15.350  1.00  0.00     0.005 C 
ENDBRANCH  18  19
ENDBRANCH  15  18
ENDBRANCH   1  15
TORSDOF 5
ENDMDL
