MODEL 1
REMARK VINA RESULT:      -5.8      0.000      0.000
REMARK  5 active torsions:
REMARK  status: ('A' for Active; 'I' for Inactive)
REMARK    1  A    between atoms: C_2  and  C_3 
REMARK       I    between atoms: N_8  and  C_9 
REMARK       I    between atoms: C_9  and  N_11 
REMARK    2  A    between atoms: N_11  and  C_12 
REMARK    3  A    between atoms: C_12  and  C_13 
REMARK    4  A    between atoms: C_13  and  C_14 
REMARK    5  A    between atoms: C_18  and  C_19 
ROOT
HETATM    1  C   UNL     1     -42.653 -48.056  10.914  1.00  0.00     0.112 C 
HETATM    2  C   UNL     1     -43.082 -47.063  12.020  1.00  0.00     0.193 C 
HETATM    3  O   UNL     1     -42.293 -45.862  12.003  1.00  0.00    -0.388 OA
HETATM    4  C   UNL     1     -40.907 -46.174  12.222  1.00  0.00     0.187 C 
HETATM    5  C   UNL     1     -40.377 -47.090  11.117  1.00  0.00     0.154 C 
HETATM    6  N   UNL     1     -41.193 -48.306  11.023  1.00  0.00    -0.325 N 
HETATM    7  C   UNL     1     -40.624 -49.493  11.455  1.00  0.00     0.318 C 
HETATM    8  O   UNL     1     -39.472 -49.568  11.878  1.00  0.00    -0.247 OA
HETATM    9  N   UNL     1     -41.447 -50.581  11.408  1.00  0.00    -0.343 N 
HETATM   10  H   UNL     1     -42.105 -50.594  10.636  1.00  0.00     0.164 HD
ENDROOT
BRANCH   9  11
HETATM   11  C   UNL     1     -40.969 -51.902  11.779  1.00  0.00     0.131 C 
BRANCH  11  12
HETATM   12  C   UNL     1     -41.586 -52.395  13.085  1.00  0.00     0.084 C 
BRANCH  12  13
HETATM   13  C   UNL     1     -43.087 -52.427  13.051  1.00  0.00     0.052 A 
HETATM   14  N   UNL     1     -43.811 -53.099  12.176  1.00  0.00    -0.363 N 
HETATM   15  C   UNL     1     -45.152 -52.853  12.395  1.00  0.00     0.103 A 
ATOM     16  HN  UNL     1     -43.437 -53.707  11.447  1.00  0.00     0.165 HD
HETATM   17  C   UNL     1     -45.444 -51.988  13.430  1.00  0.00    -0.001 A 
HETATM   18  S   UNL     1     -43.984 -51.479  14.172  1.00  0.00    -0.080 SA
BRANCH  17  19
HETATM   19  C   UNL     1     -46.770 -51.491  13.905  1.00  0.00     0.043 C 
HETATM   20  C   UNL     1     -46.828 -51.379  15.420  1.00  0.00     0.010 C 
ENDBRANCH  17  19
ENDBRANCH  12  13
ENDBRANCH  11  12
ENDBRANCH   9  11
BRANCH   1  21
HETATM   21  C   UNL     1     -43.062 -47.517   9.527  1.00  0.00     0.023 C 
HETATM   22  C   UNL     1     -44.567 -47.391   9.339  1.00  0.00     0.007 C 
ENDBRANCH   1  21
TORSDOF 5
ENDMDL
MODEL 2
REMARK VINA RESULT:      -5.8      2.919      7.086
REMARK  5 active torsions:
REMARK  status: ('A' for Active; 'I' for Inactive)
REMARK    1  A    between atoms: C_2  and  C_3 
REMARK       I    between atoms: N_8  and  C_9 
REMARK       I    between atoms: C_9  and  N_11 
REMARK    2  A    between atoms: N_11  and  C_12 
REMARK    3  A    between atoms: C_12  and  C_13 
REMARK    4  A    between atoms: C_13  and  C_14 
REMARK    5  A    between atoms: C_18  and  C_19 
ROOT
HETATM    1  C   UNL     1     -44.902 -51.403  13.326  1.00  0.00     0.112 C 
HETATM    2  C   UNL     1     -45.791 -52.373  12.512  1.00  0.00     0.193 C 
HETATM    3  O   UNL     1     -45.596 -53.742  12.905  1.00  0.00    -0.388 OA
HETATM    4  C   UNL     1     -44.229 -54.132  12.691  1.00  0.00     0.187 C 
HETATM    5  C   UNL     1     -43.283 -53.271  13.531  1.00  0.00     0.154 C 
HETATM    6  N   UNL     1     -43.488 -51.848  13.239  1.00  0.00    -0.325 N 
HETATM    7  C   UNL     1     -42.494 -51.191  12.533  1.00  0.00     0.318 C 
HETATM    8  O   UNL     1     -41.454 -51.739  12.175  1.00  0.00    -0.247 OA
HETATM    9  N   UNL     1     -42.763 -49.887  12.231  1.00  0.00    -0.343 N 
HETATM   10  H   UNL     1     -43.297 -49.381  12.929  1.00  0.00     0.164 HD
ENDROOT
BRANCH   9  11
HETATM   11  C   UNL     1     -41.790 -49.059  11.540  1.00  0.00     0.131 C 
BRANCH  11  12
HETATM   12  C   UNL     1     -42.445 -47.914  10.771  1.00  0.00     0.084 C 
BRANCH  12  13
HETATM   13  C   UNL     1     -41.605 -46.669  10.744  1.00  0.00     0.052 A 
HETATM   14  N   UNL     1     -40.342 -46.615  10.369  1.00  0.00    -0.363 N 
HETATM   15  C   UNL     1     -39.864 -45.329  10.530  1.00  0.00     0.103 A 
ATOM     16  HN  UNL     1     -39.800 -47.403  10.015  1.00  0.00     0.165 HD
HETATM   17  C   UNL     1     -40.763 -44.412  11.036  1.00  0.00    -0.001 A 
HETATM   18  S   UNL     1     -42.271 -45.183  11.300  1.00  0.00    -0.080 SA
BRANCH  17  19
HETATM   19  C   UNL     1     -40.563 -42.967  11.357  1.00  0.00     0.043 C 
HETATM   20  C   UNL     1     -39.930 -42.768  12.725  1.00  0.00     0.010 C 
ENDBRANCH  17  19
ENDBRANCH  12  13
ENDBRANCH  11  12
ENDBRANCH   9  11
BRANCH   1  21
HETATM   21  C   UNL     1     -45.409 -51.312  14.781  1.00  0.00     0.023 C 
HETATM   22  C   UNL     1     -46.924 -51.381  14.907  1.00  0.00     0.007 C 
ENDBRANCH   1  21
TORSDOF 5
ENDMDL
MODEL 3
REMARK VINA RESULT:      -5.6      3.044      4.323
REMARK  5 active torsions:
REMARK  status: ('A' for Active; 'I' for Inactive)
REMARK    1  A    between atoms: C_2  and  C_3 
REMARK       I    between atoms: N_8  and  C_9 
REMARK       I    between atoms: C_9  and  N_11 
REMARK    2  A    between atoms: N_11  and  C_12 
REMARK    3  A    between atoms: C_12  and  C_13 
REMARK    4  A    between atoms: C_13  and  C_14 
REMARK    5  A    between atoms: C_18  and  C_19 
ROOT
HETATM    1  C   UNL     1     -38.430 -51.099  13.749  1.00  0.00     0.112 C 
HETATM    2  C   UNL     1     -37.224 -50.835  12.815  1.00  0.00     0.193 C 
HETATM    3  O   UNL     1     -37.370 -49.609  12.079  1.00  0.00    -0.388 OA
HETATM    4  C   UNL     1     -38.547 -49.659  11.255  1.00  0.00     0.187 C 
HETATM    5  C   UNL     1     -39.801 -49.834  12.114  1.00  0.00     0.154 C 
HETATM    6  N   UNL     1     -39.684 -51.029  12.957  1.00  0.00    -0.325 N 
HETATM    7  C   UNL     1     -40.478 -52.117  12.637  1.00  0.00     0.318 C 
HETATM    8  O   UNL     1     -41.284 -52.107  11.709  1.00  0.00    -0.247 OA
HETATM    9  N   UNL     1     -40.284 -53.225  13.411  1.00  0.00    -0.343 N 
HETATM   10  H   UNL     1     -40.056 -53.040  14.382  1.00  0.00     0.164 HD
ENDROOT
BRANCH   9  11
HETATM   11  C   UNL     1     -41.084 -54.423  13.225  1.00  0.00     0.131 C 
BRANCH  11  12
HETATM   12  C   UNL     1     -42.240 -54.508  14.218  1.00  0.00     0.084 C 
BRANCH  12  13
HETATM   13  C   UNL     1     -43.471 -53.788  13.749  1.00  0.00     0.052 A 
HETATM   14  N   UNL     1     -43.891 -53.740  12.500  1.00  0.00    -0.363 N 
HETATM   15  C   UNL     1     -45.015 -52.941  12.417  1.00  0.00     0.103 A 
ATOM     16  HN  UNL     1     -43.453 -54.220  11.713  1.00  0.00     0.165 HD
HETATM   17  C   UNL     1     -45.439 -52.375  13.602  1.00  0.00    -0.001 A 
HETATM   18  S   UNL     1     -44.406 -52.880  14.873  1.00  0.00    -0.080 SA
BRANCH  17  19
HETATM   19  C   UNL     1     -46.583 -51.447  13.853  1.00  0.00     0.043 C 
HETATM   20  C   UNL     1     -47.021 -51.464  15.309  1.00  0.00     0.010 C 
ENDBRANCH  17  19
ENDBRANCH  12  13
ENDBRANCH  11  12
ENDBRANCH   9  11
BRANCH   1  21
HETATM   21  C   UNL     1     -38.415 -50.104  14.929  1.00  0.00     0.023 C 
HETATM   22  C   UNL     1     -37.041 -49.919  15.557  1.00  0.00     0.007 C 
ENDBRANCH   1  21
TORSDOF 5
ENDMDL
MODEL 4
REMARK VINA RESULT:      -5.3      2.369      3.696
REMARK  5 active torsions:
REMARK  status: ('A' for Active; 'I' for Inactive)
REMARK    1  A    between atoms: C_2  and  C_3 
REMARK       I    between atoms: N_8  and  C_9 
REMARK       I    between atoms: C_9  and  N_11 
REMARK    2  A    between atoms: N_11  and  C_12 
REMARK    3  A    between atoms: C_12  and  C_13 
REMARK    4  A    between atoms: C_13  and  C_14 
REMARK    5  A    between atoms: C_18  and  C_19 
ROOT
HETATM    1  C   UNL     1     -40.024 -45.766  11.787  1.00  0.00     0.112 C 
HETATM    2  C   UNL     1     -40.218 -44.804  10.591  1.00  0.00     0.193 C 
HETATM    3  O   UNL     1     -41.583 -44.373  10.460  1.00  0.00    -0.388 OA
HETATM    4  C   UNL     1     -42.444 -45.503  10.244  1.00  0.00     0.187 C 
HETATM    5  C   UNL     1     -42.376 -46.470  11.429  1.00  0.00     0.154 C 
HETATM    6  N   UNL     1     -40.991 -46.888  11.672  1.00  0.00    -0.325 N 
HETATM    7  C   UNL     1     -40.653 -48.194  11.357  1.00  0.00     0.318 C 
HETATM    8  O   UNL     1     -41.463 -49.008  10.919  1.00  0.00    -0.247 OA
HETATM    9  N   UNL     1     -39.338 -48.512  11.540  1.00  0.00    -0.343 N 
HETATM   10  H   UNL     1     -38.886 -48.054  12.324  1.00  0.00     0.164 HD
ENDROOT
BRANCH   9  11
HETATM   11  C   UNL     1     -38.850 -49.860  11.302  1.00  0.00     0.131 C 
BRANCH  11  12
HETATM   12  C   UNL     1     -38.888 -50.721  12.562  1.00  0.00     0.084 C 
BRANCH  12  13
HETATM   13  C   UNL     1     -40.050 -51.672  12.588  1.00  0.00     0.052 A 
HETATM   14  N   UNL     1     -40.950 -51.796  11.632  1.00  0.00    -0.363 N 
HETATM   15  C   UNL     1     -41.910 -52.712  12.012  1.00  0.00     0.103 A 
ATOM     16  HN  UNL     1     -40.938 -51.291  10.745  1.00  0.00     0.165 HD
HETATM   17  C   UNL     1     -41.744 -53.274  13.262  1.00  0.00    -0.001 A 
HETATM   18  S   UNL     1     -40.318 -52.650  13.979  1.00  0.00    -0.080 SA
BRANCH  17  19
HETATM   19  C   UNL     1     -42.606 -54.260  13.980  1.00  0.00     0.043 C 
HETATM   20  C   UNL     1     -44.048 -54.215  13.499  1.00  0.00     0.010 C 
ENDBRANCH  17  19
ENDBRANCH  12  13
ENDBRANCH  11  12
ENDBRANCH   9  11
BRANCH   1  21
HETATM   21  C   UNL     1     -40.163 -44.995  13.117  1.00  0.00     0.023 C 
HETATM   22  C   UNL     1     -39.010 -45.228  14.082  1.00  0.00     0.007 C 
ENDBRANCH   1  21
TORSDOF 5
ENDMDL
MODEL 5
REMARK VINA RESULT:      -5.3      2.976      6.770
REMARK  5 active torsions:
REMARK  status: ('A' for Active; 'I' for Inactive)
REMARK    1  A    between atoms: C_2  and  C_3 
REMARK       I    between atoms: N_8  and  C_9 
REMARK       I    between atoms: C_9  and  N_11 
REMARK    2  A    between atoms: N_11  and  C_12 
REMARK    3  A    between atoms: C_12  and  C_13 
REMARK    4  A    between atoms: C_13  and  C_14 
REMARK    5  A    between atoms: C_18  and  C_19 
ROOT
HETATM    1  C   UNL     1     -44.737 -52.285  13.981  1.00  0.00     0.112 C 
HETATM    2  C   UNL     1     -45.965 -52.963  13.328  1.00  0.00     0.193 C 
HETATM    3  O   UNL     1     -46.305 -54.201  13.974  1.00  0.00    -0.388 OA
HETATM    4  C   UNL     1     -45.208 -55.126  13.887  1.00  0.00     0.187 C 
HETATM    5  C   UNL     1     -43.969 -54.564  14.588  1.00  0.00     0.154 C 
HETATM    6  N   UNL     1     -43.614 -53.254  14.030  1.00  0.00    -0.325 N 
HETATM    7  C   UNL     1     -42.471 -53.180  13.252  1.00  0.00     0.318 C 
HETATM    8  O   UNL     1     -41.741 -54.146  13.039  1.00  0.00    -0.247 OA
HETATM    9  N   UNL     1     -42.221 -51.954  12.704  1.00  0.00    -0.343 N 
HETATM   10  H   UNL     1     -42.488 -51.161  13.277  1.00  0.00     0.164 HD
ENDROOT
BRANCH   9  11
HETATM   11  C   UNL     1     -41.029 -51.714  11.908  1.00  0.00     0.131 C 
BRANCH  11  12
HETATM   12  C   UNL     1     -40.301 -50.440  12.326  1.00  0.00     0.084 C 
BRANCH  12  13
HETATM   13  C   UNL     1     -40.825 -49.211  11.640  1.00  0.00     0.052 A 
HETATM   14  N   UNL     1     -41.847 -49.187  10.806  1.00  0.00    -0.363 N 
HETATM   15  C   UNL     1     -42.014 -47.908  10.313  1.00  0.00     0.103 A 
ATOM     16  HN  UNL     1     -42.425 -49.991  10.562  1.00  0.00     0.165 HD
HETATM   17  C   UNL     1     -41.113 -46.966  10.765  1.00  0.00    -0.001 A 
HETATM   18  S   UNL     1     -40.028 -47.704  11.869  1.00  0.00    -0.080 SA
BRANCH  17  19
HETATM   19  C   UNL     1     -40.996 -45.520  10.411  1.00  0.00     0.043 C 
HETATM   20  C   UNL     1     -39.671 -44.927  10.863  1.00  0.00     0.010 C 
ENDBRANCH  17  19
ENDBRANCH  12  13
ENDBRANCH  11  12
ENDBRANCH   9  11
BRANCH   1  21
HETATM   21  C   UNL     1     -45.111 -51.736  15.375  1.00  0.00     0.023 C 
HETATM   22  C   UNL     1     -46.557 -51.273  15.482  1.00  0.00     0.007 C 
ENDBRANCH   1  21
TORSDOF 5
ENDMDL
MODEL 6
REMARK VINA RESULT:      -5.3      1.882      2.356
REMARK  5 active torsions:
REMARK  status: ('A' for Active; 'I' for Inactive)
REMARK    1  A    between atoms: C_2  and  C_3 
REMARK       I    between atoms: N_8  and  C_9 
REMARK       I    between atoms: C_9  and  N_11 
REMARK    2  A    between atoms: N_11  and  C_12 
REMARK    3  A    between atoms: C_12  and  C_13 
REMARK    4  A    between atoms: C_13  and  C_14 
REMARK    5  A    between atoms: C_18  and  C_19 
ROOT
HETATM    1  C   UNL     1     -40.795 -48.861  12.943  1.00  0.00     0.112 C 
HETATM    2  C   UNL     1     -40.621 -48.191  14.327  1.00  0.00     0.193 C 
HETATM    3  O   UNL     1     -39.398 -47.441  14.414  1.00  0.00    -0.388 OA
HETATM    4  C   UNL     1     -38.268 -48.306  14.211  1.00  0.00     0.187 C 
HETATM    5  C   UNL     1     -38.319 -48.947  12.822  1.00  0.00     0.154 C 
HETATM    6  N   UNL     1     -39.585 -49.664  12.634  1.00  0.00    -0.325 N 
HETATM    7  C   UNL     1     -39.539 -51.048  12.614  1.00  0.00     0.318 C 
HETATM    8  O   UNL     1     -38.492 -51.684  12.717  1.00  0.00    -0.247 OA
HETATM    9  N   UNL     1     -40.750 -51.667  12.503  1.00  0.00    -0.343 N 
HETATM   10  H   UNL     1     -41.434 -51.182  11.932  1.00  0.00     0.164 HD
ENDROOT
BRANCH   9  11
HETATM   11  C   UNL     1     -40.851 -53.114  12.416  1.00  0.00     0.131 C 
BRANCH  11  12
HETATM   12  C   UNL     1     -41.770 -53.697  13.486  1.00  0.00     0.084 C 
BRANCH  12  13
HETATM   13  C   UNL     1     -43.204 -53.285  13.316  1.00  0.00     0.052 A 
HETATM   14  N   UNL     1     -43.950 -53.555  12.262  1.00  0.00    -0.363 N 
HETATM   15  C   UNL     1     -45.193 -52.973  12.411  1.00  0.00     0.103 A 
ATOM     16  HN  UNL     1     -43.653 -54.110  11.459  1.00  0.00     0.165 HD
HETATM   17  C   UNL     1     -45.385 -52.253  13.573  1.00  0.00    -0.001 A 
HETATM   18  S   UNL     1     -43.963 -52.327  14.527  1.00  0.00    -0.080 SA
BRANCH  17  19
HETATM   19  C   UNL     1     -46.584 -51.483  14.024  1.00  0.00     0.043 C 
HETATM   20  C   UNL     1     -46.652 -51.370  15.539  1.00  0.00     0.010 C 
ENDBRANCH  17  19
ENDBRANCH  12  13
ENDBRANCH  11  12
ENDBRANCH   9  11
BRANCH   1  21
HETATM   21  C   UNL     1     -41.090 -47.792  11.869  1.00  0.00     0.023 C 
HETATM   22  C   UNL     1     -41.619 -48.366  10.563  1.00  0.00     0.007 C 
ENDBRANCH   1  21
TORSDOF 5
ENDMDL
MODEL 7
REMARK VINA RESULT:      -5.2      2.819      5.376
REMARK  5 active torsions:
REMARK  status: ('A' for Active; 'I' for Inactive)
REMARK    1  A    between atoms: C_2  and  C_3 
REMARK       I    between atoms: N_8  and  C_9 
REMARK       I    between atoms: C_9  and  N_11 
REMARK    2  A    between atoms: N_11  and  C_12 
REMARK    3  A    between atoms: C_12  and  C_13 
REMARK    4  A    between atoms: C_13  and  C_14 
REMARK    5  A    between atoms: C_18  and  C_19 
ROOT
HETATM    1  C   UNL     1     -44.926 -51.730  13.341  1.00  0.00     0.112 C 
HETATM    2  C   UNL     1     -44.557 -53.086  13.989  1.00  0.00     0.193 C 
HETATM    3  O   UNL     1     -44.913 -53.134  15.381  1.00  0.00    -0.388 OA
HETATM    4  C   UNL     1     -44.217 -52.108  16.109  1.00  0.00     0.187 C 
HETATM    5  C   UNL     1     -44.594 -50.721  15.583  1.00  0.00     0.154 C 
HETATM    6  N   UNL     1     -44.332 -50.630  14.142  1.00  0.00    -0.325 N 
HETATM    7  C   UNL     1     -43.271 -49.838  13.734  1.00  0.00     0.318 C 
HETATM    8  O   UNL     1     -42.573 -49.199  14.519  1.00  0.00    -0.247 OA
HETATM    9  N   UNL     1     -43.030 -49.840  12.390  1.00  0.00    -0.343 N 
HETATM   10  H   UNL     1     -43.853 -49.914  11.802  1.00  0.00     0.164 HD
ENDROOT
BRANCH   9  11
HETATM   11  C   UNL     1     -41.982 -49.015  11.813  1.00  0.00     0.131 C 
BRANCH  11  12
HETATM   12  C   UNL     1     -40.842 -49.847  11.235  1.00  0.00     0.084 C 
BRANCH  12  13
HETATM   13  C   UNL     1     -40.719 -51.200  11.875  1.00  0.00     0.052 A 
HETATM   14  N   UNL     1     -41.281 -52.305  11.425  1.00  0.00    -0.363 N 
HETATM   15  C   UNL     1     -41.014 -53.348  12.291  1.00  0.00     0.103 A 
ATOM     16  HN  UNL     1     -41.830 -52.379  10.569  1.00  0.00     0.165 HD
HETATM   17  C   UNL     1     -40.259 -53.031  13.401  1.00  0.00    -0.001 A 
HETATM   18  S   UNL     1     -39.846 -51.367  13.349  1.00  0.00    -0.080 SA
BRANCH  17  19
HETATM   19  C   UNL     1     -39.825 -53.903  14.533  1.00  0.00     0.043 C 
HETATM   20  C   UNL     1     -41.005 -54.549  15.241  1.00  0.00     0.010 C 
ENDBRANCH  17  19
ENDBRANCH  12  13
ENDBRANCH  11  12
ENDBRANCH   9  11
BRANCH   1  21
HETATM   21  C   UNL     1     -46.458 -51.606  13.204  1.00  0.00     0.023 C 
HETATM   22  C   UNL     1     -46.955 -51.720  11.770  1.00  0.00     0.007 C 
ENDBRANCH   1  21
TORSDOF 5
ENDMDL
MODEL 8
REMARK VINA RESULT:      -5.1      2.854      6.166
REMARK  5 active torsions:
REMARK  status: ('A' for Active; 'I' for Inactive)
REMARK    1  A    between atoms: C_2  and  C_3 
REMARK       I    between atoms: N_8  and  C_9 
REMARK       I    between atoms: C_9  and  N_11 
REMARK    2  A    between atoms: N_11  and  C_12 
REMARK    3  A    between atoms: C_12  and  C_13 
REMARK    4  A    between atoms: C_13  and  C_14 
REMARK    5  A    between atoms: C_18  and  C_19 
ROOT
HETATM    1  C   UNL     1     -44.127 -52.033  12.917  1.00  0.00     0.112 C 
HETATM    2  C   UNL     1     -43.049 -53.121  13.138  1.00  0.00     0.193 C 
HETATM    3  O   UNL     1     -42.960 -53.522  14.515  1.00  0.00    -0.388 OA
HETATM    4  C   UNL     1     -42.608 -52.398  15.339  1.00  0.00     0.187 C 
HETATM    5  C   UNL     1     -43.674 -51.303  15.244  1.00  0.00     0.154 C 
HETATM    6  N   UNL     1     -43.876 -50.903  13.847  1.00  0.00    -0.325 N 
HETATM    7  C   UNL     1     -43.415 -49.654  13.467  1.00  0.00     0.318 C 
HETATM    8  O   UNL     1     -42.880 -48.871  14.249  1.00  0.00    -0.247 OA
HETATM    9  N   UNL     1     -43.569 -49.357  12.143  1.00  0.00    -0.343 N 
HETATM   10  H   UNL     1     -44.404 -49.735  11.708  1.00  0.00     0.164 HD
ENDROOT
BRANCH   9  11
HETATM   11  C   UNL     1     -43.180 -48.062  11.612  1.00  0.00     0.131 C 
BRANCH  11  12
HETATM   12  C   UNL     1     -42.108 -48.178  10.532  1.00  0.00     0.084 C 
BRANCH  12  13
HETATM   13  C   UNL     1     -40.823 -48.766  11.040  1.00  0.00     0.052 A 
HETATM   14  N   UNL     1     -40.367 -49.966  10.737  1.00  0.00    -0.363 N 
HETATM   15  C   UNL     1     -39.196 -50.207  11.428  1.00  0.00     0.103 A 
ATOM     16  HN  UNL     1     -40.812 -50.618  10.091  1.00  0.00     0.165 HD
HETATM   17  C   UNL     1     -38.770 -49.193  12.262  1.00  0.00    -0.001 A 
HETATM   18  S   UNL     1     -39.865 -47.878  12.160  1.00  0.00    -0.080 SA
BRANCH  17  19
HETATM   19  C   UNL     1     -37.579 -49.144  13.163  1.00  0.00     0.043 C 
HETATM   20  C   UNL     1     -37.890 -48.455  14.482  1.00  0.00     0.010 C 
ENDBRANCH  17  19
ENDBRANCH  12  13
ENDBRANCH  11  12
ENDBRANCH   9  11
BRANCH   1  21
HETATM   21  C   UNL     1     -45.536 -52.640  13.085  1.00  0.00     0.023 C 
HETATM   22  C   UNL     1     -46.604 -51.947  12.252  1.00  0.00     0.007 C 
ENDBRANCH   1  21
TORSDOF 5
ENDMDL
MODEL 9
REMARK VINA RESULT:      -4.9      3.541      4.343
REMARK  5 active torsions:
REMARK  status: ('A' for Active; 'I' for Inactive)
REMARK    1  A    between atoms: C_2  and  C_3 
REMARK       I    between atoms: N_8  and  C_9 
REMARK       I    between atoms: C_9  and  N_11 
REMARK    2  A    between atoms: N_11  and  C_12 
REMARK    3  A    between atoms: C_12  and  C_13 
REMARK    4  A    between atoms: C_13  and  C_14 
REMARK    5  A    between atoms: C_18  and  C_19 
ROOT
HETATM    1  C   UNL     1     -38.633 -50.785  12.872  1.00  0.00     0.112 C 
HETATM    2  C   UNL     1     -39.202 -49.350  12.978  1.00  0.00     0.193 C 
HETATM    3  O   UNL     1     -38.417 -48.521  13.850  1.00  0.00    -0.388 OA
HETATM    4  C   UNL     1     -38.396 -49.072  15.177  1.00  0.00     0.187 C 
HETATM    5  C   UNL     1     -37.765 -50.467  15.174  1.00  0.00     0.154 C 
HETATM    6  N   UNL     1     -38.471 -51.347  14.236  1.00  0.00    -0.325 N 
HETATM    7  C   UNL     1     -39.252 -52.357  14.773  1.00  0.00     0.318 C 
HETATM    8  O   UNL     1     -39.350 -52.556  15.983  1.00  0.00    -0.247 OA
HETATM    9  N   UNL     1     -39.939 -53.106  13.861  1.00  0.00    -0.343 N 
HETATM   10  H   UNL     1     -39.462 -53.259  12.979  1.00  0.00     0.164 HD
ENDROOT
BRANCH   9  11
HETATM   11  C   UNL     1     -40.757 -54.233  14.276  1.00  0.00     0.131 C 
BRANCH  11  12
HETATM   12  C   UNL     1     -42.092 -54.282  13.538  1.00  0.00     0.084 C 
BRANCH  12  13
HETATM   13  C   UNL     1     -43.132 -53.384  14.144  1.00  0.00     0.052 A 
HETATM   14  N   UNL     1     -43.158 -52.997  15.404  1.00  0.00    -0.363 N 
HETATM   15  C   UNL     1     -44.284 -52.231  15.633  1.00  0.00     0.103 A 
ATOM     16  HN  UNL     1     -42.453 -53.227  16.104  1.00  0.00     0.165 HD
HETATM   17  C   UNL     1     -45.117 -52.048  14.548  1.00  0.00    -0.001 A 
HETATM   18  S   UNL     1     -44.454 -52.844  13.183  1.00  0.00    -0.080 SA
BRANCH  17  19
HETATM   19  C   UNL     1     -46.414 -51.312  14.463  1.00  0.00     0.043 C 
HETATM   20  C   UNL     1     -47.311 -51.594  15.658  1.00  0.00     0.010 C 
ENDBRANCH  17  19
ENDBRANCH  12  13
ENDBRANCH  11  12
ENDBRANCH   9  11
BRANCH   1  21
HETATM   21  C   UNL     1     -37.312 -50.775  12.072  1.00  0.00     0.023 C 
HETATM   22  C   UNL     1     -37.338 -49.856  10.859  1.00  0.00     0.007 C 
ENDBRANCH   1  21
TORSDOF 5
ENDMDL
