MODEL 1
REMARK VINA RESULT:      -5.9      0.000      0.000
REMARK  4 active torsions:
REMARK  status: ('A' for Active; 'I' for Inactive)
REMARK    1  A    between atoms: C_4  and  C_8 
REMARK       I    between atoms: C_8  and  N_10 
REMARK    2  A    between atoms: N_10  and  C_11 
REMARK    3  A    between atoms: C_11  and  C_12 
REMARK    4  A    between atoms: C_12  and  C_13 
ROOT
HETATM    1  C   UNL     1     -42.610 -52.209  12.858  1.00  0.00     0.223 C 
HETATM    2  O   UNL     1     -42.111 -52.337  13.975  1.00  0.00    -0.273 OA
HETATM    3  N   UNL     1     -42.050 -51.375  11.912  1.00  0.00    -0.360 N 
HETATM    4  H   UNL     1     -42.373 -51.417  10.952  1.00  0.00     0.162 HD
ENDROOT
BRANCH   3   5
HETATM    5  C   UNL     1     -40.763 -50.759  12.205  1.00  0.00     0.128 C 
BRANCH   5   6
HETATM    6  C   UNL     1     -40.288 -49.767  11.146  1.00  0.00     0.077 C 
BRANCH   6   7
HETATM    7  C   UNL     1     -41.300 -48.688  10.925  1.00  0.00     0.018 A 
HETATM    8  C   UNL     1     -41.701 -47.733  11.839  1.00  0.00     0.076 A 
HETATM    9  S   UNL     1     -42.845 -46.677  11.126  1.00  0.00    -0.087 SA
HETATM   10  C   UNL     1     -42.732 -47.563   9.658  1.00  0.00     0.046 A 
HETATM   11  C   UNL     1     -43.530 -47.160   8.468  1.00  0.00     0.076 C 
HETATM   12  N   UNL     1     -41.900 -48.583   9.680  1.00  0.00    -0.357 N 
ATOM     13  HN  UNL     1     -41.723 -49.207   8.893  1.00  0.00     0.166 HD
ENDBRANCH   6   7
ENDBRANCH   5   6
ENDBRANCH   3   5
BRANCH   1  14
HETATM   14  C   UNL     1     -43.918 -52.876  12.468  1.00  0.00     0.104 C 
HETATM   15  C   UNL     1     -45.089 -52.208  13.184  1.00  0.00     0.139 C 
HETATM   16  N   UNL     1     -45.904 -53.277  13.696  1.00  0.00    -0.356 N 
HETATM   17  C   UNL     1     -46.939 -53.031  14.671  1.00  0.00     0.152 C 
HETATM   18  C   UNL     1     -45.308 -54.517  13.568  1.00  0.00     0.220 C 
HETATM   19  C   UNL     1     -43.995 -54.353  12.852  1.00  0.00     0.118 C 
HETATM   20  O   UNL     1     -45.742 -55.573  13.994  1.00  0.00    -0.273 OA
ENDBRANCH   1  14
TORSDOF 4
ENDMDL
MODEL 2
REMARK VINA RESULT:      -5.8      1.800      2.199
REMARK  4 active torsions:
REMARK  status: ('A' for Active; 'I' for Inactive)
REMARK    1  A    between atoms: C_4  and  C_8 
REMARK       I    between atoms: C_8  and  N_10 
REMARK    2  A    between atoms: N_10  and  C_11 
REMARK    3  A    between atoms: C_11  and  C_12 
REMARK    4  A    between atoms: C_12  and  C_13 
ROOT
HETATM    1  C   UNL     1     -41.669 -51.788  12.840  1.00  0.00     0.223 C 
HETATM    2  O   UNL     1     -40.920 -51.431  13.748  1.00  0.00    -0.273 OA
HETATM    3  N   UNL     1     -42.151 -50.890  11.910  1.00  0.00    -0.360 N 
HETATM    4  H   UNL     1     -42.620 -51.232  11.079  1.00  0.00     0.162 HD
ENDROOT
BRANCH   3   5
HETATM    5  C   UNL     1     -41.635 -49.527  11.929  1.00  0.00     0.128 C 
BRANCH   5   6
HETATM    6  C   UNL     1     -42.703 -48.456  12.133  1.00  0.00     0.077 C 
BRANCH   6   7
HETATM    7  C   UNL     1     -43.254 -47.987  10.824  1.00  0.00     0.018 A 
HETATM    8  C   UNL     1     -42.541 -47.754   9.664  1.00  0.00     0.076 A 
HETATM    9  S   UNL     1     -43.599 -47.274   8.406  1.00  0.00    -0.087 SA
HETATM   10  C   UNL     1     -44.928 -47.405   9.489  1.00  0.00     0.046 A 
HETATM   11  C   UNL     1     -46.312 -47.114   9.025  1.00  0.00     0.076 C 
HETATM   12  N   UNL     1     -44.620 -47.780  10.712  1.00  0.00    -0.357 N 
ATOM     13  HN  UNL     1     -45.292 -47.901  11.470  1.00  0.00     0.166 HD
ENDBRANCH   6   7
ENDBRANCH   5   6
ENDBRANCH   3   5
BRANCH   1  14
HETATM   14  C   UNL     1     -42.192 -53.210  12.727  1.00  0.00     0.104 C 
HETATM   15  C   UNL     1     -43.713 -53.208  12.598  1.00  0.00     0.139 C 
HETATM   16  N   UNL     1     -44.190 -54.216  13.507  1.00  0.00    -0.356 N 
HETATM   17  C   UNL     1     -45.584 -54.301  13.869  1.00  0.00     0.152 C 
HETATM   18  C   UNL     1     -43.196 -54.715  14.327  1.00  0.00     0.220 C 
HETATM   19  C   UNL     1     -41.887 -54.078  13.947  1.00  0.00     0.118 C 
HETATM   20  O   UNL     1     -43.344 -55.512  15.237  1.00  0.00    -0.273 OA
ENDBRANCH   1  14
TORSDOF 4
ENDMDL
MODEL 3
REMARK VINA RESULT:      -5.8      3.293      6.948
REMARK  4 active torsions:
REMARK  status: ('A' for Active; 'I' for Inactive)
REMARK    1  A    between atoms: C_4  and  C_8 
REMARK       I    between atoms: C_8  and  N_10 
REMARK    2  A    between atoms: N_10  and  C_11 
REMARK    3  A    between atoms: C_11  and  C_12 
REMARK    4  A    between atoms: C_12  and  C_13 
ROOT
HETATM    1  C   UNL     1     -42.009 -49.123  11.453  1.00  0.00     0.223 C 
HETATM    2  O   UNL     1     -42.930 -48.988  12.257  1.00  0.00    -0.273 OA
HETATM    3  N   UNL     1     -41.119 -50.172  11.549  1.00  0.00    -0.360 N 
HETATM    4  H   UNL     1     -40.480 -50.360  10.784  1.00  0.00     0.162 HD
ENDROOT
BRANCH   3   5
HETATM    5  C   UNL     1     -41.377 -51.214  12.534  1.00  0.00     0.128 C 
BRANCH   5   6
HETATM    6  C   UNL     1     -41.939 -52.506  11.947  1.00  0.00     0.077 C 
BRANCH   6   7
HETATM    7  C   UNL     1     -43.273 -52.833  12.540  1.00  0.00     0.018 A 
HETATM    8  C   UNL     1     -43.685 -54.061  13.017  1.00  0.00     0.076 A 
HETATM    9  S   UNL     1     -45.274 -53.949  13.646  1.00  0.00    -0.087 SA
HETATM   10  C   UNL     1     -45.305 -52.280  13.236  1.00  0.00     0.046 A 
HETATM   11  C   UNL     1     -46.505 -51.451  13.534  1.00  0.00     0.076 C 
HETATM   12  N   UNL     1     -44.211 -51.820  12.667  1.00  0.00    -0.357 N 
ATOM     13  HN  UNL     1     -44.074 -50.857  12.363  1.00  0.00     0.166 HD
ENDBRANCH   6   7
ENDBRANCH   5   6
ENDBRANCH   3   5
BRANCH   1  14
HETATM   14  C   UNL     1     -41.725 -48.105  10.362  1.00  0.00     0.104 C 
HETATM   15  C   UNL     1     -40.919 -46.936  10.923  1.00  0.00     0.139 C 
HETATM   16  N   UNL     1     -41.550 -45.743  10.424  1.00  0.00    -0.356 N 
HETATM   17  C   UNL     1     -41.242 -44.445  10.973  1.00  0.00     0.152 C 
HETATM   18  C   UNL     1     -42.750 -45.995   9.787  1.00  0.00     0.220 C 
HETATM   19  C   UNL     1     -42.982 -47.481   9.758  1.00  0.00     0.118 C 
HETATM   20  O   UNL     1     -43.523 -45.161   9.349  1.00  0.00    -0.273 OA
ENDBRANCH   1  14
TORSDOF 4
ENDMDL
MODEL 4
REMARK VINA RESULT:      -5.4      3.322      3.838
REMARK  4 active torsions:
REMARK  status: ('A' for Active; 'I' for Inactive)
REMARK    1  A    between atoms: C_4  and  C_8 
REMARK       I    between atoms: C_8  and  N_10 
REMARK    2  A    between atoms: N_10  and  C_11 
REMARK    3  A    between atoms: C_11  and  C_12 
REMARK    4  A    between atoms: C_12  and  C_13 
ROOT
HETATM    1  C   UNL     1     -42.880 -53.041  12.527  1.00  0.00     0.223 C 
HETATM    2  O   UNL     1     -42.404 -51.968  12.156  1.00  0.00    -0.273 OA
HETATM    3  N   UNL     1     -42.073 -54.096  12.899  1.00  0.00    -0.360 N 
HETATM    4  H   UNL     1     -42.481 -54.900  13.361  1.00  0.00     0.162 HD
ENDROOT
BRANCH   3   5
HETATM    5  C   UNL     1     -40.637 -53.871  12.993  1.00  0.00     0.128 C 
BRANCH   5   6
HETATM    6  C   UNL     1     -40.179 -53.298  14.331  1.00  0.00     0.077 C 
BRANCH   6   7
HETATM    7  C   UNL     1     -39.352 -52.067  14.136  1.00  0.00     0.018 A 
HETATM    8  C   UNL     1     -38.544 -51.457  15.077  1.00  0.00     0.076 A 
HETATM    9  S   UNL     1     -37.753 -50.103  14.388  1.00  0.00    -0.087 SA
HETATM   10  C   UNL     1     -38.540 -50.418  12.893  1.00  0.00     0.046 A 
HETATM   11  C   UNL     1     -38.289 -49.550  11.710  1.00  0.00     0.076 C 
HETATM   12  N   UNL     1     -39.343 -51.460  12.890  1.00  0.00    -0.357 N 
ATOM     13  HN  UNL     1     -39.884 -51.776  12.085  1.00  0.00     0.166 HD
ENDBRANCH   6   7
ENDBRANCH   5   6
ENDBRANCH   3   5
BRANCH   1  14
HETATM   14  C   UNL     1     -44.374 -53.316  12.513  1.00  0.00     0.104 C 
HETATM   15  C   UNL     1     -45.135 -52.146  13.131  1.00  0.00     0.139 C 
HETATM   16  N   UNL     1     -46.094 -52.728  14.033  1.00  0.00    -0.356 N 
HETATM   17  C   UNL     1     -46.793 -51.924  15.006  1.00  0.00     0.152 C 
HETATM   18  C   UNL     1     -45.910 -54.085  14.211  1.00  0.00     0.220 C 
HETATM   19  C   UNL     1     -44.782 -54.544  13.327  1.00  0.00     0.118 C 
HETATM   20  O   UNL     1     -46.526 -54.802  14.981  1.00  0.00    -0.273 OA
ENDBRANCH   1  14
TORSDOF 4
ENDMDL
MODEL 5
REMARK VINA RESULT:      -5.4      1.916      2.260
REMARK  4 active torsions:
REMARK  status: ('A' for Active; 'I' for Inactive)
REMARK    1  A    between atoms: C_4  and  C_8 
REMARK       I    between atoms: C_8  and  N_10 
REMARK    2  A    between atoms: N_10  and  C_11 
REMARK    3  A    between atoms: C_11  and  C_12 
REMARK    4  A    between atoms: C_12  and  C_13 
ROOT
HETATM    1  C   UNL     1     -42.372 -51.597  12.955  1.00  0.00     0.223 C 
HETATM    2  O   UNL     1     -42.639 -50.992  13.992  1.00  0.00    -0.273 OA
HETATM    3  N   UNL     1     -41.865 -50.944  11.851  1.00  0.00    -0.360 N 
HETATM    4  H   UNL     1     -41.493 -51.482  11.077  1.00  0.00     0.162 HD
ENDROOT
BRANCH   3   5
HETATM    5  C   UNL     1     -41.503 -49.539  11.982  1.00  0.00     0.128 C 
BRANCH   5   6
HETATM    6  C   UNL     1     -42.379 -48.588  11.170  1.00  0.00     0.077 C 
BRANCH   6   7
HETATM    7  C   UNL     1     -41.866 -47.185  11.245  1.00  0.00     0.018 A 
HETATM    8  C   UNL     1     -42.303 -46.190  12.097  1.00  0.00     0.076 A 
HETATM    9  S   UNL     1     -41.391 -44.761  11.856  1.00  0.00    -0.087 SA
HETATM   10  C   UNL     1     -40.484 -45.561  10.634  1.00  0.00     0.046 A 
HETATM   11  C   UNL     1     -39.391 -44.849   9.917  1.00  0.00     0.076 C 
HETATM   12  N   UNL     1     -40.825 -46.811  10.408  1.00  0.00    -0.357 N 
ATOM     13  HN  UNL     1     -40.387 -47.418   9.716  1.00  0.00     0.166 HD
ENDBRANCH   6   7
ENDBRANCH   5   6
ENDBRANCH   3   5
BRANCH   1  14
HETATM   14  C   UNL     1     -42.666 -53.077  12.777  1.00  0.00     0.104 C 
HETATM   15  C   UNL     1     -44.173 -53.322  12.770  1.00  0.00     0.139 C 
HETATM   16  N   UNL     1     -44.396 -54.450  13.636  1.00  0.00    -0.356 N 
HETATM   17  C   UNL     1     -45.719 -54.789  14.100  1.00  0.00     0.152 C 
HETATM   18  C   UNL     1     -43.264 -54.824  14.334  1.00  0.00     0.220 C 
HETATM   19  C   UNL     1     -42.115 -53.954  13.901  1.00  0.00     0.118 C 
HETATM   20  O   UNL     1     -43.198 -55.688  15.192  1.00  0.00    -0.273 OA
ENDBRANCH   1  14
TORSDOF 4
ENDMDL
MODEL 6
REMARK VINA RESULT:      -5.2      2.972      4.153
REMARK  4 active torsions:
REMARK  status: ('A' for Active; 'I' for Inactive)
REMARK    1  A    between atoms: C_4  and  C_8 
REMARK       I    between atoms: C_8  and  N_10 
REMARK    2  A    between atoms: N_10  and  C_11 
REMARK    3  A    between atoms: C_11  and  C_12 
REMARK    4  A    between atoms: C_12  and  C_13 
ROOT
HETATM    1  C   UNL     1     -42.912 -53.151  12.757  1.00  0.00     0.223 C 
HETATM    2  O   UNL     1     -42.250 -53.434  13.755  1.00  0.00    -0.273 OA
HETATM    3  N   UNL     1     -42.348 -52.493  11.683  1.00  0.00    -0.360 N 
HETATM    4  H   UNL     1     -42.861 -52.426  10.812  1.00  0.00     0.162 HD
ENDROOT
BRANCH   3   5
HETATM    5  C   UNL     1     -40.909 -52.271  11.683  1.00  0.00     0.128 C 
BRANCH   5   6
HETATM    6  C   UNL     1     -40.494 -50.851  12.059  1.00  0.00     0.077 C 
BRANCH   6   7
HETATM    7  C   UNL     1     -39.623 -50.847  13.275  1.00  0.00     0.018 A 
HETATM    8  C   UNL     1     -38.711 -49.874  13.635  1.00  0.00     0.076 A 
HETATM    9  S   UNL     1     -37.980 -50.272  15.131  1.00  0.00    -0.087 SA
HETATM   10  C   UNL     1     -38.921 -51.709  15.195  1.00  0.00     0.046 A 
HETATM   11  C   UNL     1     -38.798 -52.641  16.349  1.00  0.00     0.076 C 
HETATM   12  N   UNL     1     -39.732 -51.896  14.176  1.00  0.00    -0.357 N 
ATOM     13  HN  UNL     1     -40.351 -52.698  14.064  1.00  0.00     0.166 HD
ENDBRANCH   6   7
ENDBRANCH   5   6
ENDBRANCH   3   5
BRANCH   1  14
HETATM   14  C   UNL     1     -44.405 -53.414  12.669  1.00  0.00     0.104 C 
HETATM   15  C   UNL     1     -45.187 -52.245  13.261  1.00  0.00     0.139 C 
HETATM   16  N   UNL     1     -46.193 -52.827  14.109  1.00  0.00    -0.356 N 
HETATM   17  C   UNL     1     -46.931 -52.027  15.056  1.00  0.00     0.152 C 
HETATM   18  C   UNL     1     -46.027 -54.188  14.282  1.00  0.00     0.220 C 
HETATM   19  C   UNL     1     -44.861 -54.646  13.450  1.00  0.00     0.118 C 
HETATM   20  O   UNL     1     -46.685 -54.907  15.015  1.00  0.00    -0.273 OA
ENDBRANCH   1  14
TORSDOF 4
ENDMDL
MODEL 7
REMARK VINA RESULT:      -5.2      3.719      6.199
REMARK  4 active torsions:
REMARK  status: ('A' for Active; 'I' for Inactive)
REMARK    1  A    between atoms: C_4  and  C_8 
REMARK       I    between atoms: C_8  and  N_10 
REMARK    2  A    between atoms: N_10  and  C_11 
REMARK    3  A    between atoms: C_11  and  C_12 
REMARK    4  A    between atoms: C_12  and  C_13 
ROOT
HETATM    1  C   UNL     1     -43.163 -53.704  13.145  1.00  0.00     0.223 C 
HETATM    2  O   UNL     1     -43.638 -54.266  14.131  1.00  0.00    -0.273 OA
HETATM    3  N   UNL     1     -43.970 -53.088  12.210  1.00  0.00    -0.360 N 
HETATM    4  H   UNL     1     -43.554 -52.489  11.507  1.00  0.00     0.162 HD
ENDROOT
BRANCH   3   5
HETATM    5  C   UNL     1     -45.396 -52.979  12.488  1.00  0.00     0.128 C 
BRANCH   5   6
HETATM    6  C   UNL     1     -45.865 -51.563  12.811  1.00  0.00     0.077 C 
BRANCH   6   7
HETATM    7  C   UNL     1     -45.880 -51.323  14.287  1.00  0.00     0.018 A 
HETATM    8  C   UNL     1     -44.807 -50.955  15.076  1.00  0.00     0.076 A 
HETATM    9  S   UNL     1     -45.310 -50.748  16.700  1.00  0.00    -0.087 SA
HETATM   10  C   UNL     1     -46.914 -51.166  16.244  1.00  0.00     0.046 A 
HETATM   11  C   UNL     1     -48.005 -51.187  17.256  1.00  0.00     0.076 C 
HETATM   12  N   UNL     1     -47.081 -51.444  14.969  1.00  0.00    -0.357 N 
ATOM     13  HN  UNL     1     -47.969 -51.712  14.543  1.00  0.00     0.166 HD
ENDBRANCH   6   7
ENDBRANCH   5   6
ENDBRANCH   3   5
BRANCH   1  14
HETATM   14  C   UNL     1     -41.677 -53.726  12.832  1.00  0.00     0.104 C 
HETATM   15  C   UNL     1     -40.863 -53.778  14.122  1.00  0.00     0.139 C 
HETATM   16  N   UNL     1     -39.817 -52.801  13.973  1.00  0.00    -0.356 N 
HETATM   17  C   UNL     1     -39.030 -52.366  15.100  1.00  0.00     0.152 C 
HETATM   18  C   UNL     1     -39.976 -52.011  12.850  1.00  0.00     0.220 C 
HETATM   19  C   UNL     1     -41.184 -52.485  12.089  1.00  0.00     0.118 C 
HETATM   20  O   UNL     1     -39.284 -51.059  12.535  1.00  0.00    -0.273 OA
ENDBRANCH   1  14
TORSDOF 4
ENDMDL
MODEL 8
REMARK VINA RESULT:      -5.2      2.455      3.582
REMARK  4 active torsions:
REMARK  status: ('A' for Active; 'I' for Inactive)
REMARK    1  A    between atoms: C_4  and  C_8 
REMARK       I    between atoms: C_8  and  N_10 
REMARK    2  A    between atoms: N_10  and  C_11 
REMARK    3  A    between atoms: C_11  and  C_12 
REMARK    4  A    between atoms: C_12  and  C_13 
ROOT
HETATM    1  C   UNL     1     -43.444 -49.551  13.700  1.00  0.00     0.223 C 
HETATM    2  O   UNL     1     -42.949 -48.714  14.454  1.00  0.00    -0.273 OA
HETATM    3  N   UNL     1     -43.470 -49.362  12.334  1.00  0.00    -0.360 N 
HETATM    4  H   UNL     1     -43.722 -50.133  11.726  1.00  0.00     0.162 HD
ENDROOT
BRANCH   3   5
HETATM    5  C   UNL     1     -42.760 -48.218  11.778  1.00  0.00     0.128 C 
BRANCH   5   6
HETATM    6  C   UNL     1     -41.653 -48.586  10.794  1.00  0.00     0.077 C 
BRANCH   6   7
HETATM    7  C   UNL     1     -40.350 -48.792  11.499  1.00  0.00     0.018 A 
HETATM    8  C   UNL     1     -39.952 -48.207  12.685  1.00  0.00     0.076 A 
HETATM    9  S   UNL     1     -38.401 -48.777  13.135  1.00  0.00    -0.087 SA
HETATM   10  C   UNL     1     -38.364 -49.756  11.722  1.00  0.00     0.046 A 
HETATM   11  C   UNL     1     -37.191 -50.625  11.436  1.00  0.00     0.076 C 
HETATM   12  N   UNL     1     -39.430 -49.675  10.955  1.00  0.00    -0.357 N 
ATOM     13  HN  UNL     1     -39.561 -50.188  10.084  1.00  0.00     0.166 HD
ENDBRANCH   6   7
ENDBRANCH   5   6
ENDBRANCH   3   5
BRANCH   1  14
HETATM   14  C   UNL     1     -44.143 -50.798  14.215  1.00  0.00     0.104 C 
HETATM   15  C   UNL     1     -43.122 -51.892  14.516  1.00  0.00     0.139 C 
HETATM   16  N   UNL     1     -43.652 -53.100  13.941  1.00  0.00    -0.356 N 
HETATM   17  C   UNL     1     -42.832 -54.275  13.777  1.00  0.00     0.152 C 
HETATM   18  C   UNL     1     -44.767 -52.877  13.156  1.00  0.00     0.220 C 
HETATM   19  C   UNL     1     -45.118 -51.415  13.214  1.00  0.00     0.118 C 
HETATM   20  O   UNL     1     -45.357 -53.709  12.489  1.00  0.00    -0.273 OA
ENDBRANCH   1  14
TORSDOF 4
ENDMDL
MODEL 9
REMARK VINA RESULT:      -5.1      2.832      3.756
REMARK  4 active torsions:
REMARK  status: ('A' for Active; 'I' for Inactive)
REMARK    1  A    between atoms: C_4  and  C_8 
REMARK       I    between atoms: C_8  and  N_10 
REMARK    2  A    between atoms: N_10  and  C_11 
REMARK    3  A    between atoms: C_11  and  C_12 
REMARK    4  A    between atoms: C_12  and  C_13 
ROOT
HETATM    1  C   UNL     1     -41.954 -51.861  12.528  1.00  0.00     0.223 C 
HETATM    2  O   UNL     1     -42.353 -51.023  13.336  1.00  0.00    -0.273 OA
HETATM    3  N   UNL     1     -41.121 -51.515  11.485  1.00  0.00    -0.360 N 
HETATM    4  H   UNL     1     -40.670 -52.241  10.941  1.00  0.00     0.162 HD
ENDROOT
BRANCH   3   5
HETATM    5  C   UNL     1     -40.593 -50.158  11.440  1.00  0.00     0.128 C 
BRANCH   5   6
HETATM    6  C   UNL     1     -39.099 -50.057  11.735  1.00  0.00     0.077 C 
BRANCH   6   7
HETATM    7  C   UNL     1     -38.812 -48.945  12.695  1.00  0.00     0.018 A 
HETATM    8  C   UNL     1     -39.526 -47.771  12.834  1.00  0.00     0.076 A 
HETATM    9  S   UNL     1     -38.857 -46.819  14.091  1.00  0.00    -0.087 SA
HETATM   10  C   UNL     1     -37.666 -48.029  14.358  1.00  0.00     0.046 A 
HETATM   11  C   UNL     1     -36.642 -47.858  15.425  1.00  0.00     0.076 C 
HETATM   12  N   UNL     1     -37.747 -49.080  13.571  1.00  0.00    -0.357 N 
ATOM     13  HN  UNL     1     -37.115 -49.880  13.601  1.00  0.00     0.166 HD
ENDBRANCH   6   7
ENDBRANCH   5   6
ENDBRANCH   3   5
BRANCH   1  14
HETATM   14  C   UNL     1     -42.418 -53.307  12.560  1.00  0.00     0.104 C 
HETATM   15  C   UNL     1     -43.942 -53.378  12.512  1.00  0.00     0.139 C 
HETATM   16  N   UNL     1     -44.328 -54.325  13.524  1.00  0.00    -0.356 N 
HETATM   17  C   UNL     1     -45.697 -54.436  13.965  1.00  0.00     0.152 C 
HETATM   18  C   UNL     1     -43.273 -54.713  14.328  1.00  0.00     0.220 C 
HETATM   19  C   UNL     1     -42.014 -54.057  13.829  1.00  0.00     0.118 C 
HETATM   20  O   UNL     1     -43.340 -55.435  15.307  1.00  0.00    -0.273 OA
ENDBRANCH   1  14
TORSDOF 4
ENDMDL
