MODEL 1
REMARK VINA RESULT:      -5.5      0.000      0.000
REMARK  2 active torsions:
REMARK  status: ('A' for Active; 'I' for Inactive)
REMARK       I    between atoms: N_2  and  C_3 
REMARK    1  A    between atoms: C_3  and  C_5 
REMARK    2  A    between atoms: N_7  and  C_11 
ROOT
HETATM    1  C   UNL     1     -40.623 -46.347  12.019  1.00  0.00     0.231 C 
HETATM    2  C   UNL     1     -41.000 -47.680  11.340  1.00  0.00     0.183 C 
HETATM    3  N   UNL     1     -42.436 -47.967  11.443  1.00  0.00    -0.213 N 
HETATM    4  C   UNL     1     -43.045 -47.734  12.748  1.00  0.00     0.167 C 
HETATM    5  C   UNL     1     -42.591 -46.399  13.352  1.00  0.00     0.189 C 
HETATM    6  O   UNL     1     -41.163 -46.240  13.350  1.00  0.00    -0.373 OA
ENDROOT
BRANCH   3   7
HETATM    7  C   UNL     1     -43.181 -47.823  10.291  1.00  0.00     0.680 A 
HETATM    8  N   UNL     1     -42.538 -47.931   9.115  1.00  0.00    -0.202 N 
HETATM    9  C   UNL     1     -43.265 -47.832   7.991  1.00  0.00     0.108 A 
ATOM     10  HN  UNL     1     -41.531 -48.085   9.078  1.00  0.00     0.183 HD
HETATM   11  C   UNL     1     -44.621 -47.634   7.985  1.00  0.00     0.042 A 
HETATM   12  C   UNL     1     -45.214 -47.542   9.226  1.00  0.00     0.024 A 
HETATM   13  C   UNL     1     -46.680 -47.268   9.352  1.00  0.00     0.068 C 
HETATM   14  N   UNL     1     -44.510 -47.649  10.374  1.00  0.00    -0.196 N 
ATOM     15  HN  UNL     1     -44.976 -47.599  11.280  1.00  0.00     0.184 HD
ENDBRANCH   3   7
BRANCH   1  16
HETATM   16  C   UNL     1     -40.910 -45.110  11.144  1.00  0.00     0.247 C 
HETATM   17  N   UNL     1     -40.747 -43.915  11.823  1.00  0.00    -0.363 N 
HETATM   18  C   UNL     1     -41.072 -42.663  11.187  1.00  0.00     0.149 C 
HETATM   19  H   UNL     1     -40.685 -43.964  12.835  1.00  0.00     0.162 HD
HETATM   20  O   UNL     1     -41.186 -45.152   9.946  1.00  0.00    -0.271 OA
ENDBRANCH   1  16
TORSDOF 2
ENDMDL
MODEL 2
REMARK VINA RESULT:      -5.3      7.121      9.039
REMARK  2 active torsions:
REMARK  status: ('A' for Active; 'I' for Inactive)
REMARK       I    between atoms: N_2  and  C_3 
REMARK    1  A    between atoms: C_3  and  C_5 
REMARK    2  A    between atoms: N_7  and  C_11 
ROOT
HETATM    1  C   UNL     1     -46.187 -54.387  14.919  1.00  0.00     0.231 C 
HETATM    2  C   UNL     1     -45.417 -54.911  13.690  1.00  0.00     0.183 C 
HETATM    3  N   UNL     1     -44.881 -53.820  12.866  1.00  0.00    -0.213 N 
HETATM    4  C   UNL     1     -45.786 -52.705  12.610  1.00  0.00     0.167 C 
HETATM    5  C   UNL     1     -46.523 -52.273  13.884  1.00  0.00     0.189 C 
HETATM    6  O   UNL     1     -47.146 -53.371  14.570  1.00  0.00    -0.373 OA
ENDROOT
BRANCH   3   7
HETATM    7  C   UNL     1     -43.518 -53.612  12.923  1.00  0.00     0.680 A 
HETATM    8  N   UNL     1     -42.979 -52.766  12.027  1.00  0.00    -0.202 N 
HETATM    9  C   UNL     1     -41.660 -52.530  12.103  1.00  0.00     0.108 A 
ATOM     10  HN  UNL     1     -43.554 -52.319  11.313  1.00  0.00     0.183 HD
HETATM   11  C   UNL     1     -40.845 -53.098  13.046  1.00  0.00     0.042 A 
HETATM   12  C   UNL     1     -41.467 -53.946  13.936  1.00  0.00     0.024 A 
HETATM   13  C   UNL     1     -40.676 -54.674  14.977  1.00  0.00     0.068 C 
HETATM   14  N   UNL     1     -42.794 -54.196  13.892  1.00  0.00    -0.196 N 
ATOM     15  HN  UNL     1     -43.234 -54.810  14.576  1.00  0.00     0.184 HD
ENDBRANCH   3   7
BRANCH   1  16
HETATM   16  C   UNL     1     -45.270 -53.982  16.091  1.00  0.00     0.247 C 
HETATM   17  N   UNL     1     -45.840 -53.035  16.925  1.00  0.00    -0.363 N 
HETATM   18  C   UNL     1     -45.083 -52.469  18.013  1.00  0.00     0.149 C 
HETATM   19  H   UNL     1     -46.664 -52.553  16.580  1.00  0.00     0.162 HD
HETATM   20  O   UNL     1     -44.172 -54.485  16.324  1.00  0.00    -0.271 OA
ENDBRANCH   1  16
TORSDOF 2
ENDMDL
MODEL 3
REMARK VINA RESULT:      -5.2      6.604      8.584
REMARK  2 active torsions:
REMARK  status: ('A' for Active; 'I' for Inactive)
REMARK       I    between atoms: N_2  and  C_3 
REMARK    1  A    between atoms: C_3  and  C_5 
REMARK    2  A    between atoms: N_7  and  C_11 
ROOT
HETATM    1  C   UNL     1     -46.031 -54.271  14.836  1.00  0.00     0.231 C 
HETATM    2  C   UNL     1     -45.331 -54.664  13.519  1.00  0.00     0.183 C 
HETATM    3  N   UNL     1     -44.917 -53.491  12.740  1.00  0.00    -0.213 N 
HETATM    4  C   UNL     1     -45.895 -52.414  12.632  1.00  0.00     0.167 C 
HETATM    5  C   UNL     1     -46.554 -52.113  13.984  1.00  0.00     0.189 C 
HETATM    6  O   UNL     1     -47.065 -53.289  14.632  1.00  0.00    -0.373 OA
ENDROOT
BRANCH   3   7
HETATM    7  C   UNL     1     -43.566 -53.210  12.712  1.00  0.00     0.680 A 
HETATM    8  N   UNL     1     -42.715 -54.216  12.979  1.00  0.00    -0.202 N 
HETATM    9  C   UNL     1     -41.399 -53.958  12.915  1.00  0.00     0.108 A 
ATOM     10  HN  UNL     1     -43.057 -55.145  13.224  1.00  0.00     0.183 HD
HETATM   11  C   UNL     1     -40.887 -52.731  12.584  1.00  0.00     0.042 A 
HETATM   12  C   UNL     1     -41.818 -51.752  12.314  1.00  0.00     0.024 A 
HETATM   13  C   UNL     1     -41.385 -50.354  11.998  1.00  0.00     0.068 C 
HETATM   14  N   UNL     1     -43.148 -51.983  12.360  1.00  0.00    -0.196 N 
ATOM     15  HN  UNL     1     -43.816 -51.247  12.134  1.00  0.00     0.184 HD
ENDBRANCH   3   7
BRANCH   1  16
HETATM   16  C   UNL     1     -45.049 -53.896  15.964  1.00  0.00     0.247 C 
HETATM   17  N   UNL     1     -45.684 -53.470  17.118  1.00  0.00    -0.363 N 
HETATM   18  C   UNL     1     -44.918 -52.984  18.237  1.00  0.00     0.149 C 
HETATM   19  H   UNL     1     -46.670 -53.236  17.043  1.00  0.00     0.162 HD
HETATM   20  O   UNL     1     -43.827 -54.021  15.896  1.00  0.00    -0.271 OA
ENDBRANCH   1  16
TORSDOF 2
ENDMDL
MODEL 4
REMARK VINA RESULT:      -5.0      5.963      8.039
REMARK  2 active torsions:
REMARK  status: ('A' for Active; 'I' for Inactive)
REMARK       I    between atoms: N_2  and  C_3 
REMARK    1  A    between atoms: C_3  and  C_5 
REMARK    2  A    between atoms: N_7  and  C_11 
ROOT
HETATM    1  C   UNL     1     -41.007 -54.057  13.159  1.00  0.00     0.231 C 
HETATM    2  C   UNL     1     -41.065 -52.941  12.096  1.00  0.00     0.183 C 
HETATM    3  N   UNL     1     -41.346 -51.627  12.688  1.00  0.00    -0.213 N 
HETATM    4  C   UNL     1     -42.401 -51.589  13.694  1.00  0.00     0.167 C 
HETATM    5  C   UNL     1     -42.274 -52.751  14.689  1.00  0.00     0.189 C 
HETATM    6  O   UNL     1     -42.142 -54.028  14.044  1.00  0.00    -0.373 OA
ENDROOT
BRANCH   3   7
HETATM    7  C   UNL     1     -40.295 -50.735  12.747  1.00  0.00     0.680 A 
HETATM    8  N   UNL     1     -40.299 -49.832  13.743  1.00  0.00    -0.202 N 
HETATM    9  C   UNL     1     -39.259 -48.988  13.829  1.00  0.00     0.108 A 
ATOM     10  HN  UNL     1     -41.067 -49.789  14.412  1.00  0.00     0.183 HD
HETATM   11  C   UNL     1     -38.198 -49.008  12.962  1.00  0.00     0.042 A 
HETATM   12  C   UNL     1     -38.257 -49.965  11.973  1.00  0.00     0.024 A 
HETATM   13  C   UNL     1     -37.188 -50.051  10.929  1.00  0.00     0.068 C 
HETATM   14  N   UNL     1     -39.285 -50.836  11.867  1.00  0.00    -0.196 N 
ATOM     15  HN  UNL     1     -39.294 -51.550  11.139  1.00  0.00     0.184 HD
ENDBRANCH   3   7
BRANCH   1  16
HETATM   16  C   UNL     1     -39.657 -54.128  13.901  1.00  0.00     0.247 C 
HETATM   17  N   UNL     1     -39.652 -55.049  14.934  1.00  0.00    -0.363 N 
HETATM   18  C   UNL     1     -38.506 -55.173  15.798  1.00  0.00     0.149 C 
HETATM   19  H   UNL     1     -40.553 -55.405  15.239  1.00  0.00     0.162 HD
HETATM   20  O   UNL     1     -38.651 -53.493  13.584  1.00  0.00    -0.271 OA
ENDBRANCH   1  16
TORSDOF 2
ENDMDL
MODEL 5
REMARK VINA RESULT:      -5.0      4.839      6.114
REMARK  2 active torsions:
REMARK  status: ('A' for Active; 'I' for Inactive)
REMARK       I    between atoms: N_2  and  C_3 
REMARK    1  A    between atoms: C_3  and  C_5 
REMARK    2  A    between atoms: N_7  and  C_11 
ROOT
HETATM    1  C   UNL     1     -41.020 -51.784  12.342  1.00  0.00     0.231 C 
HETATM    2  C   UNL     1     -42.206 -52.698  11.968  1.00  0.00     0.183 C 
HETATM    3  N   UNL     1     -42.933 -53.173  13.151  1.00  0.00    -0.213 N 
HETATM    4  C   UNL     1     -42.114 -53.634  14.266  1.00  0.00     0.167 C 
HETATM    5  C   UNL     1     -40.949 -52.675  14.545  1.00  0.00     0.189 C 
HETATM    6  O   UNL     1     -40.189 -52.360  13.367  1.00  0.00    -0.373 OA
ENDROOT
BRANCH   3   7
HETATM    7  C   UNL     1     -44.173 -52.613  13.383  1.00  0.00     0.680 A 
HETATM    8  N   UNL     1     -44.456 -52.223  14.638  1.00  0.00    -0.202 N 
HETATM    9  C   UNL     1     -45.645 -51.642  14.861  1.00  0.00     0.108 A 
ATOM     10  HN  UNL     1     -43.789 -52.363  15.396  1.00  0.00     0.183 HD
HETATM   11  C   UNL     1     -46.574 -51.422  13.877  1.00  0.00     0.042 A 
HETATM   12  C   UNL     1     -46.211 -51.839  12.615  1.00  0.00     0.024 A 
HETATM   13  C   UNL     1     -47.163 -51.709  11.466  1.00  0.00     0.068 C 
HETATM   14  N   UNL     1     -45.018 -52.417  12.357  1.00  0.00    -0.196 N 
ATOM     15  HN  UNL     1     -44.765 -52.697  11.410  1.00  0.00     0.184 HD
ENDBRANCH   3   7
BRANCH   1  16
HETATM   16  C   UNL     1     -41.438 -50.330  12.640  1.00  0.00     0.247 C 
HETATM   17  N   UNL     1     -42.486 -49.892  11.849  1.00  0.00    -0.363 N 
HETATM   18  C   UNL     1     -42.936 -48.525  11.924  1.00  0.00     0.149 C 
HETATM   19  H   UNL     1     -42.716 -50.454  11.036  1.00  0.00     0.162 HD
HETATM   20  O   UNL     1     -40.953 -49.634  13.532  1.00  0.00    -0.271 OA
ENDBRANCH   1  16
TORSDOF 2
ENDMDL
MODEL 6
REMARK VINA RESULT:      -4.9      5.435      6.391
REMARK  2 active torsions:
REMARK  status: ('A' for Active; 'I' for Inactive)
REMARK       I    between atoms: N_2  and  C_3 
REMARK    1  A    between atoms: C_3  and  C_5 
REMARK    2  A    between atoms: N_7  and  C_11 
ROOT
HETATM    1  C   UNL     1     -40.254 -51.821  12.577  1.00  0.00     0.231 C 
HETATM    2  C   UNL     1     -41.534 -52.306  11.866  1.00  0.00     0.183 C 
HETATM    3  N   UNL     1     -42.360 -53.155  12.733  1.00  0.00    -0.213 N 
HETATM    4  C   UNL     1     -41.650 -54.168  13.505  1.00  0.00     0.167 C 
HETATM    5  C   UNL     1     -40.381 -53.597  14.151  1.00  0.00     0.189 C 
HETATM    6  O   UNL     1     -39.543 -52.897  13.217  1.00  0.00    -0.373 OA
ENDROOT
BRANCH   3   7
HETATM    7  C   UNL     1     -43.524 -52.596  13.221  1.00  0.00     0.680 A 
HETATM    8  N   UNL     1     -43.531 -52.192  14.503  1.00  0.00    -0.202 N 
HETATM    9  C   UNL     1     -44.647 -51.612  14.971  1.00  0.00     0.108 A 
ATOM     10  HN  UNL     1     -42.716 -52.322  15.101  1.00  0.00     0.183 HD
HETATM   11  C   UNL     1     -45.768 -51.407  14.209  1.00  0.00     0.042 A 
HETATM   12  C   UNL     1     -45.684 -51.837  12.903  1.00  0.00     0.024 A 
HETATM   13  C   UNL     1     -46.862 -51.723  11.986  1.00  0.00     0.068 C 
HETATM   14  N   UNL     1     -44.572 -52.414  12.400  1.00  0.00    -0.196 N 
ATOM     15  HN  UNL     1     -44.528 -52.704  11.423  1.00  0.00     0.184 HD
ENDBRANCH   3   7
BRANCH   1  16
HETATM   16  C   UNL     1     -40.488 -50.609  13.502  1.00  0.00     0.247 C 
HETATM   17  N   UNL     1     -39.343 -50.204  14.167  1.00  0.00    -0.363 N 
HETATM   18  C   UNL     1     -39.402 -49.152  15.149  1.00  0.00     0.149 C 
HETATM   19  H   UNL     1     -38.556 -50.846  14.164  1.00  0.00     0.162 HD
HETATM   20  O   UNL     1     -41.554 -50.003  13.602  1.00  0.00    -0.271 OA
ENDBRANCH   1  16
TORSDOF 2
ENDMDL
MODEL 7
REMARK VINA RESULT:      -4.9      5.544      7.017
REMARK  2 active torsions:
REMARK  status: ('A' for Active; 'I' for Inactive)
REMARK       I    between atoms: N_2  and  C_3 
REMARK    1  A    between atoms: C_3  and  C_5 
REMARK    2  A    between atoms: N_7  and  C_11 
ROOT
HETATM    1  C   UNL     1     -40.829 -53.232  12.462  1.00  0.00     0.231 C 
HETATM    2  C   UNL     1     -42.105 -53.977  12.905  1.00  0.00     0.183 C 
HETATM    3  N   UNL     1     -42.420 -53.742  14.320  1.00  0.00    -0.213 N 
HETATM    4  C   UNL     1     -41.298 -53.816  15.248  1.00  0.00     0.167 C 
HETATM    5  C   UNL     1     -40.071 -53.069  14.710  1.00  0.00     0.189 C 
HETATM    6  O   UNL     1     -39.729 -53.448  13.366  1.00  0.00    -0.373 OA
ENDROOT
BRANCH   3   7
HETATM    7  C   UNL     1     -43.493 -52.916  14.588  1.00  0.00     0.680 A 
HETATM    8  N   UNL     1     -43.560 -52.358  15.809  1.00  0.00    -0.202 N 
HETATM    9  C   UNL     1     -44.579 -51.523  16.062  1.00  0.00     0.108 A 
ATOM     10  HN  UNL     1     -42.859 -52.563  16.521  1.00  0.00     0.183 HD
HETATM   11  C   UNL     1     -45.543 -51.208  15.140  1.00  0.00     0.042 A 
HETATM   12  C   UNL     1     -45.404 -51.809  13.908  1.00  0.00     0.024 A 
HETATM   13  C   UNL     1     -46.425 -51.591  12.834  1.00  0.00     0.068 C 
HETATM   14  N   UNL     1     -44.384 -52.646  13.620  1.00  0.00    -0.196 N 
ATOM     15  HN  UNL     1     -44.292 -53.060  12.693  1.00  0.00     0.184 HD
ENDBRANCH   3   7
BRANCH   1  16
HETATM   16  C   UNL     1     -41.069 -51.743  12.139  1.00  0.00     0.247 C 
HETATM   17  N   UNL     1     -39.916 -51.076  11.763  1.00  0.00    -0.363 N 
HETATM   18  C   UNL     1     -39.938 -49.656  11.523  1.00  0.00     0.149 C 
HETATM   19  H   UNL     1     -39.032 -51.542  11.947  1.00  0.00     0.162 HD
HETATM   20  O   UNL     1     -42.172 -51.198  12.138  1.00  0.00    -0.271 OA
ENDBRANCH   1  16
TORSDOF 2
ENDMDL
MODEL 8
REMARK VINA RESULT:      -4.9      3.543      5.061
REMARK  2 active torsions:
REMARK  status: ('A' for Active; 'I' for Inactive)
REMARK       I    between atoms: N_2  and  C_3 
REMARK    1  A    between atoms: C_3  and  C_5 
REMARK    2  A    between atoms: N_7  and  C_11 
ROOT
HETATM    1  C   UNL     1     -38.101 -50.374  12.741  1.00  0.00     0.231 C 
HETATM    2  C   UNL     1     -38.656 -50.079  11.332  1.00  0.00     0.183 C 
HETATM    3  N   UNL     1     -40.111 -50.259  11.262  1.00  0.00    -0.213 N 
HETATM    4  C   UNL     1     -40.642 -51.455  11.907  1.00  0.00     0.167 C 
HETATM    5  C   UNL     1     -40.013 -51.677  13.289  1.00  0.00     0.189 C 
HETATM    6  O   UNL     1     -38.577 -51.628  13.264  1.00  0.00    -0.373 OA
ENDROOT
BRANCH   3   7
HETATM    7  C   UNL     1     -40.875 -49.113  11.184  1.00  0.00     0.680 A 
HETATM    8  N   UNL     1     -42.195 -49.226  11.417  1.00  0.00    -0.202 N 
HETATM    9  C   UNL     1     -42.936 -48.108  11.381  1.00  0.00     0.108 A 
ATOM     10  HN  UNL     1     -42.619 -50.132  11.614  1.00  0.00     0.183 HD
HETATM   11  C   UNL     1     -42.416 -46.865  11.129  1.00  0.00     0.042 A 
HETATM   12  C   UNL     1     -41.056 -46.825  10.909  1.00  0.00     0.024 A 
HETATM   13  C   UNL     1     -40.378 -45.535  10.565  1.00  0.00     0.068 C 
HETATM   14  N   UNL     1     -40.282 -47.931  10.949  1.00  0.00    -0.196 N 
ATOM     15  HN  UNL     1     -39.274 -47.870  10.805  1.00  0.00     0.184 HD
ENDBRANCH   3   7
BRANCH   1  16
HETATM   16  C   UNL     1     -38.271 -49.198  13.725  1.00  0.00     0.247 C 
HETATM   17  N   UNL     1     -37.903 -49.518  15.021  1.00  0.00    -0.363 N 
HETATM   18  C   UNL     1     -38.093 -48.570  16.089  1.00  0.00     0.149 C 
HETATM   19  H   UNL     1     -37.782 -50.503  15.237  1.00  0.00     0.162 HD
HETATM   20  O   UNL     1     -38.628 -48.066  13.405  1.00  0.00    -0.271 OA
ENDBRANCH   1  16
TORSDOF 2
ENDMDL
MODEL 9
REMARK VINA RESULT:      -4.8      2.659      5.387
REMARK  2 active torsions:
REMARK  status: ('A' for Active; 'I' for Inactive)
REMARK       I    between atoms: N_2  and  C_3 
REMARK    1  A    between atoms: C_3  and  C_5 
REMARK    2  A    between atoms: N_7  and  C_11 
ROOT
HETATM    1  C   UNL     1     -42.726 -46.488  11.448  1.00  0.00     0.231 C 
HETATM    2  C   UNL     1     -41.727 -47.438  10.756  1.00  0.00     0.183 C 
HETATM    3  N   UNL     1     -40.346 -46.951  10.846  1.00  0.00    -0.213 N 
HETATM    4  C   UNL     1     -40.148 -45.531  10.579  1.00  0.00     0.167 C 
HETATM    5  C   UNL     1     -41.201 -44.670  11.288  1.00  0.00     0.189 C 
HETATM    6  O   UNL     1     -42.545 -45.118  11.044  1.00  0.00    -0.373 OA
ENDROOT
BRANCH   3   7
HETATM    7  C   UNL     1     -39.508 -47.619  11.715  1.00  0.00     0.680 A 
HETATM    8  N   UNL     1     -39.375 -47.124  12.957  1.00  0.00    -0.202 N 
HETATM    9  C   UNL     1     -38.592 -47.793  13.818  1.00  0.00     0.108 A 
ATOM     10  HN  UNL     1     -39.853 -46.268  13.238  1.00  0.00     0.183 HD
HETATM   11  C   UNL     1     -37.933 -48.950  13.496  1.00  0.00     0.042 A 
HETATM   12  C   UNL     1     -38.123 -49.403  12.209  1.00  0.00     0.024 A 
HETATM   13  C   UNL     1     -37.412 -50.625  11.717  1.00  0.00     0.068 C 
HETATM   14  N   UNL     1     -38.914 -48.759  11.323  1.00  0.00    -0.196 N 
ATOM     15  HN  UNL     1     -39.055 -49.127  10.383  1.00  0.00     0.184 HD
ENDBRANCH   3   7
BRANCH   1  16
HETATM   16  C   UNL     1     -42.786 -46.669  12.978  1.00  0.00     0.247 C 
HETATM   17  N   UNL     1     -43.497 -45.668  13.617  1.00  0.00    -0.363 N 
HETATM   18  C   UNL     1     -43.567 -45.625  15.055  1.00  0.00     0.149 C 
HETATM   19  H   UNL     1     -43.704 -44.833  13.077  1.00  0.00     0.162 HD
HETATM   20  O   UNL     1     -42.320 -47.632  13.585  1.00  0.00    -0.271 OA
ENDBRANCH   1  16
TORSDOF 2
ENDMDL
