MODEL 1
REMARK VINA RESULT:      -5.6      0.000      0.000
REMARK  4 active torsions:
REMARK  status: ('A' for Active; 'I' for Inactive)
REMARK    1  A    between atoms: C_5  and  N_9 
REMARK    2  A    between atoms: N_9  and  C_10 
REMARK    3  A    between atoms: C_10  and  C_11 
REMARK    4  A    between atoms: C_11  and  C_12 
ROOT
HETATM    1  N   UNL     1     -44.000 -51.901  12.741  1.00  0.00     0.088 N 
HETATM    2  H   UNL     1     -44.191 -52.903  12.753  1.00  0.00     0.316 HD
ENDROOT
BRANCH   1   3
HETATM    3  C   UNL     1     -42.801 -51.611  13.547  1.00  0.00     0.220 C 
HETATM    4  C   UNL     1     -41.569 -51.576  12.625  1.00  0.00     0.036 C 
HETATM    5  C   UNL     1     -41.155 -52.961  12.122  1.00  0.00     0.007 C 
HETATM    6  C   UNL     1     -40.954 -53.978  13.263  1.00  0.00    -0.015 C 
HETATM    7  C   UNL     1     -39.648 -53.690  14.014  1.00  0.00     0.010 C 
HETATM    8  C   UNL     1     -42.203 -54.014  14.179  1.00  0.00    -0.013 C 
HETATM    9  C   UNL     1     -42.560 -52.609  14.693  1.00  0.00     0.040 C 
HETATM   10  C   UNL     1     -42.069 -54.990  15.346  1.00  0.00     0.010 C 
ENDBRANCH   1   3
BRANCH   1  11
HETATM   11  C   UNL     1     -45.214 -51.194  13.158  1.00  0.00     0.275 C 
BRANCH  11  12
HETATM   12  C   UNL     1     -46.414 -52.116  13.414  1.00  0.00     0.073 C 
BRANCH  12  13
HETATM   13  C   UNL     1     -46.243 -52.904  14.664  1.00  0.00    -0.001 A 
HETATM   14  C   UNL     1     -46.411 -52.483  16.008  1.00  0.00     0.037 A 
HETATM   15  C   UNL     1     -46.813 -51.153  16.522  1.00  0.00     0.071 C 
HETATM   16  N   UNL     1     -46.176 -53.483  16.865  1.00  0.00    -0.265 N 
HETATM   17  O   UNL     1     -45.848 -54.578  16.088  1.00  0.00    -0.242 OA
ATOM     18  HN  UNL     1     -46.228 -53.446  17.882  1.00  0.00     0.194 HD
HETATM   19  C   UNL     1     -45.893 -54.233  14.776  1.00  0.00     0.081 A 
HETATM   20  C   UNL     1     -45.584 -55.295  13.801  1.00  0.00     0.079 C 
ENDBRANCH  12  13
ENDBRANCH  11  12
ENDBRANCH   1  11
TORSDOF 4
ENDMDL
MODEL 2
REMARK VINA RESULT:      -5.4      3.366      6.537
REMARK  4 active torsions:
REMARK  status: ('A' for Active; 'I' for Inactive)
REMARK    1  A    between atoms: C_5  and  N_9 
REMARK    2  A    between atoms: N_9  and  C_10 
REMARK    3  A    between atoms: C_10  and  C_11 
REMARK    4  A    between atoms: C_11  and  C_12 
ROOT
HETATM    1  N   UNL     1     -42.567 -52.677  11.886  1.00  0.00     0.088 N 
HETATM    2  H   UNL     1     -42.989 -52.060  11.191  1.00  0.00     0.316 HD
ENDROOT
BRANCH   1   3
HETATM    3  C   UNL     1     -43.098 -52.361  13.224  1.00  0.00     0.220 C 
HETATM    4  C   UNL     1     -43.277 -53.667  14.018  1.00  0.00     0.036 C 
HETATM    5  C   UNL     1     -44.449 -54.516  13.521  1.00  0.00     0.007 C 
HETATM    6  C   UNL     1     -45.774 -53.731  13.457  1.00  0.00    -0.015 C 
HETATM    7  C   UNL     1     -46.333 -53.505  14.867  1.00  0.00     0.010 C 
HETATM    8  C   UNL     1     -45.587 -52.423  12.646  1.00  0.00    -0.013 C 
HETATM    9  C   UNL     1     -44.425 -51.583  13.203  1.00  0.00     0.040 C 
HETATM   10  C   UNL     1     -46.858 -51.581  12.554  1.00  0.00     0.010 C 
ENDBRANCH   1   3
BRANCH   1  11
HETATM   11  C   UNL     1     -41.109 -52.587  11.760  1.00  0.00     0.275 C 
BRANCH  11  12
HETATM   12  C   UNL     1     -40.444 -51.722  12.839  1.00  0.00     0.073 C 
BRANCH  12  13
HETATM   13  C   UNL     1     -39.787 -50.523  12.253  1.00  0.00    -0.001 A 
HETATM   14  C   UNL     1     -40.389 -49.366  11.695  1.00  0.00     0.037 A 
HETATM   15  C   UNL     1     -41.827 -49.039  11.559  1.00  0.00     0.071 C 
HETATM   16  N   UNL     1     -39.467 -48.492  11.275  1.00  0.00    -0.265 N 
HETATM   17  O   UNL     1     -38.243 -49.070  11.554  1.00  0.00    -0.242 OA
ATOM     18  HN  UNL     1     -39.632 -47.586  10.839  1.00  0.00     0.194 HD
HETATM   19  C   UNL     1     -38.435 -50.279  12.141  1.00  0.00     0.081 A 
HETATM   20  C   UNL     1     -37.225 -51.030  12.523  1.00  0.00     0.079 C 
ENDBRANCH  12  13
ENDBRANCH  11  12
ENDBRANCH   1  11
TORSDOF 4
ENDMDL
MODEL 3
REMARK VINA RESULT:      -5.4      4.581      7.003
REMARK  4 active torsions:
REMARK  status: ('A' for Active; 'I' for Inactive)
REMARK    1  A    between atoms: C_5  and  N_9 
REMARK    2  A    between atoms: N_9  and  C_10 
REMARK    3  A    between atoms: C_10  and  C_11 
REMARK    4  A    between atoms: C_11  and  C_12 
ROOT
HETATM    1  N   UNL     1     -43.794 -49.991  12.458  1.00  0.00     0.088 N 
HETATM    2  H   UNL     1     -44.752 -49.644  12.516  1.00  0.00     0.316 HD
ENDROOT
BRANCH   1   3
HETATM    3  C   UNL     1     -43.547 -50.960  13.540  1.00  0.00     0.220 C 
HETATM    4  C   UNL     1     -43.409 -52.368  12.935  1.00  0.00     0.036 C 
HETATM    5  C   UNL     1     -44.737 -52.942  12.437  1.00  0.00     0.007 C 
HETATM    6  C   UNL     1     -45.842 -52.917  13.511  1.00  0.00    -0.015 C 
HETATM    7  C   UNL     1     -45.590 -54.002  14.565  1.00  0.00     0.010 C 
HETATM    8  C   UNL     1     -45.982 -51.493  14.107  1.00  0.00    -0.013 C 
HETATM    9  C   UNL     1     -44.634 -50.971  14.630  1.00  0.00     0.040 C 
HETATM   10  C   UNL     1     -47.050 -51.395  15.195  1.00  0.00     0.010 C 
ENDBRANCH   1   3
BRANCH   1  11
HETATM   11  C   UNL     1     -42.886 -48.840  12.437  1.00  0.00     0.275 C 
BRANCH  11  12
HETATM   12  C   UNL     1     -42.200 -48.615  11.083  1.00  0.00     0.073 C 
BRANCH  12  13
HETATM   13  C   UNL     1     -42.538 -47.285  10.511  1.00  0.00    -0.001 A 
HETATM   14  C   UNL     1     -43.755 -46.857   9.921  1.00  0.00     0.037 A 
HETATM   15  C   UNL     1     -45.014 -47.615   9.730  1.00  0.00     0.071 C 
HETATM   16  N   UNL     1     -43.683 -45.580   9.526  1.00  0.00    -0.265 N 
HETATM   17  O   UNL     1     -42.411 -45.155   9.854  1.00  0.00    -0.242 OA
ATOM     18  HN  UNL     1     -44.417 -45.034   9.076  1.00  0.00     0.194 HD
HETATM   19  C   UNL     1     -41.730 -46.170  10.444  1.00  0.00     0.081 A 
HETATM   20  C   UNL     1     -40.350 -45.880  10.876  1.00  0.00     0.079 C 
ENDBRANCH  12  13
ENDBRANCH  11  12
ENDBRANCH   1  11
TORSDOF 4
ENDMDL
MODEL 4
REMARK VINA RESULT:      -5.4      1.869      5.404
REMARK  4 active torsions:
REMARK  status: ('A' for Active; 'I' for Inactive)
REMARK    1  A    between atoms: C_5  and  N_9 
REMARK    2  A    between atoms: N_9  and  C_10 
REMARK    3  A    between atoms: C_10  and  C_11 
REMARK    4  A    between atoms: C_11  and  C_12 
ROOT
HETATM    1  N   UNL     1     -43.609 -53.436  17.040  1.00  0.00     0.088 N 
HETATM    2  H   UNL     1     -44.360 -54.014  16.661  1.00  0.00     0.316 HD
ENDROOT
BRANCH   1   3
HETATM    3  C   UNL     1     -44.110 -52.076  17.307  1.00  0.00     0.220 C 
HETATM    4  C   UNL     1     -45.136 -52.132  18.453  1.00  0.00     0.036 C 
HETATM    5  C   UNL     1     -46.465 -52.769  18.040  1.00  0.00     0.007 C 
HETATM    6  C   UNL     1     -47.081 -52.114  16.789  1.00  0.00    -0.015 C 
HETATM    7  C   UNL     1     -47.669 -50.740  17.137  1.00  0.00     0.010 C 
HETATM    8  C   UNL     1     -46.045 -52.072  15.637  1.00  0.00    -0.013 C 
HETATM    9  C   UNL     1     -44.741 -51.389  16.083  1.00  0.00     0.040 C 
HETATM   10  C   UNL     1     -46.581 -51.417  14.365  1.00  0.00     0.010 C 
ENDBRANCH   1   3
BRANCH   1  11
HETATM   11  C   UNL     1     -42.466 -53.507  16.125  1.00  0.00     0.275 C 
BRANCH  11  12
HETATM   12  C   UNL     1     -42.585 -54.612  15.066  1.00  0.00     0.073 C 
BRANCH  12  13
HETATM   13  C   UNL     1     -43.241 -54.115  13.827  1.00  0.00    -0.001 A 
HETATM   14  C   UNL     1     -42.722 -53.239  12.839  1.00  0.00     0.037 A 
HETATM   15  C   UNL     1     -41.388 -52.598  12.772  1.00  0.00     0.071 C 
HETATM   16  N   UNL     1     -43.610 -53.028  11.861  1.00  0.00    -0.265 N 
HETATM   17  O   UNL     1     -44.727 -53.766  12.199  1.00  0.00    -0.242 OA
ATOM     18  HN  UNL     1     -43.487 -52.443  11.035  1.00  0.00     0.194 HD
HETATM   19  C   UNL     1     -44.505 -54.417  13.369  1.00  0.00     0.081 A 
HETATM   20  C   UNL     1     -45.597 -55.271  13.870  1.00  0.00     0.079 C 
ENDBRANCH  12  13
ENDBRANCH  11  12
ENDBRANCH   1  11
TORSDOF 4
ENDMDL
MODEL 5
REMARK VINA RESULT:      -5.4      1.433      2.088
REMARK  4 active torsions:
REMARK  status: ('A' for Active; 'I' for Inactive)
REMARK    1  A    between atoms: C_5  and  N_9 
REMARK    2  A    between atoms: N_9  and  C_10 
REMARK    3  A    between atoms: C_10  and  C_11 
REMARK    4  A    between atoms: C_11  and  C_12 
ROOT
HETATM    1  N   UNL     1     -43.773 -50.719  14.646  1.00  0.00     0.088 N 
HETATM    2  H   UNL     1     -44.305 -51.281  13.981  1.00  0.00     0.316 HD
ENDROOT
BRANCH   1   3
HETATM    3  C   UNL     1     -42.378 -51.190  14.696  1.00  0.00     0.220 C 
HETATM    4  C   UNL     1     -41.797 -51.202  13.271  1.00  0.00     0.036 C 
HETATM    5  C   UNL     1     -42.366 -52.322  12.399  1.00  0.00     0.007 C 
HETATM    6  C   UNL     1     -42.240 -53.713  13.050  1.00  0.00    -0.015 C 
HETATM    7  C   UNL     1     -40.786 -54.200  12.998  1.00  0.00     0.010 C 
HETATM    8  C   UNL     1     -42.837 -53.695  14.480  1.00  0.00    -0.013 C 
HETATM    9  C   UNL     1     -42.210 -52.581  15.334  1.00  0.00     0.040 C 
HETATM   10  C   UNL     1     -42.731 -55.040  15.197  1.00  0.00     0.010 C 
ENDBRANCH   1   3
BRANCH   1  11
HETATM   11  C   UNL     1     -44.479 -50.731  15.930  1.00  0.00     0.275 C 
BRANCH  11  12
HETATM   12  C   UNL     1     -45.961 -51.115  15.821  1.00  0.00     0.073 C 
BRANCH  12  13
HETATM   13  C   UNL     1     -46.132 -52.506  15.321  1.00  0.00    -0.001 A 
HETATM   14  C   UNL     1     -46.362 -52.949  13.993  1.00  0.00     0.037 A 
HETATM   15  C   UNL     1     -46.481 -52.148  12.752  1.00  0.00     0.071 C 
HETATM   16  N   UNL     1     -46.454 -54.282  13.934  1.00  0.00    -0.265 N 
HETATM   17  O   UNL     1     -46.285 -54.731  15.229  1.00  0.00    -0.242 OA
ATOM     18  HN  UNL     1     -46.616 -54.851  13.103  1.00  0.00     0.194 HD
HETATM   19  C   UNL     1     -46.089 -53.672  16.055  1.00  0.00     0.081 A 
HETATM   20  C   UNL     1     -45.873 -53.975  17.481  1.00  0.00     0.079 C 
ENDBRANCH  12  13
ENDBRANCH  11  12
ENDBRANCH   1  11
TORSDOF 4
ENDMDL
MODEL 6
REMARK VINA RESULT:      -5.4      3.323      6.545
REMARK  4 active torsions:
REMARK  status: ('A' for Active; 'I' for Inactive)
REMARK    1  A    between atoms: C_5  and  N_9 
REMARK    2  A    between atoms: N_9  and  C_10 
REMARK    3  A    between atoms: C_10  and  C_11 
REMARK    4  A    between atoms: C_11  and  C_12 
ROOT
HETATM    1  N   UNL     1     -42.567 -52.637  11.885  1.00  0.00     0.088 N 
HETATM    2  H   UNL     1     -43.098 -52.075  11.220  1.00  0.00     0.316 HD
ENDROOT
BRANCH   1   3
HETATM    3  C   UNL     1     -43.068 -52.402  13.251  1.00  0.00     0.220 C 
HETATM    4  C   UNL     1     -43.228 -53.753  13.970  1.00  0.00     0.036 C 
HETATM    5  C   UNL     1     -44.408 -54.576  13.450  1.00  0.00     0.007 C 
HETATM    6  C   UNL     1     -45.736 -53.793  13.461  1.00  0.00    -0.015 C 
HETATM    7  C   UNL     1     -46.264 -53.652  14.894  1.00  0.00     0.010 C 
HETATM    8  C   UNL     1     -45.569 -52.439  12.726  1.00  0.00    -0.013 C 
HETATM    9  C   UNL     1     -44.398 -51.629  13.305  1.00  0.00     0.040 C 
HETATM   10  C   UNL     1     -46.845 -51.597  12.712  1.00  0.00     0.010 C 
ENDBRANCH   1   3
BRANCH   1  11
HETATM   11  C   UNL     1     -41.141 -52.357  11.692  1.00  0.00     0.275 C 
BRANCH  11  12
HETATM   12  C   UNL     1     -40.552 -51.389  12.727  1.00  0.00     0.073 C 
BRANCH  12  13
HETATM   13  C   UNL     1     -40.241 -50.065  12.125  1.00  0.00    -0.001 A 
HETATM   14  C   UNL     1     -38.989 -49.559  11.692  1.00  0.00     0.037 A 
HETATM   15  C   UNL     1     -37.662 -50.218  11.712  1.00  0.00     0.071 C 
HETATM   16  N   UNL     1     -39.108 -48.322  11.195  1.00  0.00    -0.265 N 
HETATM   17  O   UNL     1     -40.448 -48.001  11.297  1.00  0.00    -0.242 OA
ATOM     18  HN  UNL     1     -38.364 -47.737  10.817  1.00  0.00     0.194 HD
HETATM   19  C   UNL     1     -41.123 -49.042  11.848  1.00  0.00     0.081 A 
HETATM   20  C   UNL     1     -42.578 -48.873  12.016  1.00  0.00     0.079 C 
ENDBRANCH  12  13
ENDBRANCH  11  12
ENDBRANCH   1  11
TORSDOF 4
ENDMDL
MODEL 7
REMARK VINA RESULT:      -5.1      4.144      6.988
REMARK  4 active torsions:
REMARK  status: ('A' for Active; 'I' for Inactive)
REMARK    1  A    between atoms: C_5  and  N_9 
REMARK    2  A    between atoms: N_9  and  C_10 
REMARK    3  A    between atoms: C_10  and  C_11 
REMARK    4  A    between atoms: C_11  and  C_12 
ROOT
HETATM    1  N   UNL     1     -43.996 -50.182  12.897  1.00  0.00     0.088 N 
HETATM    2  H   UNL     1     -44.839 -49.656  13.128  1.00  0.00     0.316 HD
ENDROOT
BRANCH   1   3
HETATM    3  C   UNL     1     -43.885 -51.359  13.776  1.00  0.00     0.220 C 
HETATM    4  C   UNL     1     -44.190 -52.629  12.961  1.00  0.00     0.036 C 
HETATM    5  C   UNL     1     -45.670 -52.773  12.602  1.00  0.00     0.007 C 
HETATM    6  C   UNL     1     -46.597 -52.678  13.830  1.00  0.00    -0.015 C 
HETATM    7  C   UNL     1     -46.515 -53.962  14.665  1.00  0.00     0.010 C 
HETATM    8  C   UNL     1     -46.291 -51.392  14.638  1.00  0.00    -0.013 C 
HETATM    9  C   UNL     1     -44.802 -51.307  15.011  1.00  0.00     0.040 C 
HETATM   10  C   UNL     1     -47.163 -51.238  15.884  1.00  0.00     0.010 C 
ENDBRANCH   1   3
BRANCH   1  11
HETATM   11  C   UNL     1     -42.852 -49.267  12.939  1.00  0.00     0.275 C 
BRANCH  11  12
HETATM   12  C   UNL     1     -41.870 -49.445  11.773  1.00  0.00     0.073 C 
BRANCH  12  13
HETATM   13  C   UNL     1     -41.391 -48.137  11.254  1.00  0.00    -0.001 A 
HETATM   14  C   UNL     1     -41.928 -47.350  10.203  1.00  0.00     0.037 A 
HETATM   15  C   UNL     1     -43.113 -47.615   9.353  1.00  0.00     0.071 C 
HETATM   16  N   UNL     1     -41.225 -46.224  10.029  1.00  0.00    -0.265 N 
HETATM   17  O   UNL     1     -40.214 -46.261  10.969  1.00  0.00    -0.242 OA
ATOM     18  HN  UNL     1     -41.400 -45.490   9.344  1.00  0.00     0.194 HD
HETATM   19  C   UNL     1     -40.316 -47.400  11.701  1.00  0.00     0.081 A 
HETATM   20  C   UNL     1     -39.317 -47.592  12.769  1.00  0.00     0.079 C 
ENDBRANCH  12  13
ENDBRANCH  11  12
ENDBRANCH   1  11
TORSDOF 4
ENDMDL
MODEL 8
REMARK VINA RESULT:      -5.1      2.313      5.853
REMARK  4 active torsions:
REMARK  status: ('A' for Active; 'I' for Inactive)
REMARK    1  A    between atoms: C_5  and  N_9 
REMARK    2  A    between atoms: N_9  and  C_10 
REMARK    3  A    between atoms: C_10  and  C_11 
REMARK    4  A    between atoms: C_11  and  C_12 
ROOT
HETATM    1  N   UNL     1     -43.646 -52.912  15.987  1.00  0.00     0.088 N 
HETATM    2  H   UNL     1     -43.156 -52.045  16.211  1.00  0.00     0.316 HD
ENDROOT
BRANCH   1   3
HETATM    3  C   UNL     1     -44.787 -53.093  16.902  1.00  0.00     0.220 C 
HETATM    4  C   UNL     1     -46.041 -53.449  16.082  1.00  0.00     0.036 C 
HETATM    5  C   UNL     1     -46.595 -52.266  15.286  1.00  0.00     0.007 C 
HETATM    6  C   UNL     1     -46.850 -51.022  16.159  1.00  0.00    -0.015 C 
HETATM    7  C   UNL     1     -48.099 -51.222  17.027  1.00  0.00     0.010 C 
HETATM    8  C   UNL     1     -45.580 -50.664  16.971  1.00  0.00    -0.013 C 
HETATM    9  C   UNL     1     -45.080 -51.868  17.787  1.00  0.00     0.040 C 
HETATM   10  C   UNL     1     -45.764 -49.447  17.877  1.00  0.00     0.010 C 
ENDBRANCH   1   3
BRANCH   1  11
HETATM   11  C   UNL     1     -42.672 -54.007  15.985  1.00  0.00     0.275 C 
BRANCH  11  12
HETATM   12  C   UNL     1     -42.671 -54.835  14.693  1.00  0.00     0.073 C 
BRANCH  12  13
HETATM   13  C   UNL     1     -42.094 -54.073  13.554  1.00  0.00    -0.001 A 
HETATM   14  C   UNL     1     -42.769 -53.338  12.546  1.00  0.00     0.037 A 
HETATM   15  C   UNL     1     -44.225 -53.124  12.368  1.00  0.00     0.071 C 
HETATM   16  N   UNL     1     -41.907 -52.777  11.691  1.00  0.00    -0.265 N 
HETATM   17  O   UNL     1     -40.649 -53.141  12.130  1.00  0.00    -0.242 OA
ATOM     18  HN  UNL     1     -42.131 -52.199  10.881  1.00  0.00     0.194 HD
HETATM   19  C   UNL     1     -40.761 -53.910  13.243  1.00  0.00     0.081 A 
HETATM   20  C   UNL     1     -39.504 -54.374  13.857  1.00  0.00     0.079 C 
ENDBRANCH  12  13
ENDBRANCH  11  12
ENDBRANCH   1  11
TORSDOF 4
ENDMDL
MODEL 9
REMARK VINA RESULT:      -5.0      2.807      5.916
REMARK  4 active torsions:
REMARK  status: ('A' for Active; 'I' for Inactive)
REMARK    1  A    between atoms: C_5  and  N_9 
REMARK    2  A    between atoms: N_9  and  C_10 
REMARK    3  A    between atoms: C_10  and  C_11 
REMARK    4  A    between atoms: C_11  and  C_12 
ROOT
HETATM    1  N   UNL     1     -44.123 -54.626  15.323  1.00  0.00     0.088 N 
HETATM    2  H   UNL     1     -44.260 -55.425  15.943  1.00  0.00     0.316 HD
ENDROOT
BRANCH   1   3
HETATM    3  C   UNL     1     -45.210 -54.572  14.330  1.00  0.00     0.220 C 
HETATM    4  C   UNL     1     -44.666 -53.978  13.018  1.00  0.00     0.036 C 
HETATM    5  C   UNL     1     -44.389 -52.476  13.108  1.00  0.00     0.007 C 
HETATM    6  C   UNL     1     -45.603 -51.670  13.609  1.00  0.00    -0.015 C 
HETATM    7  C   UNL     1     -46.668 -51.566  12.509  1.00  0.00     0.010 C 
HETATM    8  C   UNL     1     -46.137 -52.268  14.935  1.00  0.00    -0.013 C 
HETATM    9  C   UNL     1     -46.440 -53.769  14.789  1.00  0.00     0.040 C 
HETATM   10  C   UNL     1     -47.356 -51.529  15.484  1.00  0.00     0.010 C 
ENDBRANCH   1   3
BRANCH   1  11
HETATM   11  C   UNL     1     -42.772 -54.702  14.761  1.00  0.00     0.275 C 
BRANCH  11  12
HETATM   12  C   UNL     1     -41.705 -54.000  15.612  1.00  0.00     0.073 C 
BRANCH  12  13
HETATM   13  C   UNL     1     -40.414 -54.739  15.592  1.00  0.00    -0.001 A 
HETATM   14  C   UNL     1     -39.220 -54.421  14.895  1.00  0.00     0.037 A 
HETATM   15  C   UNL     1     -38.938 -53.263  14.014  1.00  0.00     0.071 C 
HETATM   16  N   UNL     1     -38.262 -55.324  15.132  1.00  0.00    -0.265 N 
HETATM   17  O   UNL     1     -38.820 -56.251  15.991  1.00  0.00    -0.242 OA
ATOM     18  HN  UNL     1     -37.314 -55.328  14.756  1.00  0.00     0.194 HD
HETATM   19  C   UNL     1     -40.102 -55.899  16.268  1.00  0.00     0.081 A 
HETATM   20  C   UNL     1     -40.845 -56.777  17.190  1.00  0.00     0.079 C 
ENDBRANCH  12  13
ENDBRANCH  11  12
ENDBRANCH   1  11
TORSDOF 4
ENDMDL
