MODEL 1
REMARK VINA RESULT:      -6.7      0.000      0.000
REMARK  7 active torsions:
REMARK  status: ('A' for Active; 'I' for Inactive)
REMARK    1  A    between atoms: N_8  and  C_9 
REMARK    2  A    between atoms: C_9  and  C_10 
REMARK    3  A    between atoms: C_10  and  O_11 
REMARK    4  A    between atoms: C_10  and  C_12 
REMARK    5  A    between atoms: C_12  and  O_13 
REMARK    6  A    between atoms: O_13  and  C_14 
REMARK    7  A    between atoms: C_14  and  C_15 
ROOT
HETATM    1  C   UNL     1     -46.293 -54.610  14.410  1.00  0.00     0.049 C 
HETATM    2  C   UNL     1     -45.270 -53.650  13.865  1.00  0.00    -0.054 A 
HETATM    3  C   UNL     1     -44.056 -54.168  13.373  1.00  0.00     0.039 A 
HETATM    4  C   UNL     1     -43.076 -53.293  12.884  1.00  0.00     0.060 A 
HETATM    5  N   UNL     1     -41.835 -53.578  12.368  1.00  0.00    -0.350 N 
ATOM      6  HN  UNL     1     -41.415 -54.498  12.236  1.00  0.00     0.166 HD
HETATM    7  C   UNL     1     -41.309 -52.411  12.082  1.00  0.00     0.184 A 
HETATM    8  N   UNL     1     -42.158 -51.382  12.387  1.00  0.00    -0.339 N 
HETATM    9  C   UNL     1     -43.317 -51.922  12.889  1.00  0.00     0.062 A 
HETATM   10  C   UNL     1     -44.519 -51.372  13.350  1.00  0.00     0.039 A 
HETATM   11  C   UNL     1     -45.500 -52.257  13.849  1.00  0.00    -0.054 A 
HETATM   12  C   UNL     1     -46.790 -51.683  14.374  1.00  0.00     0.049 C 
ENDROOT
BRANCH   8  13
HETATM   13  C   UNL     1     -41.858 -49.975  12.188  1.00  0.00     0.164 C 
BRANCH  13  14
HETATM   14  C   UNL     1     -40.475 -49.749  11.557  1.00  0.00     0.160 C 
BRANCH  14  15
HETATM   15  O   UNL     1     -40.507 -49.942  10.138  1.00  0.00    -0.392 OA
HETATM   16  H   UNL     1     -39.761 -50.508   9.875  1.00  0.00     0.210 HD
ENDBRANCH  14  15
BRANCH  14  17
HETATM   17  C   UNL     1     -39.955 -48.335  11.845  1.00  0.00     0.201 C 
BRANCH  17  18
HETATM   18  O   UNL     1     -41.035 -47.413  11.815  1.00  0.00    -0.382 OA
BRANCH  18  19
HETATM   19  C   UNL     1     -40.940 -46.509  10.711  1.00  0.00     0.232 C 
BRANCH  19  20
HETATM   20  C   UNL     1     -42.248 -46.553  10.016  1.00  0.00     0.076 A 
HETATM   21  C   UNL     1     -43.113 -47.576   9.684  1.00  0.00     0.037 A 
HETATM   22  C   UNL     1     -44.206 -46.979   9.017  1.00  0.00     0.027 A 
HETATM   23  C   UNL     1     -43.945 -45.628   8.992  1.00  0.00     0.142 A 
HETATM   24  O   UNL     1     -42.760 -45.359   9.599  1.00  0.00    -0.325 OA
ENDBRANCH  19  20
ENDBRANCH  18  19
ENDBRANCH  17  18
ENDBRANCH  14  17
ENDBRANCH  13  14
ENDBRANCH   8  13
TORSDOF 7
ENDMDL
MODEL 2
REMARK VINA RESULT:      -6.6      3.952      5.066
REMARK  7 active torsions:
REMARK  status: ('A' for Active; 'I' for Inactive)
REMARK    1  A    between atoms: N_8  and  C_9 
REMARK    2  A    between atoms: C_9  and  C_10 
REMARK    3  A    between atoms: C_10  and  O_11 
REMARK    4  A    between atoms: C_10  and  C_12 
REMARK    5  A    between atoms: C_12  and  O_13 
REMARK    6  A    between atoms: O_13  and  C_14 
REMARK    7  A    between atoms: C_14  and  C_15 
ROOT
HETATM    1  C   UNL     1     -47.853 -51.220  16.782  1.00  0.00     0.049 C 
HETATM    2  C   UNL     1     -46.683 -51.464  15.867  1.00  0.00    -0.054 A 
HETATM    3  C   UNL     1     -46.838 -52.373  14.803  1.00  0.00     0.039 A 
HETATM    4  C   UNL     1     -45.756 -52.637  13.951  1.00  0.00     0.060 A 
HETATM    5  N   UNL     1     -45.687 -53.479  12.869  1.00  0.00    -0.350 N 
ATOM      6  HN  UNL     1     -46.434 -54.056  12.483  1.00  0.00     0.166 HD
HETATM    7  C   UNL     1     -44.452 -53.381  12.439  1.00  0.00     0.184 A 
HETATM    8  N   UNL     1     -43.719 -52.506  13.196  1.00  0.00    -0.339 N 
HETATM    9  C   UNL     1     -44.541 -51.994  14.169  1.00  0.00     0.062 A 
HETATM   10  C   UNL     1     -44.355 -51.069  15.203  1.00  0.00     0.039 A 
HETATM   11  C   UNL     1     -45.445 -50.812  16.062  1.00  0.00    -0.054 A 
HETATM   12  C   UNL     1     -45.258 -49.839  17.197  1.00  0.00     0.049 C 
ENDROOT
BRANCH   8  13
HETATM   13  C   UNL     1     -42.319 -52.189  12.970  1.00  0.00     0.164 C 
BRANCH  13  14
HETATM   14  C   UNL     1     -41.492 -53.418  12.563  1.00  0.00     0.160 C 
BRANCH  14  15
HETATM   15  O   UNL     1     -40.640 -53.133  11.448  1.00  0.00    -0.392 OA
HETATM   16  H   UNL     1     -39.757 -53.503  11.617  1.00  0.00     0.210 HD
ENDBRANCH  14  15
BRANCH  14  17
HETATM   17  C   UNL     1     -40.624 -53.915  13.726  1.00  0.00     0.201 C 
BRANCH  17  18
HETATM   18  O   UNL     1     -39.289 -53.460  13.554  1.00  0.00    -0.382 OA
BRANCH  18  19
HETATM   19  C   UNL     1     -38.954 -52.416  14.471  1.00  0.00     0.232 C 
BRANCH  19  20
HETATM   20  C   UNL     1     -38.498 -51.267  13.654  1.00  0.00     0.076 A 
HETATM   21  C   UNL     1     -38.334 -49.922  13.916  1.00  0.00     0.037 A 
HETATM   22  C   UNL     1     -37.867 -49.333  12.719  1.00  0.00     0.027 A 
HETATM   23  C   UNL     1     -37.766 -50.356  11.805  1.00  0.00     0.142 A 
HETATM   24  O   UNL     1     -38.143 -51.535  12.365  1.00  0.00    -0.325 OA
ENDBRANCH  19  20
ENDBRANCH  18  19
ENDBRANCH  17  18
ENDBRANCH  14  17
ENDBRANCH  13  14
ENDBRANCH   8  13
TORSDOF 7
ENDMDL
MODEL 3
REMARK VINA RESULT:      -6.2      3.057      5.426
REMARK  7 active torsions:
REMARK  status: ('A' for Active; 'I' for Inactive)
REMARK    1  A    between atoms: N_8  and  C_9 
REMARK    2  A    between atoms: C_9  and  C_10 
REMARK    3  A    between atoms: C_10  and  O_11 
REMARK    4  A    between atoms: C_10  and  C_12 
REMARK    5  A    between atoms: C_12  and  O_13 
REMARK    6  A    between atoms: O_13  and  C_14 
REMARK    7  A    between atoms: C_14  and  C_15 
ROOT
HETATM    1  C   UNL     1     -47.222 -51.693  15.670  1.00  0.00     0.049 C 
HETATM    2  C   UNL     1     -45.906 -51.230  15.106  1.00  0.00    -0.054 A 
HETATM    3  C   UNL     1     -44.919 -50.762  15.996  1.00  0.00     0.039 A 
HETATM    4  C   UNL     1     -43.694 -50.302  15.495  1.00  0.00     0.060 A 
HETATM    5  N   UNL     1     -42.609 -49.805  16.174  1.00  0.00    -0.350 N 
ATOM      6  HN  UNL     1     -42.503 -49.700  17.183  1.00  0.00     0.166 HD
HETATM    7  C   UNL     1     -41.738 -49.494  15.244  1.00  0.00     0.184 A 
HETATM    8  N   UNL     1     -42.212 -49.774  13.990  1.00  0.00    -0.339 N 
HETATM    9  C   UNL     1     -43.467 -50.316  14.122  1.00  0.00     0.062 A 
HETATM   10  C   UNL     1     -44.415 -50.792  13.209  1.00  0.00     0.039 A 
HETATM   11  C   UNL     1     -45.650 -51.248  13.718  1.00  0.00    -0.054 A 
HETATM   12  C   UNL     1     -46.693 -51.742  12.749  1.00  0.00     0.049 C 
ENDROOT
BRANCH   8  13
HETATM   13  C   UNL     1     -41.481 -49.538  12.757  1.00  0.00     0.164 C 
BRANCH  13  14
HETATM   14  C   UNL     1     -41.124 -50.840  12.023  1.00  0.00     0.160 C 
BRANCH  14  15
HETATM   15  O   UNL     1     -40.632 -50.581  10.703  1.00  0.00    -0.392 OA
HETATM   16  H   UNL     1     -40.222 -49.700  10.681  1.00  0.00     0.210 HD
ENDBRANCH  14  15
BRANCH  14  17
HETATM   17  C   UNL     1     -40.065 -51.641  12.790  1.00  0.00     0.201 C 
BRANCH  17  18
HETATM   18  O   UNL     1     -40.168 -53.017  12.452  1.00  0.00    -0.382 OA
BRANCH  18  19
HETATM   19  C   UNL     1     -40.149 -53.858  13.606  1.00  0.00     0.232 C 
BRANCH  19  20
HETATM   20  C   UNL     1     -41.552 -53.975  14.067  1.00  0.00     0.076 A 
HETATM   21  C   UNL     1     -42.161 -53.844  15.299  1.00  0.00     0.037 A 
HETATM   22  C   UNL     1     -43.540 -54.078  15.093  1.00  0.00     0.027 A 
HETATM   23  C   UNL     1     -43.688 -54.327  13.749  1.00  0.00     0.142 A 
HETATM   24  O   UNL     1     -42.488 -54.262  13.116  1.00  0.00    -0.325 OA
ENDBRANCH  19  20
ENDBRANCH  18  19
ENDBRANCH  17  18
ENDBRANCH  14  17
ENDBRANCH  13  14
ENDBRANCH   8  13
TORSDOF 7
ENDMDL
MODEL 4
REMARK VINA RESULT:      -5.7      2.743      4.899
REMARK  7 active torsions:
REMARK  status: ('A' for Active; 'I' for Inactive)
REMARK    1  A    between atoms: N_8  and  C_9 
REMARK    2  A    between atoms: C_9  and  C_10 
REMARK    3  A    between atoms: C_10  and  O_11 
REMARK    4  A    between atoms: C_10  and  C_12 
REMARK    5  A    between atoms: C_12  and  O_13 
REMARK    6  A    between atoms: O_13  and  C_14 
REMARK    7  A    between atoms: C_14  and  C_15 
ROOT
HETATM    1  C   UNL     1     -46.341 -54.554  14.494  1.00  0.00     0.049 C 
HETATM    2  C   UNL     1     -45.228 -53.710  13.933  1.00  0.00    -0.054 A 
HETATM    3  C   UNL     1     -44.055 -54.350  13.488  1.00  0.00     0.039 A 
HETATM    4  C   UNL     1     -42.995 -53.585  12.985  1.00  0.00     0.060 A 
HETATM    5  N   UNL     1     -41.775 -53.998  12.508  1.00  0.00    -0.350 N 
ATOM      6  HN  UNL     1     -41.434 -54.955  12.422  1.00  0.00     0.166 HD
HETATM    7  C   UNL     1     -41.143 -52.894  12.187  1.00  0.00     0.184 A 
HETATM    8  N   UNL     1     -41.905 -51.783  12.432  1.00  0.00    -0.339 N 
HETATM    9  C   UNL     1     -43.115 -52.199  12.930  1.00  0.00     0.062 A 
HETATM   10  C   UNL     1     -44.272 -51.529  13.343  1.00  0.00     0.039 A 
HETATM   11  C   UNL     1     -45.335 -52.304  13.855  1.00  0.00    -0.054 A 
HETATM   12  C   UNL     1     -46.580 -51.599  14.330  1.00  0.00     0.049 C 
ENDROOT
BRANCH   8  13
HETATM   13  C   UNL     1     -41.480 -50.417  12.183  1.00  0.00     0.164 C 
BRANCH  13  14
HETATM   14  C   UNL     1     -40.210 -50.341  11.321  1.00  0.00     0.160 C 
BRANCH  14  15
HETATM   15  O   UNL     1     -40.481 -49.772  10.034  1.00  0.00    -0.392 OA
HETATM   16  H   UNL     1     -39.640 -49.558   9.595  1.00  0.00     0.210 HD
ENDBRANCH  14  15
BRANCH  14  17
HETATM   17  C   UNL     1     -39.121 -49.504  12.004  1.00  0.00     0.201 C 
BRANCH  17  18
HETATM   18  O   UNL     1     -38.256 -50.356  12.742  1.00  0.00    -0.382 OA
BRANCH  18  19
HETATM   19  C   UNL     1     -37.840 -49.764  13.974  1.00  0.00     0.232 C 
BRANCH  19  20
HETATM   20  C   UNL     1     -38.119 -50.760  15.036  1.00  0.00     0.076 A 
HETATM   21  C   UNL     1     -38.940 -51.868  15.106  1.00  0.00     0.037 A 
HETATM   22  C   UNL     1     -38.771 -52.411  16.400  1.00  0.00     0.027 A 
HETATM   23  C   UNL     1     -37.852 -51.608  17.034  1.00  0.00     0.142 A 
HETATM   24  O   UNL     1     -37.447 -50.605  16.213  1.00  0.00    -0.325 OA
ENDBRANCH  19  20
ENDBRANCH  18  19
ENDBRANCH  17  18
ENDBRANCH  14  17
ENDBRANCH  13  14
ENDBRANCH   8  13
TORSDOF 7
ENDMDL
MODEL 5
REMARK VINA RESULT:      -5.6      4.147      7.189
REMARK  7 active torsions:
REMARK  status: ('A' for Active; 'I' for Inactive)
REMARK    1  A    between atoms: N_8  and  C_9 
REMARK    2  A    between atoms: C_9  and  C_10 
REMARK    3  A    between atoms: C_10  and  O_11 
REMARK    4  A    between atoms: C_10  and  C_12 
REMARK    5  A    between atoms: C_12  and  O_13 
REMARK    6  A    between atoms: O_13  and  C_14 
REMARK    7  A    between atoms: C_14  and  C_15 
ROOT
HETATM    1  C   UNL     1     -47.550 -51.295  16.955  1.00  0.00     0.049 C 
HETATM    2  C   UNL     1     -46.469 -51.491  15.928  1.00  0.00    -0.054 A 
HETATM    3  C   UNL     1     -46.664 -52.457  14.921  1.00  0.00     0.039 A 
HETATM    4  C   UNL     1     -45.662 -52.676  13.966  1.00  0.00     0.060 A 
HETATM    5  N   UNL     1     -45.642 -53.560  12.915  1.00  0.00    -0.350 N 
ATOM      6  HN  UNL     1     -46.377 -54.208  12.635  1.00  0.00     0.166 HD
HETATM    7  C   UNL     1     -44.471 -53.389  12.348  1.00  0.00     0.184 A 
HETATM    8  N   UNL     1     -43.734 -52.428  12.986  1.00  0.00    -0.339 N 
HETATM    9  C   UNL     1     -44.486 -51.935  14.024  1.00  0.00     0.062 A 
HETATM   10  C   UNL     1     -44.264 -50.953  14.997  1.00  0.00     0.039 A 
HETATM   11  C   UNL     1     -45.274 -50.740  15.960  1.00  0.00    -0.054 A 
HETATM   12  C   UNL     1     -45.044 -49.704  17.031  1.00  0.00     0.049 C 
ENDROOT
BRANCH   8  13
HETATM   13  C   UNL     1     -42.396 -52.016  12.596  1.00  0.00     0.164 C 
BRANCH  13  14
HETATM   14  C   UNL     1     -41.353 -53.125  12.801  1.00  0.00     0.160 C 
BRANCH  14  15
HETATM   15  O   UNL     1     -40.600 -53.366  11.606  1.00  0.00    -0.392 OA
HETATM   16  H   UNL     1     -40.499 -54.325  11.479  1.00  0.00     0.210 HD
ENDBRANCH  14  15
BRANCH  14  17
HETATM   17  C   UNL     1     -40.377 -52.771  13.929  1.00  0.00     0.201 C 
BRANCH  17  18
HETATM   18  O   UNL     1     -40.427 -53.773  14.936  1.00  0.00    -0.382 OA
BRANCH  18  19
HETATM   19  C   UNL     1     -39.125 -54.127  15.408  1.00  0.00     0.232 C 
BRANCH  19  20
HETATM   20  C   UNL     1     -39.287 -55.368  16.201  1.00  0.00     0.076 A 
HETATM   21  C   UNL     1     -38.402 -56.190  16.870  1.00  0.00     0.037 A 
HETATM   22  C   UNL     1     -39.171 -57.231  17.437  1.00  0.00     0.027 A 
HETATM   23  C   UNL     1     -40.477 -56.976  17.088  1.00  0.00     0.142 A 
HETATM   24  O   UNL     1     -40.558 -55.845  16.340  1.00  0.00    -0.325 OA
ENDBRANCH  19  20
ENDBRANCH  18  19
ENDBRANCH  17  18
ENDBRANCH  14  17
ENDBRANCH  13  14
ENDBRANCH   8  13
TORSDOF 7
ENDMDL
MODEL 6
REMARK VINA RESULT:      -5.6      2.802      3.732
REMARK  7 active torsions:
REMARK  status: ('A' for Active; 'I' for Inactive)
REMARK    1  A    between atoms: N_8  and  C_9 
REMARK    2  A    between atoms: C_9  and  C_10 
REMARK    3  A    between atoms: C_10  and  O_11 
REMARK    4  A    between atoms: C_10  and  C_12 
REMARK    5  A    between atoms: C_12  and  O_13 
REMARK    6  A    between atoms: O_13  and  C_14 
REMARK    7  A    between atoms: C_14  and  C_15 
ROOT
HETATM    1  C   UNL     1     -38.517 -55.168  16.263  1.00  0.00     0.049 C 
HETATM    2  C   UNL     1     -39.103 -54.111  15.367  1.00  0.00    -0.054 A 
HETATM    3  C   UNL     1     -39.763 -54.516  14.190  1.00  0.00     0.039 A 
HETATM    4  C   UNL     1     -40.297 -53.550  13.326  1.00  0.00     0.060 A 
HETATM    5  N   UNL     1     -40.967 -53.721  12.139  1.00  0.00    -0.350 N 
ATOM      6  HN  UNL     1     -41.209 -54.601  11.685  1.00  0.00     0.166 HD
HETATM    7  C   UNL     1     -41.227 -52.507  11.717  1.00  0.00     0.184 A 
HETATM    8  N   UNL     1     -40.757 -51.556  12.583  1.00  0.00    -0.339 N 
HETATM    9  C   UNL     1     -40.168 -52.201  13.643  1.00  0.00     0.062 A 
HETATM   10  C   UNL     1     -39.538 -51.761  14.812  1.00  0.00     0.039 A 
HETATM   11  C   UNL     1     -38.996 -52.737  15.677  1.00  0.00    -0.054 A 
HETATM   12  C   UNL     1     -38.290 -52.283  16.928  1.00  0.00     0.049 C 
ENDROOT
BRANCH   8  13
HETATM   13  C   UNL     1     -40.889 -50.123  12.389  1.00  0.00     0.164 C 
BRANCH  13  14
HETATM   14  C   UNL     1     -39.560 -49.453  12.007  1.00  0.00     0.160 C 
BRANCH  14  15
HETATM   15  O   UNL     1     -38.987 -50.050  10.838  1.00  0.00    -0.392 OA
HETATM   16  H   UNL     1     -38.917 -51.011  10.971  1.00  0.00     0.210 HD
ENDBRANCH  14  15
BRANCH  14  17
HETATM   17  C   UNL     1     -39.745 -47.953  11.747  1.00  0.00     0.201 C 
BRANCH  17  18
HETATM   18  O   UNL     1     -41.001 -47.531  12.259  1.00  0.00    -0.382 OA
BRANCH  18  19
HETATM   19  C   UNL     1     -41.420 -46.284  11.699  1.00  0.00     0.232 C 
BRANCH  19  20
HETATM   20  C   UNL     1     -42.411 -46.606  10.646  1.00  0.00     0.076 A 
HETATM   21  C   UNL     1     -43.322 -47.630  10.480  1.00  0.00     0.037 A 
HETATM   22  C   UNL     1     -43.985 -47.384   9.257  1.00  0.00     0.027 A 
HETATM   23  C   UNL     1     -43.445 -46.222   8.757  1.00  0.00     0.142 A 
HETATM   24  O   UNL     1     -42.491 -45.740   9.595  1.00  0.00    -0.325 OA
ENDBRANCH  19  20
ENDBRANCH  18  19
ENDBRANCH  17  18
ENDBRANCH  14  17
ENDBRANCH  13  14
ENDBRANCH   8  13
TORSDOF 7
ENDMDL
MODEL 7
REMARK VINA RESULT:      -5.6      2.737      7.198
REMARK  7 active torsions:
REMARK  status: ('A' for Active; 'I' for Inactive)
REMARK    1  A    between atoms: N_8  and  C_9 
REMARK    2  A    between atoms: C_9  and  C_10 
REMARK    3  A    between atoms: C_10  and  O_11 
REMARK    4  A    between atoms: C_10  and  C_12 
REMARK    5  A    between atoms: C_12  and  O_13 
REMARK    6  A    between atoms: O_13  and  C_14 
REMARK    7  A    between atoms: C_14  and  C_15 
ROOT
HETATM    1  C   UNL     1     -39.288 -43.668  12.864  1.00  0.00     0.049 C 
HETATM    2  C   UNL     1     -39.363 -45.170  12.805  1.00  0.00    -0.054 A 
HETATM    3  C   UNL     1     -38.933 -45.910  13.924  1.00  0.00     0.039 A 
HETATM    4  C   UNL     1     -38.969 -47.310  13.885  1.00  0.00     0.060 A 
HETATM    5  N   UNL     1     -38.599 -48.216  14.848  1.00  0.00    -0.350 N 
ATOM      6  HN  UNL     1     -38.242 -48.017  15.782  1.00  0.00     0.166 HD
HETATM    7  C   UNL     1     -38.803 -49.393  14.306  1.00  0.00     0.184 A 
HETATM    8  N   UNL     1     -39.295 -49.287  13.033  1.00  0.00    -0.339 N 
HETATM    9  C   UNL     1     -39.432 -47.952  12.740  1.00  0.00     0.062 A 
HETATM   10  C   UNL     1     -39.887 -47.251  11.617  1.00  0.00     0.039 A 
HETATM   11  C   UNL     1     -39.842 -45.841  11.659  1.00  0.00    -0.054 A 
HETATM   12  C   UNL     1     -40.303 -45.067  10.450  1.00  0.00     0.049 C 
ENDROOT
BRANCH   8  13
HETATM   13  C   UNL     1     -39.619 -50.413  12.174  1.00  0.00     0.164 C 
BRANCH  13  14
HETATM   14  C   UNL     1     -41.065 -50.899  12.356  1.00  0.00     0.160 C 
BRANCH  14  15
HETATM   15  O   UNL     1     -41.973 -50.176  11.517  1.00  0.00    -0.392 OA
HETATM   16  H   UNL     1     -42.460 -49.529  12.055  1.00  0.00     0.210 HD
ENDBRANCH  14  15
BRANCH  14  17
HETATM   17  C   UNL     1     -41.196 -52.394  12.041  1.00  0.00     0.201 C 
BRANCH  17  18
HETATM   18  O   UNL     1     -42.568 -52.739  11.920  1.00  0.00    -0.382 OA
BRANCH  18  19
HETATM   19  C   UNL     1     -43.154 -53.071  13.181  1.00  0.00     0.232 C 
BRANCH  19  20
HETATM   20  C   UNL     1     -44.522 -52.503  13.174  1.00  0.00     0.076 A 
HETATM   21  C   UNL     1     -45.174 -51.586  13.974  1.00  0.00     0.037 A 
HETATM   22  C   UNL     1     -46.482 -51.460  13.457  1.00  0.00     0.027 A 
HETATM   23  C   UNL     1     -46.545 -52.298  12.368  1.00  0.00     0.142 A 
HETATM   24  O   UNL     1     -45.359 -52.933  12.186  1.00  0.00    -0.325 OA
ENDBRANCH  19  20
ENDBRANCH  18  19
ENDBRANCH  17  18
ENDBRANCH  14  17
ENDBRANCH  13  14
ENDBRANCH   8  13
TORSDOF 7
ENDMDL
MODEL 8
REMARK VINA RESULT:      -5.5      2.341      3.947
REMARK  7 active torsions:
REMARK  status: ('A' for Active; 'I' for Inactive)
REMARK    1  A    between atoms: N_8  and  C_9 
REMARK    2  A    between atoms: C_9  and  C_10 
REMARK    3  A    between atoms: C_10  and  O_11 
REMARK    4  A    between atoms: C_10  and  C_12 
REMARK    5  A    between atoms: C_12  and  O_13 
REMARK    6  A    between atoms: O_13  and  C_14 
REMARK    7  A    between atoms: C_14  and  C_15 
ROOT
HETATM    1  C   UNL     1     -48.083 -50.906  17.028  1.00  0.00     0.049 C 
HETATM    2  C   UNL     1     -46.942 -51.460  16.218  1.00  0.00    -0.054 A 
HETATM    3  C   UNL     1     -47.204 -52.510  15.316  1.00  0.00     0.039 A 
HETATM    4  C   UNL     1     -46.154 -53.060  14.568  1.00  0.00     0.060 A 
HETATM    5  N   UNL     1     -46.184 -54.078  13.647  1.00  0.00    -0.350 N 
ATOM      6  HN  UNL     1     -46.997 -54.607  13.333  1.00  0.00     0.166 HD
HETATM    7  C   UNL     1     -44.940 -54.223  13.259  1.00  0.00     0.184 A 
HETATM    8  N   UNL     1     -44.105 -53.338  13.887  1.00  0.00    -0.339 N 
HETATM    9  C   UNL     1     -44.865 -52.559  14.724  1.00  0.00     0.062 A 
HETATM   10  C   UNL     1     -44.570 -51.503  15.594  1.00  0.00     0.039 A 
HETATM   11  C   UNL     1     -45.629 -50.957  16.351  1.00  0.00    -0.054 A 
HETATM   12  C   UNL     1     -45.328 -49.836  17.313  1.00  0.00     0.049 C 
ENDROOT
BRANCH   8  13
HETATM   13  C   UNL     1     -42.671 -53.255  13.669  1.00  0.00     0.164 C 
BRANCH  13  14
HETATM   14  C   UNL     1     -42.314 -52.641  12.307  1.00  0.00     0.160 C 
BRANCH  14  15
HETATM   15  O   UNL     1     -42.913 -51.351  12.138  1.00  0.00    -0.392 OA
HETATM   16  H   UNL     1     -42.316 -50.672  12.494  1.00  0.00     0.210 HD
ENDBRANCH  14  15
BRANCH  14  17
HETATM   17  C   UNL     1     -40.796 -52.500  12.139  1.00  0.00     0.201 C 
BRANCH  17  18
HETATM   18  O   UNL     1     -40.337 -51.374  12.873  1.00  0.00    -0.382 OA
BRANCH  18  19
HETATM   19  C   UNL     1     -39.365 -50.618  12.148  1.00  0.00     0.232 C 
BRANCH  19  20
HETATM   20  C   UNL     1     -39.905 -49.244  12.025  1.00  0.00     0.076 A 
HETATM   21  C   UNL     1     -39.329 -48.017  11.763  1.00  0.00     0.037 A 
HETATM   22  C   UNL     1     -40.376 -47.069  11.780  1.00  0.00     0.027 A 
HETATM   23  C   UNL     1     -41.527 -47.776  12.041  1.00  0.00     0.142 A 
HETATM   24  O   UNL     1     -41.252 -49.098  12.188  1.00  0.00    -0.325 OA
ENDBRANCH  19  20
ENDBRANCH  18  19
ENDBRANCH  17  18
ENDBRANCH  14  17
ENDBRANCH  13  14
ENDBRANCH   8  13
TORSDOF 7
ENDMDL
MODEL 9
REMARK VINA RESULT:      -5.3      3.526      6.643
REMARK  7 active torsions:
REMARK  status: ('A' for Active; 'I' for Inactive)
REMARK    1  A    between atoms: N_8  and  C_9 
REMARK    2  A    between atoms: C_9  and  C_10 
REMARK    3  A    between atoms: C_10  and  O_11 
REMARK    4  A    between atoms: C_10  and  C_12 
REMARK    5  A    between atoms: C_12  and  O_13 
REMARK    6  A    between atoms: O_13  and  C_14 
REMARK    7  A    between atoms: C_14  and  C_15 
ROOT
HETATM    1  C   UNL     1     -38.332 -55.370  16.025  1.00  0.00     0.049 C 
HETATM    2  C   UNL     1     -39.071 -54.283  15.291  1.00  0.00    -0.054 A 
HETATM    3  C   UNL     1     -39.613 -54.575  14.023  1.00  0.00     0.039 A 
HETATM    4  C   UNL     1     -40.283 -53.573  13.308  1.00  0.00     0.060 A 
HETATM    5  N   UNL     1     -40.876 -53.638  12.071  1.00  0.00    -0.350 N 
ATOM      6  HN  UNL     1     -40.945 -54.449  11.458  1.00  0.00     0.166 HD
HETATM    7  C   UNL     1     -41.336 -52.429  11.850  1.00  0.00     0.184 A 
HETATM    8  N   UNL     1     -41.069 -51.586  12.895  1.00  0.00    -0.339 N 
HETATM    9  C   UNL     1     -40.407 -52.302  13.861  1.00  0.00     0.062 A 
HETATM   10  C   UNL     1     -39.900 -51.980  15.126  1.00  0.00     0.039 A 
HETATM   11  C   UNL     1     -39.219 -52.990  15.839  1.00  0.00    -0.054 A 
HETATM   12  C   UNL     1     -38.643 -52.657  17.192  1.00  0.00     0.049 C 
ENDROOT
BRANCH   8  13
HETATM   13  C   UNL     1     -41.448 -50.184  12.944  1.00  0.00     0.164 C 
BRANCH  13  14
HETATM   14  C   UNL     1     -42.601 -49.918  13.924  1.00  0.00     0.160 C 
BRANCH  14  15
HETATM   15  O   UNL     1     -42.807 -48.515  14.125  1.00  0.00    -0.392 OA
HETATM   16  H   UNL     1     -42.729 -48.312  15.073  1.00  0.00     0.210 HD
ENDBRANCH  14  15
BRANCH  14  17
HETATM   17  C   UNL     1     -43.913 -50.537  13.425  1.00  0.00     0.201 C 
BRANCH  17  18
HETATM   18  O   UNL     1     -44.405 -51.456  14.389  1.00  0.00    -0.382 OA
BRANCH  18  19
HETATM   19  C   UNL     1     -44.414 -52.798  13.899  1.00  0.00     0.232 C 
BRANCH  19  20
HETATM   20  C   UNL     1     -43.672 -53.614  14.888  1.00  0.00     0.076 A 
HETATM   21  C   UNL     1     -43.166 -53.353  16.146  1.00  0.00     0.037 A 
HETATM   22  C   UNL     1     -42.550 -54.546  16.587  1.00  0.00     0.027 A 
HETATM   23  C   UNL     1     -42.726 -55.462  15.576  1.00  0.00     0.142 A 
HETATM   24  O   UNL     1     -43.409 -54.907  14.542  1.00  0.00    -0.325 OA
ENDBRANCH  19  20
ENDBRANCH  18  19
ENDBRANCH  17  18
ENDBRANCH  14  17
ENDBRANCH  13  14
ENDBRANCH   8  13
TORSDOF 7
ENDMDL
