MODEL 1
REMARK VINA RESULT:      -6.9      0.000      0.000
REMARK  5 active torsions:
REMARK  status: ('A' for Active; 'I' for Inactive)
REMARK    1  A    between atoms: C_2  and  C_3 
REMARK       I    between atoms: C_2  and  N_21 
REMARK    2  A    between atoms: C_3  and  N_4 
REMARK       I    between atoms: N_4  and  C_5 
REMARK       I    between atoms: C_5  and  N_7 
REMARK    3  A    between atoms: N_7  and  C_8 
REMARK    4  A    between atoms: C_14  and  N_15 
REMARK    5  A    between atoms: N_21  and  C_22 
ROOT
HETATM    1  C   UNL     1     -46.072 -47.764   9.365  1.00  0.00     0.216 C 
HETATM    2  C   UNL     1     -46.312 -48.660   8.161  1.00  0.00    -0.098 C 
HETATM    3  C   UNL     1     -46.518 -49.428   7.128  1.00  0.00     0.014 C 
ENDROOT
BRANCH   1   4
HETATM    4  N   UNL     1     -44.667 -47.718   9.720  1.00  0.00    -0.349 N 
HETATM    5  C   UNL     1     -43.868 -46.659   9.338  1.00  0.00     0.236 C 
HETATM    6  O   UNL     1     -44.297 -45.685   8.719  1.00  0.00    -0.272 OA
HETATM    7  H   UNL     1     -44.274 -48.498  10.234  1.00  0.00     0.163 HD
BRANCH   5   8
HETATM    8  C   UNL     1     -42.401 -46.764   9.779  1.00  0.00     0.227 C 
BRANCH   8   9
HETATM    9  N   UNL     1     -41.922 -48.139   9.850  1.00  0.00    -0.334 N 
HETATM   10  C   UNL     1     -41.007 -48.490  10.831  1.00  0.00     0.321 C 
HETATM   11  O   UNL     1     -40.656 -47.688  11.688  1.00  0.00    -0.247 OA
HETATM   12  N   UNL     1     -40.529 -49.769  10.683  1.00  0.00    -0.306 N 
HETATM   13  H   UNL     1     -40.991 -50.404  10.050  1.00  0.00     0.171 HD
HETATM   14  H   UNL     1     -41.947 -48.675   8.986  1.00  0.00     0.164 HD
BRANCH  12  15
HETATM   15  C   UNL     1     -39.633 -50.369  11.605  1.00  0.00     0.080 A 
HETATM   16  C   UNL     1     -38.259 -50.208  11.355  1.00  0.00     0.035 A 
HETATM   17  C   UNL     1     -37.318 -50.659  12.267  1.00  0.00     0.019 A 
HETATM   18  C   UNL     1     -37.783 -51.264  13.410  1.00  0.00     0.090 A 
HETATM   19  N   UNL     1     -39.091 -51.418  13.694  1.00  0.00    -0.351 N 
HETATM   20  C   UNL     1     -40.038 -50.982  12.817  1.00  0.00     0.130 A 
ATOM     21  HN  UNL     1     -39.372 -51.862  14.568  1.00  0.00     0.166 HD
BRANCH  20  22
HETATM   22  N   UNL     1     -41.346 -51.253  13.184  1.00  0.00    -0.365 N 
HETATM   23  C   UNL     1     -41.817 -52.638  13.064  1.00  0.00     0.124 C 
HETATM   24  C   UNL     1     -43.211 -52.689  12.438  1.00  0.00     0.020 C 
HETATM   25  C   UNL     1     -44.181 -51.798  13.197  1.00  0.00     0.003 C 
HETATM   26  C   UNL     1     -43.646 -50.372  13.255  1.00  0.00     0.020 C 
HETATM   27  C   UNL     1     -42.233 -50.302  13.842  1.00  0.00     0.124 C 
ENDBRANCH  20  22
ENDBRANCH  12  15
ENDBRANCH   8   9
ENDBRANCH   5   8
ENDBRANCH   1   4
TORSDOF 5
ENDMDL
MODEL 2
REMARK VINA RESULT:      -6.8      2.138      3.110
REMARK  5 active torsions:
REMARK  status: ('A' for Active; 'I' for Inactive)
REMARK    1  A    between atoms: C_2  and  C_3 
REMARK       I    between atoms: C_2  and  N_21 
REMARK    2  A    between atoms: C_3  and  N_4 
REMARK       I    between atoms: N_4  and  C_5 
REMARK       I    between atoms: C_5  and  N_7 
REMARK    3  A    between atoms: N_7  and  C_8 
REMARK    4  A    between atoms: C_14  and  N_15 
REMARK    5  A    between atoms: N_21  and  C_22 
ROOT
HETATM    1  C   UNL     1     -44.350 -46.960   9.123  1.00  0.00     0.216 C 
HETATM    2  C   UNL     1     -45.723 -47.601   9.009  1.00  0.00    -0.098 C 
HETATM    3  C   UNL     1     -46.902 -48.150   8.911  1.00  0.00     0.014 C 
ENDROOT
BRANCH   1   4
HETATM    4  N   UNL     1     -43.433 -47.802   9.866  1.00  0.00    -0.349 N 
HETATM    5  C   UNL     1     -42.213 -47.321  10.301  1.00  0.00     0.236 C 
HETATM    6  O   UNL     1     -41.851 -46.157  10.125  1.00  0.00    -0.272 OA
HETATM    7  H   UNL     1     -43.694 -48.766  10.037  1.00  0.00     0.163 HD
BRANCH   5   8
HETATM    8  C   UNL     1     -41.352 -48.338  11.062  1.00  0.00     0.227 C 
BRANCH   8   9
HETATM    9  N   UNL     1     -41.981 -49.648  11.179  1.00  0.00    -0.334 N 
HETATM   10  C   UNL     1     -41.526 -50.537  12.141  1.00  0.00     0.321 C 
HETATM   11  O   UNL     1     -40.662 -50.213  12.946  1.00  0.00    -0.247 OA
HETATM   12  N   UNL     1     -42.102 -51.780  12.034  1.00  0.00    -0.306 N 
HETATM   13  H   UNL     1     -42.913 -51.905  11.448  1.00  0.00     0.171 HD
HETATM   14  H   UNL     1     -42.428 -50.014  10.342  1.00  0.00     0.164 HD
BRANCH  12  15
HETATM   15  C   UNL     1     -41.839 -52.831  12.950  1.00  0.00     0.080 A 
HETATM   16  C   UNL     1     -40.538 -53.362  12.955  1.00  0.00     0.035 A 
HETATM   17  C   UNL     1     -40.165 -54.307  13.897  1.00  0.00     0.019 A 
HETATM   18  C   UNL     1     -41.113 -54.698  14.812  1.00  0.00     0.090 A 
HETATM   19  N   UNL     1     -42.364 -54.198  14.851  1.00  0.00    -0.351 N 
HETATM   20  C   UNL     1     -42.757 -53.266  13.939  1.00  0.00     0.130 A 
ATOM     21  HN  UNL     1     -43.017 -54.519  15.566  1.00  0.00     0.166 HD
BRANCH  20  22
HETATM   22  N   UNL     1     -44.082 -52.873  14.036  1.00  0.00    -0.365 N 
HETATM   23  C   UNL     1     -45.013 -53.349  13.006  1.00  0.00     0.124 C 
HETATM   24  C   UNL     1     -45.927 -52.220  12.530  1.00  0.00     0.020 C 
HETATM   25  C   UNL     1     -46.631 -51.558  13.704  1.00  0.00     0.003 C 
HETATM   26  C   UNL     1     -45.606 -51.059  14.715  1.00  0.00     0.020 C 
HETATM   27  C   UNL     1     -44.654 -52.168  15.176  1.00  0.00     0.124 C 
ENDBRANCH  20  22
ENDBRANCH  12  15
ENDBRANCH   8   9
ENDBRANCH   5   8
ENDBRANCH   1   4
TORSDOF 5
ENDMDL
MODEL 3
REMARK VINA RESULT:      -6.8      2.971      5.561
REMARK  5 active torsions:
REMARK  status: ('A' for Active; 'I' for Inactive)
REMARK    1  A    between atoms: C_2  and  C_3 
REMARK       I    between atoms: C_2  and  N_21 
REMARK    2  A    between atoms: C_3  and  N_4 
REMARK       I    between atoms: N_4  and  C_5 
REMARK       I    between atoms: C_5  and  N_7 
REMARK    3  A    between atoms: N_7  and  C_8 
REMARK    4  A    between atoms: C_14  and  N_15 
REMARK    5  A    between atoms: N_21  and  C_22 
ROOT
HETATM    1  C   UNL     1     -46.120 -51.900  12.903  1.00  0.00     0.216 C 
HETATM    2  C   UNL     1     -46.686 -51.627  14.286  1.00  0.00    -0.098 C 
HETATM    3  C   UNL     1     -47.173 -51.393  15.473  1.00  0.00     0.014 C 
ENDROOT
BRANCH   1   4
HETATM    4  N   UNL     1     -44.672 -51.960  12.925  1.00  0.00    -0.349 N 
HETATM    5  C   UNL     1     -44.000 -53.134  12.646  1.00  0.00     0.236 C 
HETATM    6  O   UNL     1     -44.575 -54.175  12.325  1.00  0.00    -0.272 OA
HETATM    7  H   UNL     1     -44.159 -51.124  13.180  1.00  0.00     0.163 HD
BRANCH   5   8
HETATM    8  C   UNL     1     -42.470 -53.037  12.724  1.00  0.00     0.227 C 
BRANCH   8   9
HETATM    9  N   UNL     1     -41.903 -52.118  11.746  1.00  0.00    -0.334 N 
HETATM   10  C   UNL     1     -41.736 -50.784  12.083  1.00  0.00     0.321 C 
HETATM   11  O   UNL     1     -41.981 -50.380  13.213  1.00  0.00    -0.247 OA
HETATM   12  N   UNL     1     -41.339 -50.009  11.020  1.00  0.00    -0.306 N 
HETATM   13  H   UNL     1     -41.010 -50.452  10.176  1.00  0.00     0.171 HD
HETATM   14  H   UNL     1     -42.018 -52.368  10.767  1.00  0.00     0.164 HD
BRANCH  12  15
HETATM   15  C   UNL     1     -41.044 -48.627  11.142  1.00  0.00     0.080 A 
HETATM   16  C   UNL     1     -41.959 -47.727  10.570  1.00  0.00     0.035 A 
HETATM   17  C   UNL     1     -41.809 -46.360  10.745  1.00  0.00     0.019 A 
HETATM   18  C   UNL     1     -40.738 -45.932  11.491  1.00  0.00     0.090 A 
HETATM   19  N   UNL     1     -39.850 -46.764  12.071  1.00  0.00    -0.351 N 
HETATM   20  C   UNL     1     -39.975 -48.112  11.917  1.00  0.00     0.130 A 
ATOM     21  HN  UNL     1     -39.084 -46.383  12.626  1.00  0.00     0.166 HD
BRANCH  20  22
HETATM   22  N   UNL     1     -38.970 -48.864  12.503  1.00  0.00    -0.365 N 
HETATM   23  C   UNL     1     -37.864 -49.311  11.648  1.00  0.00     0.124 C 
HETATM   24  C   UNL     1     -37.519 -50.775  11.920  1.00  0.00     0.020 C 
HETATM   25  C   UNL     1     -37.254 -51.006  13.399  1.00  0.00     0.003 C 
HETATM   26  C   UNL     1     -38.452 -50.552  14.223  1.00  0.00     0.020 C 
HETATM   27  C   UNL     1     -38.840 -49.098  13.936  1.00  0.00     0.124 C 
ENDBRANCH  20  22
ENDBRANCH  12  15
ENDBRANCH   8   9
ENDBRANCH   5   8
ENDBRANCH   1   4
TORSDOF 5
ENDMDL
MODEL 4
REMARK VINA RESULT:      -6.5      3.079      5.258
REMARK  5 active torsions:
REMARK  status: ('A' for Active; 'I' for Inactive)
REMARK    1  A    between atoms: C_2  and  C_3 
REMARK       I    between atoms: C_2  and  N_21 
REMARK    2  A    between atoms: C_3  and  N_4 
REMARK       I    between atoms: N_4  and  C_5 
REMARK       I    between atoms: C_5  and  N_7 
REMARK    3  A    between atoms: N_7  and  C_8 
REMARK    4  A    between atoms: C_14  and  N_15 
REMARK    5  A    between atoms: N_21  and  C_22 
ROOT
HETATM    1  C   UNL     1     -46.529 -51.271  14.114  1.00  0.00     0.216 C 
HETATM    2  C   UNL     1     -47.069 -51.439  15.526  1.00  0.00    -0.098 C 
HETATM    3  C   UNL     1     -47.532 -51.583  16.736  1.00  0.00     0.014 C 
ENDROOT
BRANCH   1   4
HETATM    4  N   UNL     1     -45.390 -52.135  13.876  1.00  0.00    -0.349 N 
HETATM    5  C   UNL     1     -45.276 -52.863  12.708  1.00  0.00     0.236 C 
HETATM    6  O   UNL     1     -46.097 -52.796  11.794  1.00  0.00    -0.272 OA
HETATM    7  H   UNL     1     -44.687 -52.216  14.602  1.00  0.00     0.163 HD
BRANCH   5   8
HETATM    8  C   UNL     1     -44.019 -53.739  12.614  1.00  0.00     0.227 C 
BRANCH   8   9
HETATM    9  N   UNL     1     -42.936 -53.110  11.867  1.00  0.00    -0.334 N 
HETATM   10  C   UNL     1     -42.068 -52.250  12.522  1.00  0.00     0.321 C 
HETATM   11  O   UNL     1     -42.145 -52.072  13.732  1.00  0.00    -0.247 OA
HETATM   12  N   UNL     1     -41.200 -51.614  11.669  1.00  0.00    -0.306 N 
HETATM   13  H   UNL     1     -41.105 -51.941  10.719  1.00  0.00     0.171 HD
HETATM   14  H   UNL     1     -43.080 -52.997  10.867  1.00  0.00     0.164 HD
BRANCH  12  15
HETATM   15  C   UNL     1     -40.179 -50.739  12.119  1.00  0.00     0.080 A 
HETATM   16  C   UNL     1     -38.957 -51.324  12.494  1.00  0.00     0.035 A 
HETATM   17  C   UNL     1     -37.870 -50.534  12.832  1.00  0.00     0.019 A 
HETATM   18  C   UNL     1     -38.040 -49.171  12.787  1.00  0.00     0.090 A 
HETATM   19  N   UNL     1     -39.188 -48.573  12.414  1.00  0.00    -0.351 N 
HETATM   20  C   UNL     1     -40.272 -49.325  12.074  1.00  0.00     0.130 A 
ATOM     21  HN  UNL     1     -39.245 -47.555  12.386  1.00  0.00     0.166 HD
BRANCH  20  22
HETATM   22  N   UNL     1     -41.415 -48.602  11.770  1.00  0.00    -0.365 N 
HETATM   23  C   UNL     1     -41.634 -48.228  10.368  1.00  0.00     0.124 C 
HETATM   24  C   UNL     1     -42.092 -46.774  10.255  1.00  0.00     0.020 C 
HETATM   25  C   UNL     1     -43.305 -46.515  11.134  1.00  0.00     0.003 C 
HETATM   26  C   UNL     1     -42.996 -46.893  12.577  1.00  0.00     0.020 C 
HETATM   27  C   UNL     1     -42.497 -48.336  12.708  1.00  0.00     0.124 C 
ENDBRANCH  20  22
ENDBRANCH  12  15
ENDBRANCH   8   9
ENDBRANCH   5   8
ENDBRANCH   1   4
TORSDOF 5
ENDMDL
MODEL 5
REMARK VINA RESULT:      -6.1      2.994      4.551
REMARK  5 active torsions:
REMARK  status: ('A' for Active; 'I' for Inactive)
REMARK    1  A    between atoms: C_2  and  C_3 
REMARK       I    between atoms: C_2  and  N_21 
REMARK    2  A    between atoms: C_3  and  N_4 
REMARK       I    between atoms: N_4  and  C_5 
REMARK       I    between atoms: C_5  and  N_7 
REMARK    3  A    between atoms: N_7  and  C_8 
REMARK    4  A    between atoms: C_14  and  N_15 
REMARK    5  A    between atoms: N_21  and  C_22 
ROOT
HETATM    1  C   UNL     1     -41.673 -45.729  10.475  1.00  0.00     0.216 C 
HETATM    2  C   UNL     1     -40.946 -44.495  10.985  1.00  0.00    -0.098 C 
HETATM    3  C   UNL     1     -40.324 -43.436  11.422  1.00  0.00     0.014 C 
ENDROOT
BRANCH   1   4
HETATM    4  N   UNL     1     -40.811 -46.895  10.490  1.00  0.00    -0.349 N 
HETATM    5  C   UNL     1     -41.283 -48.128  10.895  1.00  0.00     0.236 C 
HETATM    6  O   UNL     1     -42.454 -48.322  11.224  1.00  0.00    -0.272 OA
HETATM    7  H   UNL     1     -39.841 -46.780  10.221  1.00  0.00     0.163 HD
BRANCH   5   8
HETATM    8  C   UNL     1     -40.245 -49.258  10.866  1.00  0.00     0.227 C 
BRANCH   8   9
HETATM    9  N   UNL     1     -40.837 -50.584  10.990  1.00  0.00    -0.334 N 
HETATM   10  C   UNL     1     -40.895 -51.189  12.236  1.00  0.00     0.321 C 
HETATM   11  O   UNL     1     -40.531 -50.599  13.245  1.00  0.00    -0.247 OA
HETATM   12  N   UNL     1     -41.333 -52.490  12.178  1.00  0.00    -0.306 N 
HETATM   13  H   UNL     1     -41.758 -52.836  11.332  1.00  0.00     0.171 HD
HETATM   14  H   UNL     1     -40.820 -51.169  10.158  1.00  0.00     0.164 HD
BRANCH  12  15
HETATM   15  C   UNL     1     -41.534 -53.287  13.335  1.00  0.00     0.080 A 
HETATM   16  C   UNL     1     -40.434 -54.029  13.796  1.00  0.00     0.035 A 
HETATM   17  C   UNL     1     -40.509 -54.740  14.984  1.00  0.00     0.019 A 
HETATM   18  C   UNL     1     -41.694 -54.688  15.678  1.00  0.00     0.090 A 
HETATM   19  N   UNL     1     -42.763 -53.972  15.279  1.00  0.00    -0.351 N 
HETATM   20  C   UNL     1     -42.716 -53.262  14.117  1.00  0.00     0.130 A 
ATOM     21  HN  UNL     1     -43.609 -53.961  15.848  1.00  0.00     0.166 HD
BRANCH  20  22
HETATM   22  N   UNL     1     -43.894 -52.618  13.775  1.00  0.00    -0.365 N 
HETATM   23  C   UNL     1     -44.141 -51.292  14.352  1.00  0.00     0.124 C 
HETATM   24  C   UNL     1     -45.582 -51.169  14.848  1.00  0.00     0.020 C 
HETATM   25  C   UNL     1     -46.568 -51.528  13.748  1.00  0.00     0.003 C 
HETATM   26  C   UNL     1     -46.275 -52.927  13.219  1.00  0.00     0.020 C 
HETATM   27  C   UNL     1     -44.824 -53.083  12.754  1.00  0.00     0.124 C 
ENDBRANCH  20  22
ENDBRANCH  12  15
ENDBRANCH   8   9
ENDBRANCH   5   8
ENDBRANCH   1   4
TORSDOF 5
ENDMDL
MODEL 6
REMARK VINA RESULT:      -6.0      2.658      4.876
REMARK  5 active torsions:
REMARK  status: ('A' for Active; 'I' for Inactive)
REMARK    1  A    between atoms: C_2  and  C_3 
REMARK       I    between atoms: C_2  and  N_21 
REMARK    2  A    between atoms: C_3  and  N_4 
REMARK       I    between atoms: N_4  and  C_5 
REMARK       I    between atoms: C_5  and  N_7 
REMARK    3  A    between atoms: N_7  and  C_8 
REMARK    4  A    between atoms: C_14  and  N_15 
REMARK    5  A    between atoms: N_21  and  C_22 
ROOT
HETATM    1  C   UNL     1     -39.821 -45.132  12.115  1.00  0.00     0.216 C 
HETATM    2  C   UNL     1     -40.021 -44.715  13.563  1.00  0.00    -0.098 C 
HETATM    3  C   UNL     1     -40.192 -44.356  14.805  1.00  0.00     0.014 C 
ENDROOT
BRANCH   1   4
HETATM    4  N   UNL     1     -40.647 -46.273  11.774  1.00  0.00    -0.349 N 
HETATM    5  C   UNL     1     -41.386 -46.298  10.608  1.00  0.00     0.236 C 
HETATM    6  O   UNL     1     -41.360 -45.388   9.779  1.00  0.00    -0.272 OA
HETATM    7  H   UNL     1     -40.693 -47.047  12.427  1.00  0.00     0.163 HD
BRANCH   5   8
HETATM    8  C   UNL     1     -42.218 -47.570  10.397  1.00  0.00     0.227 C 
BRANCH   8   9
HETATM    9  N   UNL     1     -41.415 -48.786  10.389  1.00  0.00    -0.334 N 
HETATM   10  C   UNL     1     -41.478 -49.651  11.471  1.00  0.00     0.321 C 
HETATM   11  O   UNL     1     -42.256 -49.453  12.396  1.00  0.00    -0.247 OA
HETATM   12  N   UNL     1     -40.558 -50.668  11.397  1.00  0.00    -0.306 N 
HETATM   13  H   UNL     1     -40.074 -50.840  10.529  1.00  0.00     0.171 HD
HETATM   14  H   UNL     1     -40.572 -48.770   9.820  1.00  0.00     0.164 HD
BRANCH  12  15
HETATM   15  C   UNL     1     -40.481 -51.709  12.358  1.00  0.00     0.080 A 
HETATM   16  C   UNL     1     -41.086 -52.932  12.022  1.00  0.00     0.035 A 
HETATM   17  C   UNL     1     -40.955 -54.036  12.850  1.00  0.00     0.019 A 
HETATM   18  C   UNL     1     -40.219 -53.880  14.000  1.00  0.00     0.090 A 
HETATM   19  N   UNL     1     -39.608 -52.730  14.346  1.00  0.00    -0.351 N 
HETATM   20  C   UNL     1     -39.718 -51.630  13.550  1.00  0.00     0.130 A 
ATOM     21  HN  UNL     1     -39.063 -52.683  15.207  1.00  0.00     0.166 HD
BRANCH  20  22
HETATM   22  N   UNL     1     -39.103 -50.489  14.039  1.00  0.00    -0.365 N 
HETATM   23  C   UNL     1     -39.790 -49.744  15.100  1.00  0.00     0.124 C 
HETATM   24  C   UNL     1     -39.749 -48.240  14.827  1.00  0.00     0.020 C 
HETATM   25  C   UNL     1     -38.323 -47.766  14.600  1.00  0.00     0.003 C 
HETATM   26  C   UNL     1     -37.684 -48.558  13.466  1.00  0.00     0.020 C 
HETATM   27  C   UNL     1     -37.749 -50.070  13.700  1.00  0.00     0.124 C 
ENDBRANCH  20  22
ENDBRANCH  12  15
ENDBRANCH   8   9
ENDBRANCH   5   8
ENDBRANCH   1   4
TORSDOF 5
ENDMDL
MODEL 7
REMARK VINA RESULT:      -6.0      3.071      4.970
REMARK  5 active torsions:
REMARK  status: ('A' for Active; 'I' for Inactive)
REMARK    1  A    between atoms: C_2  and  C_3 
REMARK       I    between atoms: C_2  and  N_21 
REMARK    2  A    between atoms: C_3  and  N_4 
REMARK       I    between atoms: N_4  and  C_5 
REMARK       I    between atoms: C_5  and  N_7 
REMARK    3  A    between atoms: N_7  and  C_8 
REMARK    4  A    between atoms: C_14  and  N_15 
REMARK    5  A    between atoms: N_21  and  C_22 
ROOT
HETATM    1  C   UNL     1     -39.355 -46.577  13.442  1.00  0.00     0.216 C 
HETATM    2  C   UNL     1     -38.384 -47.642  13.925  1.00  0.00    -0.098 C 
HETATM    3  C   UNL     1     -37.550 -48.555  14.339  1.00  0.00     0.014 C 
ENDROOT
BRANCH   1   4
HETATM    4  N   UNL     1     -40.705 -47.095  13.346  1.00  0.00    -0.349 N 
HETATM    5  C   UNL     1     -41.364 -47.158  12.134  1.00  0.00     0.236 C 
HETATM    6  O   UNL     1     -40.842 -46.822  11.071  1.00  0.00    -0.272 OA
HETATM    7  H   UNL     1     -41.171 -47.387  14.198  1.00  0.00     0.163 HD
BRANCH   5   8
HETATM    8  C   UNL     1     -42.791 -47.719  12.202  1.00  0.00     0.227 C 
BRANCH   8   9
HETATM    9  N   UNL     1     -42.880 -49.112  11.782  1.00  0.00    -0.334 N 
HETATM   10  C   UNL     1     -42.462 -50.111  12.648  1.00  0.00     0.321 C 
HETATM   11  O   UNL     1     -42.096 -49.851  13.787  1.00  0.00    -0.247 OA
HETATM   12  N   UNL     1     -42.458 -51.355  12.066  1.00  0.00    -0.306 N 
HETATM   13  H   UNL     1     -42.924 -51.494  11.182  1.00  0.00     0.171 HD
HETATM   14  H   UNL     1     -42.858 -49.287  10.780  1.00  0.00     0.164 HD
BRANCH  12  15
HETATM   15  C   UNL     1     -42.130 -52.538  12.778  1.00  0.00     0.080 A 
HETATM   16  C   UNL     1     -40.834 -53.049  12.601  1.00  0.00     0.035 A 
HETATM   17  C   UNL     1     -40.393 -54.131  13.348  1.00  0.00     0.019 A 
HETATM   18  C   UNL     1     -41.271 -54.673  14.254  1.00  0.00     0.090 A 
HETATM   19  N   UNL     1     -42.514 -54.199  14.467  1.00  0.00    -0.351 N 
HETATM   20  C   UNL     1     -42.973 -53.135  13.748  1.00  0.00     0.130 A 
ATOM     21  HN  UNL     1     -43.113 -54.636  15.166  1.00  0.00     0.166 HD
BRANCH  20  22
HETATM   22  N   UNL     1     -44.286 -52.777  14.006  1.00  0.00    -0.365 N 
HETATM   23  C   UNL     1     -45.292 -53.088  12.984  1.00  0.00     0.124 C 
HETATM   24  C   UNL     1     -46.236 -51.906  12.766  1.00  0.00     0.020 C 
HETATM   25  C   UNL     1     -46.849 -51.449  14.080  1.00  0.00     0.003 C 
HETATM   26  C   UNL     1     -45.750 -51.111  15.080  1.00  0.00     0.020 C 
HETATM   27  C   UNL     1     -44.769 -52.270  15.284  1.00  0.00     0.124 C 
ENDBRANCH  20  22
ENDBRANCH  12  15
ENDBRANCH   8   9
ENDBRANCH   5   8
ENDBRANCH   1   4
TORSDOF 5
ENDMDL
MODEL 8
REMARK VINA RESULT:      -5.9      2.709      6.528
REMARK  5 active torsions:
REMARK  status: ('A' for Active; 'I' for Inactive)
REMARK    1  A    between atoms: C_2  and  C_3 
REMARK       I    between atoms: C_2  and  N_21 
REMARK    2  A    between atoms: C_3  and  N_4 
REMARK       I    between atoms: N_4  and  C_5 
REMARK       I    between atoms: C_5  and  N_7 
REMARK    3  A    between atoms: N_7  and  C_8 
REMARK    4  A    between atoms: C_14  and  N_15 
REMARK    5  A    between atoms: N_21  and  C_22 
ROOT
HETATM    1  C   UNL     1     -42.453 -54.161  14.149  1.00  0.00     0.216 C 
HETATM    2  C   UNL     1     -43.902 -54.531  13.879  1.00  0.00    -0.098 C 
HETATM    3  C   UNL     1     -45.145 -54.849  13.648  1.00  0.00     0.014 C 
ENDROOT
BRANCH   1   4
HETATM    4  N   UNL     1     -42.040 -53.021  13.355  1.00  0.00    -0.349 N 
HETATM    5  C   UNL     1     -40.718 -52.835  13.004  1.00  0.00     0.236 C 
HETATM    6  O   UNL     1     -39.827 -53.631  13.302  1.00  0.00    -0.272 OA
HETATM    7  H   UNL     1     -42.743 -52.343  13.084  1.00  0.00     0.163 HD
BRANCH   5   8
HETATM    8  C   UNL     1     -40.441 -51.574  12.173  1.00  0.00     0.227 C 
BRANCH   8   9
HETATM    9  N   UNL     1     -41.651 -50.838  11.828  1.00  0.00    -0.334 N 
HETATM   10  C   UNL     1     -41.543 -49.558  11.308  1.00  0.00     0.321 C 
HETATM   11  O   UNL     1     -40.450 -49.065  11.057  1.00  0.00    -0.247 OA
HETATM   12  N   UNL     1     -42.758 -48.930  11.176  1.00  0.00    -0.306 N 
HETATM   13  H   UNL     1     -43.608 -49.467  11.256  1.00  0.00     0.171 HD
HETATM   14  H   UNL     1     -42.499 -51.097  12.327  1.00  0.00     0.164 HD
BRANCH  12  15
HETATM   15  C   UNL     1     -42.901 -47.639  10.604  1.00  0.00     0.080 A 
HETATM   16  C   UNL     1     -43.328 -47.579   9.267  1.00  0.00     0.035 A 
HETATM   17  C   UNL     1     -43.607 -46.359   8.669  1.00  0.00     0.019 A 
HETATM   18  C   UNL     1     -43.447 -45.229   9.433  1.00  0.00     0.090 A 
HETATM   19  N   UNL     1     -43.058 -45.248  10.724  1.00  0.00    -0.351 N 
HETATM   20  C   UNL     1     -42.780 -46.432  11.337  1.00  0.00     0.130 A 
ATOM     21  HN  UNL     1     -42.973 -44.374  11.242  1.00  0.00     0.166 HD
BRANCH  20  22
HETATM   22  N   UNL     1     -42.328 -46.324  12.642  1.00  0.00    -0.365 N 
HETATM   23  C   UNL     1     -40.911 -46.002  12.851  1.00  0.00     0.124 C 
HETATM   24  C   UNL     1     -40.305 -46.881  13.945  1.00  0.00     0.020 C 
HETATM   25  C   UNL     1     -41.124 -46.800  15.223  1.00  0.00     0.003 C 
HETATM   26  C   UNL     1     -42.573 -47.178  14.941  1.00  0.00     0.020 C 
HETATM   27  C   UNL     1     -43.188 -46.335  13.818  1.00  0.00     0.124 C 
ENDBRANCH  20  22
ENDBRANCH  12  15
ENDBRANCH   8   9
ENDBRANCH   5   8
ENDBRANCH   1   4
TORSDOF 5
ENDMDL
MODEL 9
REMARK VINA RESULT:      -5.8      1.632      3.618
REMARK  5 active torsions:
REMARK  status: ('A' for Active; 'I' for Inactive)
REMARK    1  A    between atoms: C_2  and  C_3 
REMARK       I    between atoms: C_2  and  N_21 
REMARK    2  A    between atoms: C_3  and  N_4 
REMARK       I    between atoms: N_4  and  C_5 
REMARK       I    between atoms: C_5  and  N_7 
REMARK    3  A    between atoms: N_7  and  C_8 
REMARK    4  A    between atoms: C_14  and  N_15 
REMARK    5  A    between atoms: N_21  and  C_22 
ROOT
HETATM    1  C   UNL     1     -44.683 -46.658   9.012  1.00  0.00     0.216 C 
HETATM    2  C   UNL     1     -45.806 -47.680   8.929  1.00  0.00    -0.098 C 
HETATM    3  C   UNL     1     -46.769 -48.556   8.858  1.00  0.00     0.014 C 
ENDROOT
BRANCH   1   4
HETATM    4  N   UNL     1     -43.490 -47.229   9.605  1.00  0.00    -0.349 N 
HETATM    5  C   UNL     1     -42.458 -46.427  10.050  1.00  0.00     0.236 C 
HETATM    6  O   UNL     1     -42.501 -45.197  10.011  1.00  0.00    -0.272 OA
HETATM    7  H   UNL     1     -43.415 -48.238   9.661  1.00  0.00     0.163 HD
BRANCH   5   8
HETATM    8  C   UNL     1     -41.259 -47.183  10.639  1.00  0.00     0.227 C 
BRANCH   8   9
HETATM    9  N   UNL     1     -41.611 -48.009  11.788  1.00  0.00    -0.334 N 
HETATM   10  C   UNL     1     -41.283 -49.356  11.783  1.00  0.00     0.321 C 
HETATM   11  O   UNL     1     -40.632 -49.847  10.869  1.00  0.00    -0.247 OA
HETATM   12  N   UNL     1     -41.809 -50.038  12.853  1.00  0.00    -0.306 N 
HETATM   13  H   UNL     1     -42.192 -49.524  13.632  1.00  0.00     0.171 HD
HETATM   14  H   UNL     1     -42.401 -47.696  12.348  1.00  0.00     0.164 HD
BRANCH  12  15
HETATM   15  C   UNL     1     -41.552 -51.412  13.093  1.00  0.00     0.080 A 
HETATM   16  C   UNL     1     -42.566 -52.320  12.745  1.00  0.00     0.035 A 
HETATM   17  C   UNL     1     -42.351 -53.687  12.835  1.00  0.00     0.019 A 
HETATM   18  C   UNL     1     -41.120 -54.106  13.277  1.00  0.00     0.090 A 
HETATM   19  N   UNL     1     -40.117 -53.267  13.602  1.00  0.00    -0.351 N 
HETATM   20  C   UNL     1     -40.299 -51.919  13.520  1.00  0.00     0.130 A 
ATOM     21  HN  UNL     1     -39.220 -53.642  13.909  1.00  0.00     0.166 HD
BRANCH  20  22
HETATM   22  N   UNL     1     -39.221 -51.156  13.940  1.00  0.00    -0.365 N 
HETATM   23  C   UNL     1     -39.128 -50.834  15.369  1.00  0.00     0.124 C 
HETATM   24  C   UNL     1     -38.757 -49.365  15.576  1.00  0.00     0.020 C 
HETATM   25  C   UNL     1     -37.496 -49.009  14.805  1.00  0.00     0.003 C 
HETATM   26  C   UNL     1     -37.675 -49.338  13.328  1.00  0.00     0.020 C 
HETATM   27  C   UNL     1     -38.086 -50.796  13.101  1.00  0.00     0.124 C 
ENDBRANCH  20  22
ENDBRANCH  12  15
ENDBRANCH   8   9
ENDBRANCH   5   8
ENDBRANCH   1   4
TORSDOF 5
ENDMDL
