MODEL 1
REMARK VINA RESULT:      -6.5      0.000      0.000
REMARK  4 active torsions:
REMARK  status: ('A' for Active; 'I' for Inactive)
REMARK    1  A    between atoms: N_2  and  C_3 
REMARK    2  A    between atoms: C_6  and  N_7 
REMARK       I    between atoms: N_7  and  C_8 
REMARK       I    between atoms: C_8  and  N_10 
REMARK    3  A    between atoms: N_10  and  C_11 
REMARK    4  A    between atoms: N_14  and  S_17 
ROOT
HETATM    1  N   UNL     1     -42.465 -48.603  11.402  1.00  0.00    -0.308 N 
HETATM    2  C   UNL     1     -43.075 -48.967  12.586  1.00  0.00     0.321 C 
HETATM    3  O   UNL     1     -43.003 -48.367  13.649  1.00  0.00    -0.247 OA
HETATM    4  N   UNL     1     -43.786 -50.145  12.450  1.00  0.00    -0.338 N 
HETATM    5  H   UNL     1     -42.211 -49.365  10.789  1.00  0.00     0.170 HD
HETATM    6  H   UNL     1     -44.203 -50.271  11.539  1.00  0.00     0.164 HD
ENDROOT
BRANCH   1   7
HETATM    7  C   UNL     1     -41.897 -47.331  11.138  1.00  0.00     0.051 A 
HETATM    8  C   UNL     1     -40.526 -47.116  11.139  1.00  0.00     0.034 A 
HETATM    9  C   UNL     1     -40.021 -45.833  10.928  1.00  0.00     0.044 A 
HETATM   10  C   UNL     1     -40.887 -44.765  10.714  1.00  0.00     0.079 A 
HETATM   11  N   UNL     1     -42.224 -44.941  10.721  1.00  0.00    -0.355 N 
HETATM   12  C   UNL     1     -42.694 -46.207  10.928  1.00  0.00     0.119 A 
ATOM     13  HN  UNL     1     -42.861 -44.157  10.577  1.00  0.00     0.166 HD
BRANCH  10  14
HETATM   14  N   UNL     1     -40.302 -43.499  10.541  1.00  0.00    -0.283 NA
HETATM   15  C   UNL     1     -40.711 -42.466  11.472  1.00  0.00     0.114 C 
HETATM   16  H   UNL     1     -40.416 -43.213   9.573  1.00  0.00     0.128 HD
ENDBRANCH  10  14
ENDBRANCH   1   7
BRANCH   4  17
HETATM   17  C   UNL     1     -44.492 -50.766  13.582  1.00  0.00     0.089 C 
HETATM   18  C   UNL     1     -45.813 -51.449  13.173  1.00  0.00     0.045 C 
HETATM   19  C   UNL     1     -46.391 -52.341  14.277  1.00  0.00     0.137 C 
HETATM   20  N   UNL     1     -45.369 -53.275  14.814  1.00  0.00    -0.311 N 
HETATM   21  C   UNL     1     -44.213 -52.540  15.373  1.00  0.00     0.137 C 
HETATM   22  C   UNL     1     -43.529 -51.735  14.280  1.00  0.00     0.045 C 
BRANCH  20  23
HETATM   23  S   UNL     1     -45.027 -54.690  13.930  1.00  0.00     0.224 S 
HETATM   24  O   UNL     1     -46.082 -55.646  14.163  1.00  0.00    -0.206 OA
HETATM   25  O   UNL     1     -44.658 -54.303  12.584  1.00  0.00    -0.206 OA
HETATM   26  C   UNL     1     -43.544 -55.277  14.725  1.00  0.00     0.186 C 
ENDBRANCH  20  23
ENDBRANCH   4  17
TORSDOF 4
ENDMDL
MODEL 2
REMARK VINA RESULT:      -6.5      4.466      5.980
REMARK  4 active torsions:
REMARK  status: ('A' for Active; 'I' for Inactive)
REMARK    1  A    between atoms: N_2  and  C_3 
REMARK    2  A    between atoms: C_6  and  N_7 
REMARK       I    between atoms: N_7  and  C_8 
REMARK       I    between atoms: C_8  and  N_10 
REMARK    3  A    between atoms: N_10  and  C_11 
REMARK    4  A    between atoms: N_14  and  S_17 
ROOT
HETATM    1  N   UNL     1     -41.816 -47.162  10.170  1.00  0.00    -0.308 N 
HETATM    2  C   UNL     1     -41.123 -48.039  10.982  1.00  0.00     0.321 C 
HETATM    3  O   UNL     1     -41.559 -49.075  11.463  1.00  0.00    -0.247 OA
HETATM    4  N   UNL     1     -39.838 -47.593  11.229  1.00  0.00    -0.338 N 
HETATM    5  H   UNL     1     -41.543 -46.192  10.241  1.00  0.00     0.170 HD
HETATM    6  H   UNL     1     -39.422 -47.090  10.459  1.00  0.00     0.164 HD
ENDROOT
BRANCH   1   7
HETATM    7  C   UNL     1     -43.043 -47.453   9.520  1.00  0.00     0.051 A 
HETATM    8  C   UNL     1     -44.258 -47.442  10.190  1.00  0.00     0.034 A 
HETATM    9  C   UNL     1     -45.429 -47.790   9.516  1.00  0.00     0.044 A 
HETATM   10  C   UNL     1     -45.384 -48.148   8.172  1.00  0.00     0.079 A 
HETATM   11  N   UNL     1     -44.216 -48.181   7.499  1.00  0.00    -0.355 N 
HETATM   12  C   UNL     1     -43.084 -47.835   8.180  1.00  0.00     0.119 A 
ATOM     13  HN  UNL     1     -44.180 -48.455   6.517  1.00  0.00     0.166 HD
BRANCH  10  14
HETATM   14  N   UNL     1     -46.601 -48.516   7.573  1.00  0.00    -0.283 NA
HETATM   15  C   UNL     1     -46.551 -49.614   6.629  1.00  0.00     0.114 C 
HETATM   16  H   UNL     1     -47.037 -47.688   7.178  1.00  0.00     0.128 HD
ENDBRANCH  10  14
ENDBRANCH   1   7
BRANCH   4  17
HETATM   17  C   UNL     1     -38.911 -48.331  12.103  1.00  0.00     0.089 C 
HETATM   18  C   UNL     1     -39.411 -48.448  13.557  1.00  0.00     0.045 C 
HETATM   19  C   UNL     1     -38.607 -49.456  14.386  1.00  0.00     0.137 C 
HETATM   20  N   UNL     1     -38.480 -50.759  13.684  1.00  0.00    -0.311 N 
HETATM   21  C   UNL     1     -37.809 -50.599  12.375  1.00  0.00     0.137 C 
HETATM   22  C   UNL     1     -38.638 -49.702  11.471  1.00  0.00     0.045 C 
BRANCH  20  23
HETATM   23  S   UNL     1     -39.794 -51.840  13.748  1.00  0.00     0.224 S 
HETATM   24  O   UNL     1     -40.936 -51.147  14.295  1.00  0.00    -0.206 OA
HETATM   25  O   UNL     1     -39.880 -52.523  12.473  1.00  0.00    -0.206 OA
HETATM   26  C   UNL     1     -39.234 -53.038  14.941  1.00  0.00     0.186 C 
ENDBRANCH  20  23
ENDBRANCH   4  17
TORSDOF 4
ENDMDL
MODEL 3
REMARK VINA RESULT:      -6.4      1.109      1.762
REMARK  4 active torsions:
REMARK  status: ('A' for Active; 'I' for Inactive)
REMARK    1  A    between atoms: N_2  and  C_3 
REMARK    2  A    between atoms: C_6  and  N_7 
REMARK       I    between atoms: N_7  and  C_8 
REMARK       I    between atoms: C_8  and  N_10 
REMARK    3  A    between atoms: N_10  and  C_11 
REMARK    4  A    between atoms: N_14  and  S_17 
ROOT
HETATM    1  N   UNL     1     -41.781 -48.809  11.007  1.00  0.00    -0.308 N 
HETATM    2  C   UNL     1     -41.754 -49.497  12.205  1.00  0.00     0.321 C 
HETATM    3  O   UNL     1     -41.221 -49.122  13.239  1.00  0.00    -0.247 OA
HETATM    4  N   UNL     1     -42.398 -50.716  12.105  1.00  0.00    -0.338 N 
HETATM    5  H   UNL     1     -41.810 -49.382  10.175  1.00  0.00     0.170 HD
HETATM    6  H   UNL     1     -43.186 -50.715  11.473  1.00  0.00     0.164 HD
ENDROOT
BRANCH   1   7
HETATM    7  C   UNL     1     -41.453 -47.439  10.848  1.00  0.00     0.051 A 
HETATM    8  C   UNL     1     -40.146 -46.977  10.904  1.00  0.00     0.034 A 
HETATM    9  C   UNL     1     -39.884 -45.611  10.797  1.00  0.00     0.044 A 
HETATM   10  C   UNL     1     -40.930 -44.707  10.634  1.00  0.00     0.079 A 
HETATM   11  N   UNL     1     -42.210 -45.125  10.591  1.00  0.00    -0.355 N 
HETATM   12  C   UNL     1     -42.442 -46.467  10.695  1.00  0.00     0.119 A 
ATOM     13  HN  UNL     1     -42.979 -44.463  10.484  1.00  0.00     0.166 HD
BRANCH  10  14
HETATM   14  N   UNL     1     -40.585 -43.346  10.566  1.00  0.00    -0.283 NA
HETATM   15  C   UNL     1     -40.442 -42.653  11.831  1.00  0.00     0.114 C 
HETATM   16  H   UNL     1     -41.230 -42.874   9.940  1.00  0.00     0.128 HD
ENDBRANCH  10  14
ENDBRANCH   1   7
BRANCH   4  17
HETATM   17  C   UNL     1     -42.470 -51.655  13.236  1.00  0.00     0.089 C 
HETATM   18  C   UNL     1     -43.656 -51.377  14.181  1.00  0.00     0.045 C 
HETATM   19  C   UNL     1     -43.908 -52.516  15.175  1.00  0.00     0.137 C 
HETATM   20  N   UNL     1     -43.976 -53.832  14.490  1.00  0.00    -0.311 N 
HETATM   21  C   UNL     1     -42.720 -54.123  13.763  1.00  0.00     0.137 C 
HETATM   22  C   UNL     1     -42.494 -53.084  12.678  1.00  0.00     0.045 C 
BRANCH  20  23
HETATM   23  S   UNL     1     -45.431 -54.264  13.716  1.00  0.00     0.224 S 
HETATM   24  O   UNL     1     -45.470 -53.628  12.421  1.00  0.00    -0.206 OA
HETATM   25  O   UNL     1     -45.605 -55.696  13.847  1.00  0.00    -0.206 OA
HETATM   26  C   UNL     1     -46.651 -53.495  14.762  1.00  0.00     0.186 C 
ENDBRANCH  20  23
ENDBRANCH   4  17
TORSDOF 4
ENDMDL
MODEL 4
REMARK VINA RESULT:      -5.9      2.142      2.703
REMARK  4 active torsions:
REMARK  status: ('A' for Active; 'I' for Inactive)
REMARK    1  A    between atoms: N_2  and  C_3 
REMARK    2  A    between atoms: C_6  and  N_7 
REMARK       I    between atoms: N_7  and  C_8 
REMARK       I    between atoms: C_8  and  N_10 
REMARK    3  A    between atoms: N_10  and  C_11 
REMARK    4  A    between atoms: N_14  and  S_17 
ROOT
HETATM    1  N   UNL     1     -41.182 -50.182  11.257  1.00  0.00    -0.308 N 
HETATM    2  C   UNL     1     -42.049 -50.762  12.163  1.00  0.00     0.321 C 
HETATM    3  O   UNL     1     -42.658 -50.183  13.050  1.00  0.00    -0.247 OA
HETATM    4  N   UNL     1     -42.142 -52.128  11.974  1.00  0.00    -0.338 N 
HETATM    5  H   UNL     1     -40.431 -50.774  10.931  1.00  0.00     0.170 HD
HETATM    6  H   UNL     1     -42.059 -52.417  11.009  1.00  0.00     0.164 HD
ENDROOT
BRANCH   1   7
HETATM    7  C   UNL     1     -41.074 -48.790  11.012  1.00  0.00     0.051 A 
HETATM    8  C   UNL     1     -40.122 -47.998  11.638  1.00  0.00     0.034 A 
HETATM    9  C   UNL     1     -40.094 -46.623  11.404  1.00  0.00     0.044 A 
HETATM   10  C   UNL     1     -41.019 -46.041  10.541  1.00  0.00     0.079 A 
HETATM   11  N   UNL     1     -41.964 -46.782   9.931  1.00  0.00    -0.355 N 
HETATM   12  C   UNL     1     -41.970 -48.126  10.175  1.00  0.00     0.119 A 
ATOM     13  HN  UNL     1     -42.650 -46.355   9.309  1.00  0.00     0.166 HD
BRANCH  10  14
HETATM   14  N   UNL     1     -40.945 -44.646  10.383  1.00  0.00    -0.283 NA
HETATM   15  C   UNL     1     -40.163 -43.925  11.367  1.00  0.00     0.114 C 
HETATM   16  H   UNL     1     -41.886 -44.275  10.292  1.00  0.00     0.128 HD
ENDBRANCH  10  14
ENDBRANCH   1   7
BRANCH   4  17
HETATM   17  C   UNL     1     -42.971 -52.981  12.840  1.00  0.00     0.089 C 
HETATM   18  C   UNL     1     -42.793 -52.677  14.342  1.00  0.00     0.045 C 
HETATM   19  C   UNL     1     -43.859 -53.344  15.217  1.00  0.00     0.137 C 
HETATM   20  N   UNL     1     -45.228 -53.080  14.705  1.00  0.00    -0.311 N 
HETATM   21  C   UNL     1     -45.388 -53.580  13.322  1.00  0.00     0.137 C 
HETATM   22  C   UNL     1     -44.432 -52.852  12.391  1.00  0.00     0.045 C 
BRANCH  20  23
HETATM   23  S   UNL     1     -45.950 -51.581  15.070  1.00  0.00     0.224 S 
HETATM   24  O   UNL     1     -44.917 -50.660  15.481  1.00  0.00    -0.206 OA
HETATM   25  O   UNL     1     -46.861 -51.245  13.995  1.00  0.00    -0.206 OA
HETATM   26  C   UNL     1     -46.948 -51.983  16.489  1.00  0.00     0.186 C 
ENDBRANCH  20  23
ENDBRANCH   4  17
TORSDOF 4
ENDMDL
MODEL 5
REMARK VINA RESULT:      -5.8      2.712      3.480
REMARK  4 active torsions:
REMARK  status: ('A' for Active; 'I' for Inactive)
REMARK    1  A    between atoms: N_2  and  C_3 
REMARK    2  A    between atoms: C_6  and  N_7 
REMARK       I    between atoms: N_7  and  C_8 
REMARK       I    between atoms: C_8  and  N_10 
REMARK    3  A    between atoms: N_10  and  C_11 
REMARK    4  A    between atoms: N_14  and  S_17 
ROOT
HETATM    1  N   UNL     1     -41.083 -49.187  10.540  1.00  0.00    -0.308 N 
HETATM    2  C   UNL     1     -41.326 -50.101  11.548  1.00  0.00     0.321 C 
HETATM    3  O   UNL     1     -41.899 -49.874  12.603  1.00  0.00    -0.247 OA
HETATM    4  N   UNL     1     -40.808 -51.345  11.240  1.00  0.00    -0.338 N 
HETATM    5  H   UNL     1     -40.248 -49.349   9.995  1.00  0.00     0.170 HD
HETATM    6  H   UNL     1     -40.837 -51.571  10.256  1.00  0.00     0.164 HD
ENDROOT
BRANCH   1   7
HETATM    7  C   UNL     1     -41.706 -47.919  10.426  1.00  0.00     0.051 A 
HETATM    8  C   UNL     1     -42.826 -47.710   9.632  1.00  0.00     0.034 A 
HETATM    9  C   UNL     1     -43.366 -46.430   9.511  1.00  0.00     0.044 A 
HETATM   10  C   UNL     1     -42.788 -45.358  10.185  1.00  0.00     0.079 A 
HETATM   11  N   UNL     1     -41.692 -45.527  10.951  1.00  0.00    -0.355 N 
HETATM   12  C   UNL     1     -41.182 -46.790  11.055  1.00  0.00     0.119 A 
ATOM     13  HN  UNL     1     -41.259 -44.741  11.435  1.00  0.00     0.166 HD
BRANCH  10  14
HETATM   14  N   UNL     1     -43.372 -44.095   9.986  1.00  0.00    -0.283 NA
HETATM   15  C   UNL     1     -43.062 -43.078  10.971  1.00  0.00     0.114 C 
HETATM   16  H   UNL     1     -44.373 -44.213   9.856  1.00  0.00     0.128 HD
ENDBRANCH  10  14
ENDBRANCH   1   7
BRANCH   4  17
HETATM   17  C   UNL     1     -40.899 -52.480  12.173  1.00  0.00     0.089 C 
HETATM   18  C   UNL     1     -40.092 -52.266  13.469  1.00  0.00     0.045 C 
HETATM   19  C   UNL     1     -40.421 -53.297  14.554  1.00  0.00     0.137 C 
HETATM   20  N   UNL     1     -41.886 -53.416  14.767  1.00  0.00    -0.311 N 
HETATM   21  C   UNL     1     -42.577 -53.820  13.523  1.00  0.00     0.137 C 
HETATM   22  C   UNL     1     -42.382 -52.760  12.451  1.00  0.00     0.045 C 
BRANCH  20  23
HETATM   23  S   UNL     1     -42.658 -52.241  15.730  1.00  0.00     0.224 S 
HETATM   24  O   UNL     1     -41.848 -51.047  15.739  1.00  0.00    -0.206 OA
HETATM   25  O   UNL     1     -44.054 -52.190  15.346  1.00  0.00    -0.206 OA
HETATM   26  C   UNL     1     -42.592 -52.983  17.348  1.00  0.00     0.186 C 
ENDBRANCH  20  23
ENDBRANCH   4  17
TORSDOF 4
ENDMDL
MODEL 6
REMARK VINA RESULT:      -5.7      1.869      2.323
REMARK  4 active torsions:
REMARK  status: ('A' for Active; 'I' for Inactive)
REMARK    1  A    between atoms: N_2  and  C_3 
REMARK    2  A    between atoms: C_6  and  N_7 
REMARK       I    between atoms: N_7  and  C_8 
REMARK       I    between atoms: C_8  and  N_10 
REMARK    3  A    between atoms: N_10  and  C_11 
REMARK    4  A    between atoms: N_14  and  S_17 
ROOT
HETATM    1  N   UNL     1     -42.028 -47.581  13.031  1.00  0.00    -0.308 N 
HETATM    2  C   UNL     1     -42.899 -48.572  12.621  1.00  0.00     0.321 C 
HETATM    3  O   UNL     1     -43.432 -48.655  11.524  1.00  0.00    -0.247 OA
HETATM    4  N   UNL     1     -43.140 -49.485  13.630  1.00  0.00    -0.338 N 
HETATM    5  H   UNL     1     -42.047 -47.363  14.017  1.00  0.00     0.170 HD
HETATM    6  H   UNL     1     -42.349 -49.646  14.237  1.00  0.00     0.164 HD
ENDROOT
BRANCH   1   7
HETATM    7  C   UNL     1     -41.377 -46.663  12.168  1.00  0.00     0.051 A 
HETATM    8  C   UNL     1     -41.751 -45.329  12.086  1.00  0.00     0.034 A 
HETATM    9  C   UNL     1     -41.114 -44.481  11.180  1.00  0.00     0.044 A 
HETATM   10  C   UNL     1     -40.102 -44.967  10.357  1.00  0.00     0.079 A 
HETATM   11  N   UNL     1     -39.728 -46.261  10.404  1.00  0.00    -0.355 N 
HETATM   12  C   UNL     1     -40.365 -47.071  11.300  1.00  0.00     0.119 A 
ATOM     13  HN  UNL     1     -38.995 -46.621   9.793  1.00  0.00     0.166 HD
BRANCH  10  14
HETATM   14  N   UNL     1     -39.532 -44.057   9.449  1.00  0.00    -0.283 NA
HETATM   15  C   UNL     1     -38.453 -44.560   8.623  1.00  0.00     0.114 C 
HETATM   16  H   UNL     1     -39.273 -43.212   9.949  1.00  0.00     0.128 HD
ENDBRANCH  10  14
ENDBRANCH   1   7
BRANCH   4  17
HETATM   17  C   UNL     1     -44.069 -50.614  13.456  1.00  0.00     0.089 C 
HETATM   18  C   UNL     1     -43.367 -51.914  13.014  1.00  0.00     0.045 C 
HETATM   19  C   UNL     1     -44.272 -53.147  13.121  1.00  0.00     0.137 C 
HETATM   20  N   UNL     1     -44.920 -53.233  14.455  1.00  0.00    -0.311 N 
HETATM   21  C   UNL     1     -45.741 -52.033  14.729  1.00  0.00     0.137 C 
HETATM   22  C   UNL     1     -44.861 -50.794  14.757  1.00  0.00     0.045 C 
BRANCH  20  23
HETATM   23  S   UNL     1     -44.012 -53.857  15.754  1.00  0.00     0.224 S 
HETATM   24  O   UNL     1     -43.116 -52.829  16.226  1.00  0.00    -0.206 OA
HETATM   25  O   UNL     1     -44.922 -54.525  16.661  1.00  0.00    -0.206 OA
HETATM   26  C   UNL     1     -43.047 -55.126  14.958  1.00  0.00     0.186 C 
ENDBRANCH  20  23
ENDBRANCH   4  17
TORSDOF 4
ENDMDL
MODEL 7
REMARK VINA RESULT:      -5.6      5.338      9.145
REMARK  4 active torsions:
REMARK  status: ('A' for Active; 'I' for Inactive)
REMARK    1  A    between atoms: N_2  and  C_3 
REMARK    2  A    between atoms: C_6  and  N_7 
REMARK       I    between atoms: N_7  and  C_8 
REMARK       I    between atoms: C_8  and  N_10 
REMARK    3  A    between atoms: N_10  and  C_11 
REMARK    4  A    between atoms: N_14  and  S_17 
ROOT
HETATM    1  N   UNL     1     -40.852 -52.196  13.474  1.00  0.00    -0.308 N 
HETATM    2  C   UNL     1     -40.727 -50.933  14.022  1.00  0.00     0.321 C 
HETATM    3  O   UNL     1     -41.644 -50.184  14.322  1.00  0.00    -0.247 OA
HETATM    4  N   UNL     1     -39.400 -50.577  14.179  1.00  0.00    -0.338 N 
HETATM    5  H   UNL     1     -40.099 -52.484  12.866  1.00  0.00     0.170 HD
HETATM    6  H   UNL     1     -38.790 -51.351  14.400  1.00  0.00     0.164 HD
ENDROOT
BRANCH   1   7
HETATM    7  C   UNL     1     -42.051 -52.951  13.437  1.00  0.00     0.051 A 
HETATM    8  C   UNL     1     -43.016 -52.764  12.457  1.00  0.00     0.034 A 
HETATM    9  C   UNL     1     -44.203 -53.495  12.499  1.00  0.00     0.044 A 
HETATM   10  C   UNL     1     -44.425 -54.414  13.521  1.00  0.00     0.079 A 
HETATM   11  N   UNL     1     -43.513 -54.606  14.494  1.00  0.00    -0.355 N 
HETATM   12  C   UNL     1     -42.357 -53.880  14.431  1.00  0.00     0.119 A 
ATOM     13  HN  UNL     1     -43.679 -55.270  15.251  1.00  0.00     0.166 HD
BRANCH  10  14
HETATM   14  N   UNL     1     -45.659 -55.087  13.511  1.00  0.00    -0.283 NA
HETATM   15  C   UNL     1     -46.586 -54.751  14.573  1.00  0.00     0.114 C 
HETATM   16  H   UNL     1     -45.488 -56.086  13.450  1.00  0.00     0.128 HD
ENDBRANCH  10  14
ENDBRANCH   1   7
BRANCH   4  17
HETATM   17  C   UNL     1     -39.003 -49.261  14.705  1.00  0.00     0.089 C 
HETATM   18  C   UNL     1     -38.936 -49.218  16.245  1.00  0.00     0.045 C 
HETATM   19  C   UNL     1     -38.243 -47.959  16.777  1.00  0.00     0.137 C 
HETATM   20  N   UNL     1     -36.937 -47.732  16.110  1.00  0.00    -0.311 N 
HETATM   21  C   UNL     1     -37.101 -47.584  14.646  1.00  0.00     0.137 C 
HETATM   22  C   UNL     1     -37.672 -48.862  14.054  1.00  0.00     0.045 C 
BRANCH  20  23
HETATM   23  S   UNL     1     -35.591 -48.630  16.645  1.00  0.00     0.224 S 
HETATM   24  O   UNL     1     -35.743 -49.996  16.204  1.00  0.00    -0.206 OA
HETATM   25  O   UNL     1     -34.393 -47.877  16.335  1.00  0.00    -0.206 OA
HETATM   26  C   UNL     1     -35.791 -48.582  18.415  1.00  0.00     0.186 C 
ENDBRANCH  20  23
ENDBRANCH   4  17
TORSDOF 4
ENDMDL
MODEL 8
REMARK VINA RESULT:      -5.6      2.007      2.322
REMARK  4 active torsions:
REMARK  status: ('A' for Active; 'I' for Inactive)
REMARK    1  A    between atoms: N_2  and  C_3 
REMARK    2  A    between atoms: C_6  and  N_7 
REMARK       I    between atoms: N_7  and  C_8 
REMARK       I    between atoms: C_8  and  N_10 
REMARK    3  A    between atoms: N_10  and  C_11 
REMARK    4  A    between atoms: N_14  and  S_17 
ROOT
HETATM    1  N   UNL     1     -41.819 -49.910  11.551  1.00  0.00    -0.308 N 
HETATM    2  C   UNL     1     -42.722 -50.344  12.502  1.00  0.00     0.321 C 
HETATM    3  O   UNL     1     -43.264 -49.651  13.351  1.00  0.00    -0.247 OA
HETATM    4  N   UNL     1     -42.941 -51.706  12.411  1.00  0.00    -0.338 N 
HETATM    5  H   UNL     1     -41.130 -50.589  11.261  1.00  0.00     0.170 HD
HETATM    6  H   UNL     1     -42.897 -52.068  11.469  1.00  0.00     0.164 HD
ENDROOT
BRANCH   1   7
HETATM    7  C   UNL     1     -41.589 -48.554  11.207  1.00  0.00     0.051 A 
HETATM    8  C   UNL     1     -42.497 -47.814  10.463  1.00  0.00     0.034 A 
HETATM    9  C   UNL     1     -42.197 -46.499  10.104  1.00  0.00     0.044 A 
HETATM   10  C   UNL     1     -40.989 -45.925  10.491  1.00  0.00     0.079 A 
HETATM   11  N   UNL     1     -40.082 -46.625  11.202  1.00  0.00    -0.355 N 
HETATM   12  C   UNL     1     -40.400 -47.909  11.542  1.00  0.00     0.119 A 
ATOM     13  HN  UNL     1     -39.191 -46.210  11.475  1.00  0.00     0.166 HD
BRANCH  10  14
HETATM   14  N   UNL     1     -40.748 -44.608  10.064  1.00  0.00    -0.283 NA
HETATM   15  C   UNL     1     -40.282 -43.677  11.072  1.00  0.00     0.114 C 
HETATM   16  H   UNL     1     -41.569 -44.266   9.574  1.00  0.00     0.128 HD
ENDBRANCH  10  14
ENDBRANCH   1   7
BRANCH   4  17
HETATM   17  C   UNL     1     -43.831 -52.418  13.342  1.00  0.00     0.089 C 
HETATM   18  C   UNL     1     -43.970 -53.919  13.021  1.00  0.00     0.045 C 
HETATM   19  C   UNL     1     -44.645 -54.711  14.147  1.00  0.00     0.137 C 
HETATM   20  N   UNL     1     -44.016 -54.431  15.462  1.00  0.00    -0.311 N 
HETATM   21  C   UNL     1     -44.096 -52.991  15.798  1.00  0.00     0.137 C 
HETATM   22  C   UNL     1     -43.330 -52.174  14.772  1.00  0.00     0.045 C 
BRANCH  20  23
HETATM   23  S   UNL     1     -42.563 -55.231  15.848  1.00  0.00     0.224 S 
HETATM   24  O   UNL     1     -42.839 -56.639  16.004  1.00  0.00    -0.206 OA
HETATM   25  O   UNL     1     -41.537 -54.771  14.935  1.00  0.00    -0.206 OA
HETATM   26  C   UNL     1     -42.176 -54.550  17.448  1.00  0.00     0.186 C 
ENDBRANCH  20  23
ENDBRANCH   4  17
TORSDOF 4
ENDMDL
MODEL 9
REMARK VINA RESULT:      -5.6      3.981      9.162
REMARK  4 active torsions:
REMARK  status: ('A' for Active; 'I' for Inactive)
REMARK    1  A    between atoms: N_2  and  C_3 
REMARK    2  A    between atoms: C_6  and  N_7 
REMARK       I    between atoms: N_7  and  C_8 
REMARK       I    between atoms: C_8  and  N_10 
REMARK    3  A    between atoms: N_10  and  C_11 
REMARK    4  A    between atoms: N_14  and  S_17 
ROOT
HETATM    1  N   UNL     1     -42.229 -49.367  12.992  1.00  0.00    -0.308 N 
HETATM    2  C   UNL     1     -42.537 -48.206  12.309  1.00  0.00     0.321 C 
HETATM    3  O   UNL     1     -43.248 -48.120  11.318  1.00  0.00    -0.247 OA
HETATM    4  N   UNL     1     -41.912 -47.107  12.867  1.00  0.00    -0.338 N 
HETATM    5  H   UNL     1     -41.325 -49.381  13.442  1.00  0.00     0.170 HD
HETATM    6  H   UNL     1     -41.806 -47.159  13.870  1.00  0.00     0.164 HD
ENDROOT
BRANCH   1   7
HETATM    7  C   UNL     1     -42.908 -50.602  12.844  1.00  0.00     0.051 A 
HETATM    8  C   UNL     1     -44.185 -50.812  13.345  1.00  0.00     0.034 A 
HETATM    9  C   UNL     1     -44.787 -52.064  13.221  1.00  0.00     0.044 A 
HETATM   10  C   UNL     1     -44.111 -53.107  12.593  1.00  0.00     0.079 A 
HETATM   11  N   UNL     1     -42.864 -52.938  12.110  1.00  0.00    -0.355 N 
HETATM   12  C   UNL     1     -42.297 -51.702  12.242  1.00  0.00     0.119 A 
ATOM     13  HN  UNL     1     -42.363 -53.704  11.661  1.00  0.00     0.166 HD
BRANCH  10  14
HETATM   14  N   UNL     1     -44.772 -54.346  12.536  1.00  0.00    -0.283 NA
HETATM   15  C   UNL     1     -45.415 -54.792  13.757  1.00  0.00     0.114 C 
HETATM   16  H   UNL     1     -44.135 -55.042  12.161  1.00  0.00     0.128 HD
ENDBRANCH  10  14
ENDBRANCH   1   7
BRANCH   4  17
HETATM   17  C   UNL     1     -42.047 -45.758  12.295  1.00  0.00     0.089 C 
HETATM   18  C   UNL     1     -42.725 -44.757  13.253  1.00  0.00     0.045 C 
HETATM   19  C   UNL     1     -42.598 -43.303  12.785  1.00  0.00     0.137 C 
HETATM   20  N   UNL     1     -41.194 -42.960  12.447  1.00  0.00    -0.311 N 
HETATM   21  C   UNL     1     -40.671 -43.836  11.375  1.00  0.00     0.137 C 
HETATM   22  C   UNL     1     -40.661 -45.282  11.843  1.00  0.00     0.045 C 
BRANCH  20  23
HETATM   23  S   UNL     1     -40.127 -42.583  13.721  1.00  0.00     0.224 S 
HETATM   24  O   UNL     1     -39.756 -43.807  14.389  1.00  0.00    -0.206 OA
HETATM   25  O   UNL     1     -39.118 -41.678  13.211  1.00  0.00    -0.206 OA
HETATM   26  C   UNL     1     -41.170 -41.636  14.812  1.00  0.00     0.186 C 
ENDBRANCH  20  23
ENDBRANCH   4  17
TORSDOF 4
ENDMDL
