MODEL 1
REMARK VINA RESULT:      -4.5      0.000      0.000
REMARK  1 active torsions:
REMARK  status: ('A' for Active; 'I' for Inactive)
REMARK    1  A    between atoms: C_3  and  N_6 
ROOT
HETATM    1  N   UNL     1     -42.817 -46.986   9.468  1.00  0.00    -0.280 N 
HETATM    2  C   UNL     1     -42.358 -45.928  10.189  1.00  0.00     0.201 A 
HETATM    3  N   UNL     1     -41.369 -46.317  10.961  1.00  0.00    -0.346 N 
ATOM      4  HN  UNL     1     -40.816 -45.762  11.614  1.00  0.00     0.167 HD
HETATM    5  C   UNL     1     -41.262 -47.648  10.674  1.00  0.00     0.198 A 
HETATM    6  N   UNL     1     -42.129 -48.107   9.766  1.00  0.00    -0.293 N 
ATOM      7  HN  UNL     1     -42.239 -49.051   9.398  1.00  0.00     0.188 HD
ENDROOT
BRANCH   1   8
HETATM    8  C   UNL     1     -43.885 -46.987   8.497  1.00  0.00     0.139 C 
HETATM    9  C   UNL     1     -45.292 -46.994   9.107  1.00  0.00     0.059 C 
HETATM   10  C   UNL     1     -45.946 -48.249   8.550  1.00  0.00     0.272 C 
HETATM   11  N   UNL     1     -45.268 -48.458   7.269  1.00  0.00     0.085 N 
HETATM   12  C   UNL     1     -43.855 -48.206   7.573  1.00  0.00     0.296 C 
HETATM   13  H   UNL     1     -45.397 -49.421   6.955  1.00  0.00     0.315 HD
ENDBRANCH   1   8
TORSDOF 1
ENDMDL
MODEL 2
REMARK VINA RESULT:      -4.2      1.161      4.194
REMARK  1 active torsions:
REMARK  status: ('A' for Active; 'I' for Inactive)
REMARK    1  A    between atoms: C_3  and  N_6 
ROOT
HETATM    1  N   UNL     1     -43.227 -47.506   9.531  1.00  0.00    -0.280 N 
HETATM    2  C   UNL     1     -44.586 -47.450   9.477  1.00  0.00     0.201 A 
HETATM    3  N   UNL     1     -44.995 -47.832   8.289  1.00  0.00    -0.346 N 
ATOM      4  HN  UNL     1     -45.950 -47.902   7.939  1.00  0.00     0.167 HD
HETATM    5  C   UNL     1     -43.829 -48.112   7.638  1.00  0.00     0.198 A 
HETATM    6  N   UNL     1     -42.717 -47.926   8.356  1.00  0.00    -0.293 N 
ATOM      7  HN  UNL     1     -41.743 -48.066   8.087  1.00  0.00     0.188 HD
ENDROOT
BRANCH   1   8
HETATM    8  C   UNL     1     -42.381 -47.181  10.654  1.00  0.00     0.139 C 
HETATM    9  C   UNL     1     -41.773 -45.775  10.599  1.00  0.00     0.059 C 
HETATM   10  C   UNL     1     -40.270 -46.006  10.638  1.00  0.00     0.272 C 
HETATM   11  N   UNL     1     -40.128 -47.271  11.359  1.00  0.00     0.085 N 
HETATM   12  C   UNL     1     -41.182 -48.121  10.793  1.00  0.00     0.296 C 
HETATM   13  H   UNL     1     -39.209 -47.678  11.180  1.00  0.00     0.315 HD
ENDBRANCH   1   8
TORSDOF 1
ENDMDL
MODEL 3
REMARK VINA RESULT:      -4.1      6.845      7.522
REMARK  1 active torsions:
REMARK  status: ('A' for Active; 'I' for Inactive)
REMARK    1  A    between atoms: C_3  and  N_6 
ROOT
HETATM    1  N   UNL     1     -43.219 -53.506  12.655  1.00  0.00    -0.280 N 
HETATM    2  C   UNL     1     -42.256 -53.975  13.495  1.00  0.00     0.201 A 
HETATM    3  N   UNL     1     -41.105 -53.417  13.199  1.00  0.00    -0.346 N 
ATOM      4  HN  UNL     1     -40.198 -53.557  13.645  1.00  0.00     0.167 HD
HETATM    5  C   UNL     1     -41.419 -52.602  12.150  1.00  0.00     0.198 A 
HETATM    6  N   UNL     1     -42.702 -52.622  11.778  1.00  0.00    -0.293 N 
ATOM      7  HN  UNL     1     -43.166 -52.107  11.030  1.00  0.00     0.188 HD
ENDROOT
BRANCH   1   8
HETATM    8  C   UNL     1     -44.619 -53.854  12.647  1.00  0.00     0.139 C 
HETATM    9  C   UNL     1     -45.567 -52.658  12.794  1.00  0.00     0.059 C 
HETATM   10  C   UNL     1     -46.383 -52.965  14.039  1.00  0.00     0.272 C 
HETATM   11  N   UNL     1     -46.391 -54.428  14.102  1.00  0.00     0.085 N 
HETATM   12  C   UNL     1     -45.008 -54.802  13.784  1.00  0.00     0.296 C 
HETATM   13  H   UNL     1     -46.636 -54.739  15.042  1.00  0.00     0.315 HD
ENDBRANCH   1   8
TORSDOF 1
ENDMDL
MODEL 4
REMARK VINA RESULT:      -3.7      2.884      4.602
REMARK  1 active torsions:
REMARK  status: ('A' for Active; 'I' for Inactive)
REMARK    1  A    between atoms: C_3  and  N_6 
ROOT
HETATM    1  N   UNL     1     -41.332 -47.168  10.655  1.00  0.00    -0.280 N 
HETATM    2  C   UNL     1     -42.423 -47.979  10.691  1.00  0.00     0.201 A 
HETATM    3  N   UNL     1     -42.063 -49.184  11.068  1.00  0.00    -0.346 N 
ATOM      4  HN  UNL     1     -42.646 -50.011  11.195  1.00  0.00     0.167 HD
HETATM    5  C   UNL     1     -40.716 -49.059  11.249  1.00  0.00     0.198 A 
HETATM    6  N   UNL     1     -40.219 -47.842  11.007  1.00  0.00    -0.293 N 
ATOM      7  HN  UNL     1     -39.256 -47.513  11.071  1.00  0.00     0.188 HD
ENDROOT
BRANCH   1   8
HETATM    8  C   UNL     1     -41.293 -45.768  10.303  1.00  0.00     0.139 C 
HETATM    9  C   UNL     1     -39.900 -45.134  10.398  1.00  0.00     0.059 C 
HETATM   10  C   UNL     1     -40.065 -43.993  11.390  1.00  0.00     0.272 C 
HETATM   11  N   UNL     1     -41.473 -43.615  11.259  1.00  0.00     0.085 N 
HETATM   12  C   UNL     1     -42.179 -44.900  11.198  1.00  0.00     0.296 C 
HETATM   13  H   UNL     1     -41.772 -43.084  12.078  1.00  0.00     0.315 HD
ENDBRANCH   1   8
TORSDOF 1
ENDMDL
MODEL 5
REMARK VINA RESULT:      -3.5      7.242      7.935
REMARK  1 active torsions:
REMARK  status: ('A' for Active; 'I' for Inactive)
REMARK    1  A    between atoms: C_3  and  N_6 
ROOT
HETATM    1  N   UNL     1     -44.418 -53.531  13.432  1.00  0.00    -0.280 N 
HETATM    2  C   UNL     1     -43.715 -53.173  12.323  1.00  0.00     0.201 A 
HETATM    3  N   UNL     1     -42.471 -53.576  12.443  1.00  0.00    -0.346 N 
ATOM      4  HN  UNL     1     -41.701 -53.465  11.783  1.00  0.00     0.167 HD
HETATM    5  C   UNL     1     -42.461 -54.182  13.666  1.00  0.00     0.198 A 
HETATM    6  N   UNL     1     -43.630 -54.179  14.313  1.00  0.00    -0.293 N 
ATOM      7  HN  UNL     1     -43.864 -54.565  15.228  1.00  0.00     0.188 HD
ENDROOT
BRANCH   1   8
HETATM    8  C   UNL     1     -45.816 -53.289  13.698  1.00  0.00     0.139 C 
HETATM    9  C   UNL     1     -46.275 -51.856  13.403  1.00  0.00     0.059 C 
HETATM   10  C   UNL     1     -46.822 -51.349  14.728  1.00  0.00     0.272 C 
HETATM   11  N   UNL     1     -47.275 -52.563  15.409  1.00  0.00     0.085 N 
HETATM   12  C   UNL     1     -46.199 -53.529  15.159  1.00  0.00     0.296 C 
HETATM   13  H   UNL     1     -47.372 -52.391  16.410  1.00  0.00     0.315 HD
ENDBRANCH   1   8
TORSDOF 1
ENDMDL
MODEL 6
REMARK VINA RESULT:      -3.5      5.536      6.721
REMARK  1 active torsions:
REMARK  status: ('A' for Active; 'I' for Inactive)
REMARK    1  A    between atoms: C_3  and  N_6 
ROOT
HETATM    1  N   UNL     1     -39.684 -51.005  12.335  1.00  0.00    -0.280 N 
HETATM    2  C   UNL     1     -39.887 -50.134  11.309  1.00  0.00     0.201 A 
HETATM    3  N   UNL     1     -38.742 -49.596  10.956  1.00  0.00    -0.346 N 
ATOM      4  HN  UNL     1     -38.561 -48.913  10.220  1.00  0.00     0.167 HD
HETATM    5  C   UNL     1     -37.853 -50.176  11.814  1.00  0.00     0.198 A 
HETATM    6  N   UNL     1     -38.382 -51.046  12.680  1.00  0.00    -0.293 N 
ATOM      7  HN  UNL     1     -37.922 -51.593  13.407  1.00  0.00     0.188 HD
ENDROOT
BRANCH   1   8
HETATM    8  C   UNL     1     -40.674 -51.810  13.008  1.00  0.00     0.139 C 
HETATM    9  C   UNL     1     -40.121 -53.097  13.632  1.00  0.00     0.059 C 
HETATM   10  C   UNL     1     -40.913 -54.215  12.971  1.00  0.00     0.272 C 
HETATM   11  N   UNL     1     -42.188 -53.584  12.623  1.00  0.00     0.085 N 
HETATM   12  C   UNL     1     -41.798 -52.278  12.080  1.00  0.00     0.296 C 
HETATM   13  H   UNL     1     -42.671 -54.134  11.913  1.00  0.00     0.315 HD
ENDBRANCH   1   8
TORSDOF 1
ENDMDL
MODEL 7
REMARK VINA RESULT:      -3.5      6.664      8.489
REMARK  1 active torsions:
REMARK  status: ('A' for Active; 'I' for Inactive)
REMARK    1  A    between atoms: C_3  and  N_6 
ROOT
HETATM    1  N   UNL     1     -42.163 -53.457  12.881  1.00  0.00    -0.280 N 
HETATM    2  C   UNL     1     -42.856 -54.153  13.823  1.00  0.00     0.201 A 
HETATM    3  N   UNL     1     -44.138 -54.115  13.543  1.00  0.00    -0.346 N 
ATOM      4  HN  UNL     1     -44.912 -54.541  14.052  1.00  0.00     0.167 HD
HETATM    5  C   UNL     1     -44.181 -53.366  12.402  1.00  0.00     0.198 A 
HETATM    6  N   UNL     1     -42.996 -52.938  11.957  1.00  0.00    -0.293 N 
ATOM      7  HN  UNL     1     -42.781 -52.370  11.137  1.00  0.00     0.188 HD
ENDROOT
BRANCH   1   8
HETATM    8  C   UNL     1     -40.735 -53.261  12.811  1.00  0.00     0.139 C 
HETATM    9  C   UNL     1     -39.919 -54.278  13.618  1.00  0.00     0.059 C 
HETATM   10  C   UNL     1     -39.118 -53.436  14.598  1.00  0.00     0.272 C 
HETATM   11  N   UNL     1     -38.964 -52.152  13.913  1.00  0.00     0.085 N 
HETATM   12  C   UNL     1     -40.290 -51.896  13.340  1.00  0.00     0.296 C 
HETATM   13  H   UNL     1     -38.720 -51.422  14.584  1.00  0.00     0.315 HD
ENDBRANCH   1   8
TORSDOF 1
ENDMDL
MODEL 8
REMARK VINA RESULT:      -3.5      6.280      7.714
REMARK  1 active torsions:
REMARK  status: ('A' for Active; 'I' for Inactive)
REMARK    1  A    between atoms: C_3  and  N_6 
ROOT
HETATM    1  N   UNL     1     -44.275 -52.888  13.250  1.00  0.00    -0.280 N 
HETATM    2  C   UNL     1     -45.153 -53.793  13.761  1.00  0.00     0.201 A 
HETATM    3  N   UNL     1     -46.370 -53.495  13.369  1.00  0.00    -0.346 N 
ATOM      4  HN  UNL     1     -47.242 -53.980  13.579  1.00  0.00     0.167 HD
HETATM    5  C   UNL     1     -46.182 -52.376  12.610  1.00  0.00     0.198 A 
HETATM    6  N   UNL     1     -44.915 -51.963  12.508  1.00  0.00    -0.293 N 
ATOM      7  HN  UNL     1     -44.536 -51.162  12.003  1.00  0.00     0.188 HD
ENDROOT
BRANCH   1   8
HETATM    8  C   UNL     1     -42.843 -52.860  13.429  1.00  0.00     0.139 C 
HETATM    9  C   UNL     1     -42.131 -51.754  12.641  1.00  0.00     0.059 C 
HETATM   10  C   UNL     1     -41.139 -52.491  11.755  1.00  0.00     0.272 C 
HETATM   11  N   UNL     1     -40.846 -53.716  12.501  1.00  0.00     0.085 N 
HETATM   12  C   UNL     1     -42.158 -54.155  12.989  1.00  0.00     0.296 C 
HETATM   13  H   UNL     1     -40.444 -54.419  11.880  1.00  0.00     0.315 HD
ENDBRANCH   1   8
TORSDOF 1
ENDMDL
MODEL 9
REMARK VINA RESULT:      -3.5      1.953      4.704
REMARK  1 active torsions:
REMARK  status: ('A' for Active; 'I' for Inactive)
REMARK    1  A    between atoms: C_3  and  N_6 
ROOT
HETATM    1  N   UNL     1     -42.072 -46.311  10.449  1.00  0.00    -0.280 N 
HETATM    2  C   UNL     1     -41.740 -47.627  10.341  1.00  0.00     0.201 A 
HETATM    3  N   UNL     1     -42.489 -48.196   9.425  1.00  0.00    -0.346 N 
ATOM      4  HN  UNL     1     -42.480 -49.166   9.110  1.00  0.00     0.167 HD
HETATM    5  C   UNL     1     -43.281 -47.171   8.996  1.00  0.00     0.198 A 
HETATM    6  N   UNL     1     -43.066 -45.995   9.594  1.00  0.00    -0.293 N 
ATOM      7  HN  UNL     1     -43.529 -45.099   9.444  1.00  0.00     0.188 HD
ENDROOT
BRANCH   1   8
HETATM    8  C   UNL     1     -41.485 -45.329  11.328  1.00  0.00     0.139 C 
HETATM    9  C   UNL     1     -42.420 -44.170  11.692  1.00  0.00     0.059 C 
HETATM   10  C   UNL     1     -41.688 -42.923  11.221  1.00  0.00     0.272 C 
HETATM   11  N   UNL     1     -40.275 -43.300  11.288  1.00  0.00     0.085 N 
HETATM   12  C   UNL     1     -40.245 -44.658  10.734  1.00  0.00     0.296 C 
HETATM   13  H   UNL     1     -39.714 -42.669  10.714  1.00  0.00     0.315 HD
ENDBRANCH   1   8
TORSDOF 1
ENDMDL
