MODEL 1
REMARK VINA RESULT:      -6.3      0.000      0.000
REMARK  9 active torsions:
REMARK  status: ('A' for Active; 'I' for Inactive)
REMARK    1  A    between atoms: N_2  and  C_15 
REMARK    2  A    between atoms: C_4  and  N_8 
REMARK    3  A    between atoms: N_8  and  C_13 
REMARK    4  A    between atoms: N_8  and  C_25 
REMARK    5  A    between atoms: C_14  and  C_15 
REMARK    6  A    between atoms: C_14  and  C_24 
REMARK    7  A    between atoms: C_24  and  O_26 
REMARK    8  A    between atoms: C_25  and  C_28 
REMARK    9  A    between atoms: O_27  and  C_28 
ROOT
HETATM    1  C   UNL     1     -42.146 -49.129  12.224  1.00  0.00     0.122 A 
HETATM    2  N   UNL     1     -42.203 -50.934  13.463  1.00  0.00    -0.326 N 
HETATM    3  C   UNL     1     -41.479 -50.326  12.472  1.00  0.00     0.140 A 
HETATM    4  C   UNL     1     -41.567 -48.238  11.276  1.00  0.00     0.135 A 
HETATM    5  N   UNL     1     -43.279 -49.050  13.019  1.00  0.00    -0.346 N 
ATOM      6  HN  UNL     1     -43.973 -48.302  13.031  1.00  0.00     0.167 HD
HETATM    7  C   UNL     1     -43.272 -50.139  13.751  1.00  0.00     0.185 A 
HETATM    8  N   UNL     1     -40.429 -48.695  10.659  1.00  0.00    -0.337 N 
ATOM      9  HN  UNL     1     -39.969 -48.119   9.955  1.00  0.00     0.168 HD
HETATM   10  N   UNL     1     -40.361 -50.786  11.889  1.00  0.00    -0.336 N 
ATOM     11  HN  UNL     1     -39.914 -51.677  12.105  1.00  0.00     0.168 HD
HETATM   12  C   UNL     1     -39.915 -49.902  10.977  1.00  0.00     0.183 A 
ENDROOT
BRANCH   4  13
HETATM   13  N   UNL     1     -42.056 -46.970  10.934  1.00  0.00    -0.359 N 
BRANCH  13  14
HETATM   14  C   UNL     1     -43.092 -46.850   9.897  1.00  0.00     0.086 C 
HETATM   15  C   UNL     1     -44.503 -47.141  10.454  1.00  0.00     0.029 C 
HETATM   16  C   UNL     1     -45.322 -47.742   9.295  1.00  0.00    -0.017 C 
HETATM   17  C   UNL     1     -44.385 -47.727   8.092  1.00  0.00     0.006 C 
HETATM   18  C   UNL     1     -46.624 -47.005   9.023  1.00  0.00     0.010 C 
HETATM   19  C   UNL     1     -43.003 -47.824   8.719  1.00  0.00     0.026 C 
ENDBRANCH  13  14
BRANCH  13  20
HETATM   20  C   UNL     1     -41.517 -45.825  11.680  1.00  0.00     0.151 C 
BRANCH  20  21
HETATM   21  C   UNL     1     -40.688 -44.830  10.837  1.00  0.00     0.186 C 
BRANCH  21  22
HETATM   22  O   UNL     1     -41.240 -43.522  10.683  1.00  0.00    -0.394 OA
HETATM   23  C   UNL     1     -42.534 -43.381  11.245  1.00  0.00     0.201 C 
ENDBRANCH  21  22
ENDBRANCH  20  21
ENDBRANCH  13  20
ENDBRANCH   4  13
BRANCH   2  24
HETATM   24  C   UNL     1     -41.836 -52.140  14.186  1.00  0.00     0.147 C 
BRANCH  24  25
HETATM   25  C   UNL     1     -42.210 -53.433  13.474  1.00  0.00     0.040 C 
HETATM   26  C   UNL     1     -43.394 -53.366  12.489  1.00  0.00     0.183 C 
HETATM   27  O   UNL     1     -44.072 -54.442  13.182  1.00  0.00    -0.389 OA
HETATM   28  C   UNL     1     -43.171 -54.302  14.310  1.00  0.00     0.183 C 
BRANCH  25  29
HETATM   29  C   UNL     1     -41.034 -54.212  12.893  1.00  0.00     0.179 C 
BRANCH  29  30
HETATM   30  O   UNL     1     -40.646 -53.641  11.648  1.00  0.00    -0.400 OA
HETATM   31  H   UNL     1     -40.240 -54.362  11.124  1.00  0.00     0.209 HD
ENDBRANCH  29  30
ENDBRANCH  25  29
ENDBRANCH  24  25
ENDBRANCH   2  24
TORSDOF 9
ENDMDL
MODEL 2
REMARK VINA RESULT:      -6.2      2.349      3.665
REMARK  9 active torsions:
REMARK  status: ('A' for Active; 'I' for Inactive)
REMARK    1  A    between atoms: N_2  and  C_15 
REMARK    2  A    between atoms: C_4  and  N_8 
REMARK    3  A    between atoms: N_8  and  C_13 
REMARK    4  A    between atoms: N_8  and  C_25 
REMARK    5  A    between atoms: C_14  and  C_15 
REMARK    6  A    between atoms: C_14  and  C_24 
REMARK    7  A    between atoms: C_24  and  O_26 
REMARK    8  A    between atoms: C_25  and  C_28 
REMARK    9  A    between atoms: O_27  and  C_28 
ROOT
HETATM    1  C   UNL     1     -42.446 -50.232  12.985  1.00  0.00     0.122 A 
HETATM    2  N   UNL     1     -43.682 -51.550  14.222  1.00  0.00    -0.326 N 
HETATM    3  C   UNL     1     -42.770 -51.568  13.200  1.00  0.00     0.140 A 
HETATM    4  C   UNL     1     -41.446 -49.946  12.013  1.00  0.00     0.135 A 
HETATM    5  N   UNL     1     -43.192 -49.426  13.832  1.00  0.00    -0.346 N 
ATOM      6  HN  UNL     1     -43.185 -48.407  13.878  1.00  0.00     0.167 HD
HETATM    7  C   UNL     1     -43.908 -50.249  14.561  1.00  0.00     0.185 A 
HETATM    8  N   UNL     1     -40.949 -51.036  11.343  1.00  0.00    -0.337 N 
ATOM      9  HN  UNL     1     -40.242 -50.907  10.619  1.00  0.00     0.168 HD
HETATM   10  N   UNL     1     -42.289 -52.649  12.565  1.00  0.00    -0.336 N 
ATOM     11  HN  UNL     1     -42.566 -53.611  12.758  1.00  0.00     0.168 HD
HETATM   12  C   UNL     1     -41.390 -52.278  11.635  1.00  0.00     0.183 A 
ENDROOT
BRANCH   4  13
HETATM   13  N   UNL     1     -40.946 -48.676  11.696  1.00  0.00    -0.359 N 
BRANCH  13  14
HETATM   14  C   UNL     1     -41.882 -47.596  11.346  1.00  0.00     0.086 C 
HETATM   15  C   UNL     1     -42.558 -47.838   9.979  1.00  0.00     0.029 C 
HETATM   16  C   UNL     1     -42.844 -46.451   9.373  1.00  0.00    -0.017 C 
HETATM   17  C   UNL     1     -42.381 -45.450  10.426  1.00  0.00     0.006 C 
HETATM   18  C   UNL     1     -44.299 -46.245   8.981  1.00  0.00     0.010 C 
HETATM   19  C   UNL     1     -41.282 -46.198  11.165  1.00  0.00     0.026 C 
ENDBRANCH  13  14
BRANCH  13  20
HETATM   20  C   UNL     1     -39.490 -48.493  11.776  1.00  0.00     0.151 C 
BRANCH  20  21
HETATM   21  C   UNL     1     -38.880 -48.735  13.175  1.00  0.00     0.186 C 
BRANCH  21  22
HETATM   22  O   UNL     1     -37.979 -49.837  13.287  1.00  0.00    -0.394 OA
HETATM   23  C   UNL     1     -37.555 -50.355  12.037  1.00  0.00     0.201 C 
ENDBRANCH  21  22
ENDBRANCH  20  21
ENDBRANCH  13  20
ENDBRANCH   4  13
BRANCH   2  24
HETATM   24  C   UNL     1     -44.215 -52.705  14.926  1.00  0.00     0.147 C 
BRANCH  24  25
HETATM   25  C   UNL     1     -45.384 -53.380  14.220  1.00  0.00     0.040 C 
HETATM   26  C   UNL     1     -46.257 -54.324  15.071  1.00  0.00     0.183 C 
HETATM   27  O   UNL     1     -46.051 -55.409  14.134  1.00  0.00    -0.389 OA
HETATM   28  C   UNL     1     -44.963 -54.681  13.509  1.00  0.00     0.183 C 
BRANCH  25  29
HETATM   29  C   UNL     1     -46.231 -52.456  13.351  1.00  0.00     0.179 C 
BRANCH  29  30
HETATM   30  O   UNL     1     -46.387 -53.025  12.055  1.00  0.00    -0.400 OA
HETATM   31  H   UNL     1     -45.883 -53.864  12.055  1.00  0.00     0.209 HD
ENDBRANCH  29  30
ENDBRANCH  25  29
ENDBRANCH  24  25
ENDBRANCH   2  24
TORSDOF 9
ENDMDL
MODEL 3
REMARK VINA RESULT:      -6.2      1.861      3.638
REMARK  9 active torsions:
REMARK  status: ('A' for Active; 'I' for Inactive)
REMARK    1  A    between atoms: N_2  and  C_15 
REMARK    2  A    between atoms: C_4  and  N_8 
REMARK    3  A    between atoms: N_8  and  C_13 
REMARK    4  A    between atoms: N_8  and  C_25 
REMARK    5  A    between atoms: C_14  and  C_15 
REMARK    6  A    between atoms: C_14  and  C_24 
REMARK    7  A    between atoms: C_24  and  O_26 
REMARK    8  A    between atoms: C_25  and  C_28 
REMARK    9  A    between atoms: O_27  and  C_28 
ROOT
HETATM    1  C   UNL     1     -42.384 -49.728  12.089  1.00  0.00     0.122 A 
HETATM    2  N   UNL     1     -42.718 -51.464  13.382  1.00  0.00    -0.326 N 
HETATM    3  C   UNL     1     -41.833 -50.947  12.473  1.00  0.00     0.140 A 
HETATM    4  C   UNL     1     -41.631 -48.919  11.193  1.00  0.00     0.135 A 
HETATM    5  N   UNL     1     -43.605 -49.545  12.722  1.00  0.00    -0.346 N 
ATOM      6  HN  UNL     1     -44.245 -48.760  12.611  1.00  0.00     0.167 HD
HETATM    7  C   UNL     1     -43.763 -50.596  13.492  1.00  0.00     0.185 A 
HETATM    8  N   UNL     1     -40.453 -49.470  10.753  1.00  0.00    -0.337 N 
ATOM      9  HN  UNL     1     -39.868 -48.956  10.094  1.00  0.00     0.168 HD
HETATM   10  N   UNL     1     -40.679 -51.499  12.065  1.00  0.00    -0.336 N 
ATOM     11  HN  UNL     1     -40.322 -52.402  12.374  1.00  0.00     0.168 HD
HETATM   12  C   UNL     1     -40.063 -50.687  11.186  1.00  0.00     0.183 A 
ENDROOT
BRANCH   4  13
HETATM   13  N   UNL     1     -41.989 -47.643  10.737  1.00  0.00    -0.359 N 
BRANCH  13  14
HETATM   14  C   UNL     1     -41.540 -46.456  11.478  1.00  0.00     0.086 C 
HETATM   15  C   UNL     1     -41.298 -45.248  10.545  1.00  0.00     0.029 C 
HETATM   16  C   UNL     1     -40.177 -44.409  11.186  1.00  0.00    -0.017 C 
HETATM   17  C   UNL     1     -39.842 -45.118  12.494  1.00  0.00     0.006 C 
HETATM   18  C   UNL     1     -40.553 -42.951  11.399  1.00  0.00     0.010 C 
HETATM   19  C   UNL     1     -40.199 -46.569  12.210  1.00  0.00     0.026 C 
ENDBRANCH  13  14
BRANCH  13  20
HETATM   20  C   UNL     1     -42.774 -47.576   9.496  1.00  0.00     0.151 C 
BRANCH  20  21
HETATM   21  C   UNL     1     -44.299 -47.436   9.697  1.00  0.00     0.186 C 
BRANCH  21  22
HETATM   22  O   UNL     1     -45.118 -47.802   8.586  1.00  0.00    -0.394 OA
HETATM   23  C   UNL     1     -46.485 -47.976   8.919  1.00  0.00     0.201 C 
ENDBRANCH  21  22
ENDBRANCH  20  21
ENDBRANCH  13  20
ENDBRANCH   4  13
BRANCH   2  24
HETATM   24  C   UNL     1     -42.526 -52.653  14.197  1.00  0.00     0.147 C 
BRANCH  24  25
HETATM   25  C   UNL     1     -43.638 -53.686  14.065  1.00  0.00     0.040 C 
HETATM   26  C   UNL     1     -44.783 -53.607  15.094  1.00  0.00     0.183 C 
HETATM   27  O   UNL     1     -44.579 -54.989  15.474  1.00  0.00    -0.389 OA
HETATM   28  C   UNL     1     -43.299 -55.002  14.793  1.00  0.00     0.183 C 
BRANCH  25  29
HETATM   29  C   UNL     1     -44.163 -53.890  12.648  1.00  0.00     0.179 C 
BRANCH  29  30
HETATM   30  O   UNL     1     -45.575 -54.070  12.679  1.00  0.00    -0.400 OA
HETATM   31  H   UNL     1     -45.968 -53.183  12.810  1.00  0.00     0.209 HD
ENDBRANCH  29  30
ENDBRANCH  25  29
ENDBRANCH  24  25
ENDBRANCH   2  24
TORSDOF 9
ENDMDL
MODEL 4
REMARK VINA RESULT:      -6.0      1.848      2.566
REMARK  9 active torsions:
REMARK  status: ('A' for Active; 'I' for Inactive)
REMARK    1  A    between atoms: N_2  and  C_15 
REMARK    2  A    between atoms: C_4  and  N_8 
REMARK    3  A    between atoms: N_8  and  C_13 
REMARK    4  A    between atoms: N_8  and  C_25 
REMARK    5  A    between atoms: C_14  and  C_15 
REMARK    6  A    between atoms: C_14  and  C_24 
REMARK    7  A    between atoms: C_24  and  O_26 
REMARK    8  A    between atoms: C_25  and  C_28 
REMARK    9  A    between atoms: O_27  and  C_28 
ROOT
HETATM    1  C   UNL     1     -42.088 -49.824  12.468  1.00  0.00     0.122 A 
HETATM    2  N   UNL     1     -42.165 -51.863  13.264  1.00  0.00    -0.326 N 
HETATM    3  C   UNL     1     -42.434 -50.563  13.596  1.00  0.00     0.140 A 
HETATM    4  C   UNL     1     -42.337 -48.423  12.497  1.00  0.00     0.135 A 
HETATM    5  N   UNL     1     -41.571 -50.668  11.496  1.00  0.00    -0.346 N 
ATOM      6  HN  UNL     1     -41.210 -50.404  10.580  1.00  0.00     0.167 HD
HETATM    7  C   UNL     1     -41.644 -51.876  12.004  1.00  0.00     0.185 A 
HETATM    8  N   UNL     1     -42.843 -47.941  13.679  1.00  0.00    -0.337 N 
ATOM      9  HN  UNL     1     -43.029 -46.943  13.780  1.00  0.00     0.168 HD
HETATM   10  N   UNL     1     -42.940 -50.113  14.756  1.00  0.00    -0.336 N 
ATOM     11  HN  UNL     1     -43.173 -50.698  15.558  1.00  0.00     0.168 HD
HETATM   12  C   UNL     1     -43.095 -48.777  14.708  1.00  0.00     0.183 A 
ENDROOT
BRANCH   4  13
HETATM   13  N   UNL     1     -42.110 -47.525  11.445  1.00  0.00    -0.359 N 
BRANCH  13  14
HETATM   14  C   UNL     1     -43.250 -46.844  10.816  1.00  0.00     0.086 C 
HETATM   15  C   UNL     1     -44.295 -47.846  10.274  1.00  0.00     0.029 C 
HETATM   16  C   UNL     1     -44.955 -47.181   9.051  1.00  0.00    -0.017 C 
HETATM   17  C   UNL     1     -44.320 -45.797   8.954  1.00  0.00     0.006 C 
HETATM   18  C   UNL     1     -46.472 -47.116   9.138  1.00  0.00     0.010 C 
HETATM   19  C   UNL     1     -42.947 -45.995   9.577  1.00  0.00     0.026 C 
ENDBRANCH  13  14
BRANCH  13  20
HETATM   20  C   UNL     1     -40.711 -47.289  11.062  1.00  0.00     0.151 C 
BRANCH  20  21
HETATM   21  C   UNL     1     -39.871 -46.519  12.106  1.00  0.00     0.186 C 
BRANCH  21  22
HETATM   22  O   UNL     1     -40.588 -45.617  12.950  1.00  0.00    -0.394 OA
HETATM   23  C   UNL     1     -40.755 -44.325  12.390  1.00  0.00     0.201 C 
ENDBRANCH  21  22
ENDBRANCH  20  21
ENDBRANCH  13  20
ENDBRANCH   4  13
BRANCH   2  24
HETATM   24  C   UNL     1     -42.498 -53.043  14.045  1.00  0.00     0.147 C 
BRANCH  24  25
HETATM   25  C   UNL     1     -43.962 -53.453  13.962  1.00  0.00     0.040 C 
HETATM   26  C   UNL     1     -44.852 -53.098  15.170  1.00  0.00     0.183 C 
HETATM   27  O   UNL     1     -45.259 -54.480  15.316  1.00  0.00    -0.389 OA
HETATM   28  C   UNL     1     -44.188 -54.904  14.435  1.00  0.00     0.183 C 
BRANCH  25  29
HETATM   29  C   UNL     1     -44.647 -53.130  12.639  1.00  0.00     0.179 C 
BRANCH  29  30
HETATM   30  O   UNL     1     -45.937 -53.732  12.605  1.00  0.00    -0.400 OA
HETATM   31  H   UNL     1     -45.796 -54.700  12.658  1.00  0.00     0.209 HD
ENDBRANCH  29  30
ENDBRANCH  25  29
ENDBRANCH  24  25
ENDBRANCH   2  24
TORSDOF 9
ENDMDL
MODEL 5
REMARK VINA RESULT:      -6.0      2.338      4.425
REMARK  9 active torsions:
REMARK  status: ('A' for Active; 'I' for Inactive)
REMARK    1  A    between atoms: N_2  and  C_15 
REMARK    2  A    between atoms: C_4  and  N_8 
REMARK    3  A    between atoms: N_8  and  C_13 
REMARK    4  A    between atoms: N_8  and  C_25 
REMARK    5  A    between atoms: C_14  and  C_15 
REMARK    6  A    between atoms: C_14  and  C_24 
REMARK    7  A    between atoms: C_24  and  O_26 
REMARK    8  A    between atoms: C_25  and  C_28 
REMARK    9  A    between atoms: O_27  and  C_28 
ROOT
HETATM    1  C   UNL     1     -42.503 -50.198  12.862  1.00  0.00     0.122 A 
HETATM    2  N   UNL     1     -43.709 -51.519  14.126  1.00  0.00    -0.326 N 
HETATM    3  C   UNL     1     -42.760 -51.538  13.139  1.00  0.00     0.140 A 
HETATM    4  C   UNL     1     -41.484 -49.907  11.911  1.00  0.00     0.135 A 
HETATM    5  N   UNL     1     -43.324 -49.393  13.637  1.00  0.00    -0.346 N 
ATOM      6  HN  UNL     1     -43.376 -48.375  13.628  1.00  0.00     0.167 HD
HETATM    7  C   UNL     1     -44.020 -50.217  14.385  1.00  0.00     0.185 A 
HETATM    8  N   UNL     1     -40.903 -51.000  11.319  1.00  0.00    -0.337 N 
ATOM      9  HN  UNL     1     -40.178 -50.869  10.614  1.00  0.00     0.168 HD
HETATM   10  N   UNL     1     -42.196 -52.621  12.580  1.00  0.00    -0.336 N 
ATOM     11  HN  UNL     1     -42.425 -53.586  12.817  1.00  0.00     0.168 HD
HETATM   12  C   UNL     1     -41.284 -52.249  11.664  1.00  0.00     0.183 A 
ENDROOT
BRANCH   4  13
HETATM   13  N   UNL     1     -41.045 -48.628  11.542  1.00  0.00    -0.359 N 
BRANCH  13  14
HETATM   14  C   UNL     1     -39.978 -47.977  12.318  1.00  0.00     0.086 C 
HETATM   15  C   UNL     1     -39.221 -48.981  13.216  1.00  0.00     0.029 C 
HETATM   16  C   UNL     1     -38.747 -48.198  14.454  1.00  0.00    -0.017 C 
HETATM   17  C   UNL     1     -39.189 -46.759  14.214  1.00  0.00     0.006 C 
HETATM   18  C   UNL     1     -37.251 -48.309  14.709  1.00  0.00     0.010 C 
HETATM   19  C   UNL     1     -40.414 -46.910  13.326  1.00  0.00     0.026 C 
ENDBRANCH  13  14
BRANCH  13  20
HETATM   20  C   UNL     1     -41.665 -48.028  10.353  1.00  0.00     0.151 C 
BRANCH  20  21
HETATM   21  C   UNL     1     -42.963 -47.235  10.626  1.00  0.00     0.186 C 
BRANCH  21  22
HETATM   22  O   UNL     1     -43.089 -45.983   9.951  1.00  0.00    -0.394 OA
HETATM   23  C   UNL     1     -44.002 -46.011   8.866  1.00  0.00     0.201 C 
ENDBRANCH  21  22
ENDBRANCH  20  21
ENDBRANCH  13  20
ENDBRANCH   4  13
BRANCH   2  24
HETATM   24  C   UNL     1     -44.203 -52.664  14.873  1.00  0.00     0.147 C 
BRANCH  24  25
HETATM   25  C   UNL     1     -45.378 -53.377  14.217  1.00  0.00     0.040 C 
HETATM   26  C   UNL     1     -46.204 -54.323  15.111  1.00  0.00     0.183 C 
HETATM   27  O   UNL     1     -46.003 -55.421  14.189  1.00  0.00    -0.389 OA
HETATM   28  C   UNL     1     -44.951 -54.682  13.517  1.00  0.00     0.183 C 
BRANCH  25  29
HETATM   29  C   UNL     1     -46.271 -52.488  13.356  1.00  0.00     0.179 C 
BRANCH  29  30
HETATM   30  O   UNL     1     -46.377 -53.037  12.046  1.00  0.00    -0.400 OA
HETATM   31  H   UNL     1     -46.937 -52.421  11.529  1.00  0.00     0.209 HD
ENDBRANCH  29  30
ENDBRANCH  25  29
ENDBRANCH  24  25
ENDBRANCH   2  24
TORSDOF 9
ENDMDL
MODEL 6
REMARK VINA RESULT:      -5.9      2.282      7.311
REMARK  9 active torsions:
REMARK  status: ('A' for Active; 'I' for Inactive)
REMARK    1  A    between atoms: N_2  and  C_15 
REMARK    2  A    between atoms: C_4  and  N_8 
REMARK    3  A    between atoms: N_8  and  C_13 
REMARK    4  A    between atoms: N_8  and  C_25 
REMARK    5  A    between atoms: C_14  and  C_15 
REMARK    6  A    between atoms: C_14  and  C_24 
REMARK    7  A    between atoms: C_24  and  O_26 
REMARK    8  A    between atoms: C_25  and  C_28 
REMARK    9  A    between atoms: O_27  and  C_28 
ROOT
HETATM    1  C   UNL     1     -42.443 -48.293  13.040  1.00  0.00     0.122 A 
HETATM    2  N   UNL     1     -42.079 -46.183  12.581  1.00  0.00    -0.326 N 
HETATM    3  C   UNL     1     -41.874 -47.446  12.093  1.00  0.00     0.140 A 
HETATM    4  C   UNL     1     -42.447 -49.688  12.757  1.00  0.00     0.135 A 
HETATM    5  N   UNL     1     -42.933 -47.547  14.102  1.00  0.00    -0.346 N 
ATOM      6  HN  UNL     1     -43.375 -47.900  14.951  1.00  0.00     0.167 HD
HETATM    7  C   UNL     1     -42.706 -46.294  13.786  1.00  0.00     0.185 A 
HETATM    8  N   UNL     1     -41.825 -50.052  11.589  1.00  0.00    -0.337 N 
ATOM      9  HN  UNL     1     -41.773 -51.037  11.329  1.00  0.00     0.168 HD
HETATM   10  N   UNL     1     -41.271 -47.780  10.941  1.00  0.00    -0.336 N 
ATOM     11  HN  UNL     1     -40.865 -47.117  10.281  1.00  0.00     0.168 HD
HETATM   12  C   UNL     1     -41.281 -49.116  10.782  1.00  0.00     0.183 A 
ENDROOT
BRANCH   4  13
HETATM   13  N   UNL     1     -43.018 -50.688  13.556  1.00  0.00    -0.359 N 
BRANCH  13  14
HETATM   14  C   UNL     1     -44.453 -50.629  13.875  1.00  0.00     0.086 C 
HETATM   15  C   UNL     1     -44.752 -51.160  15.294  1.00  0.00     0.029 C 
HETATM   16  C   UNL     1     -46.164 -51.773  15.251  1.00  0.00    -0.017 C 
HETATM   17  C   UNL     1     -46.665 -51.528  13.831  1.00  0.00     0.006 C 
HETATM   18  C   UNL     1     -47.107 -51.205  16.301  1.00  0.00     0.010 C 
HETATM   19  C   UNL     1     -45.386 -51.482  13.009  1.00  0.00     0.026 C 
ENDBRANCH  13  14
BRANCH  13  20
HETATM   20  C   UNL     1     -42.133 -51.775  13.996  1.00  0.00     0.151 C 
BRANCH  20  21
HETATM   21  C   UNL     1     -42.257 -53.084  13.185  1.00  0.00     0.186 C 
BRANCH  21  22
HETATM   22  O   UNL     1     -42.317 -54.292  13.945  1.00  0.00    -0.394 OA
HETATM   23  C   UNL     1     -43.610 -54.583  14.449  1.00  0.00     0.201 C 
ENDBRANCH  21  22
ENDBRANCH  20  21
ENDBRANCH  13  20
ENDBRANCH   4  13
BRANCH   2  24
HETATM   24  C   UNL     1     -41.808 -44.933  11.889  1.00  0.00     0.147 C 
BRANCH  24  25
HETATM   25  C   UNL     1     -40.340 -44.529  11.883  1.00  0.00     0.040 C 
HETATM   26  C   UNL     1     -39.486 -44.998  13.078  1.00  0.00     0.183 C 
HETATM   27  O   UNL     1     -39.075 -43.638  13.359  1.00  0.00    -0.389 OA
HETATM   28  C   UNL     1     -40.119 -43.129  12.490  1.00  0.00     0.183 C 
BRANCH  25  29
HETATM   29  C   UNL     1     -39.619 -44.738  10.555  1.00  0.00     0.179 C 
BRANCH  29  30
HETATM   30  O   UNL     1     -40.534 -45.233   9.583  1.00  0.00    -0.400 OA
HETATM   31  H   UNL     1     -40.329 -46.184   9.465  1.00  0.00     0.209 HD
ENDBRANCH  29  30
ENDBRANCH  25  29
ENDBRANCH  24  25
ENDBRANCH   2  24
TORSDOF 9
ENDMDL
MODEL 7
REMARK VINA RESULT:      -5.8      2.110      7.241
REMARK  9 active torsions:
REMARK  status: ('A' for Active; 'I' for Inactive)
REMARK    1  A    between atoms: N_2  and  C_15 
REMARK    2  A    between atoms: C_4  and  N_8 
REMARK    3  A    between atoms: N_8  and  C_13 
REMARK    4  A    between atoms: N_8  and  C_25 
REMARK    5  A    between atoms: C_14  and  C_15 
REMARK    6  A    between atoms: C_14  and  C_24 
REMARK    7  A    between atoms: C_24  and  O_26 
REMARK    8  A    between atoms: C_25  and  C_28 
REMARK    9  A    between atoms: O_27  and  C_28 
ROOT
HETATM    1  C   UNL     1     -42.040 -49.234  12.214  1.00  0.00     0.122 A 
HETATM    2  N   UNL     1     -40.954 -47.560  11.311  1.00  0.00    -0.326 N 
HETATM    3  C   UNL     1     -40.950 -48.390  12.401  1.00  0.00     0.140 A 
HETATM    4  C   UNL     1     -42.243 -50.269  13.171  1.00  0.00     0.135 A 
HETATM    5  N   UNL     1     -42.715 -48.879  11.056  1.00  0.00    -0.346 N 
ATOM      6  HN  UNL     1     -43.565 -49.301  10.683  1.00  0.00     0.167 HD
HETATM    7  C   UNL     1     -42.031 -47.884  10.541  1.00  0.00     0.185 A 
HETATM    8  N   UNL     1     -41.359 -50.279  14.221  1.00  0.00    -0.337 N 
ATOM      9  HN  UNL     1     -41.453 -50.980  14.955  1.00  0.00     0.168 HD
HETATM   10  N   UNL     1     -40.068 -48.389  13.414  1.00  0.00    -0.336 N 
ATOM     11  HN  UNL     1     -39.285 -47.742  13.506  1.00  0.00     0.168 HD
HETATM   12  C   UNL     1     -40.366 -49.367  14.289  1.00  0.00     0.183 A 
ENDROOT
BRANCH   4  13
HETATM   13  N   UNL     1     -43.246 -51.246  13.125  1.00  0.00    -0.359 N 
BRANCH  13  14
HETATM   14  C   UNL     1     -44.575 -50.946  13.677  1.00  0.00     0.086 C 
HETATM   15  C   UNL     1     -44.716 -51.426  15.139  1.00  0.00     0.029 C 
HETATM   16  C   UNL     1     -46.199 -51.789  15.346  1.00  0.00    -0.017 C 
HETATM   17  C   UNL     1     -46.883 -51.455  14.024  1.00  0.00     0.006 C 
HETATM   18  C   UNL     1     -46.842 -51.075  16.525  1.00  0.00     0.010 C 
HETATM   19  C   UNL     1     -45.771 -51.623  13.000  1.00  0.00     0.026 C 
ENDBRANCH  13  14
BRANCH  13  20
HETATM   20  C   UNL     1     -42.905 -52.520  12.477  1.00  0.00     0.151 C 
BRANCH  20  21
HETATM   21  C   UNL     1     -42.380 -53.616  13.431  1.00  0.00     0.186 C 
BRANCH  21  22
HETATM   22  O   UNL     1     -41.154 -53.331  14.104  1.00  0.00    -0.394 OA
HETATM   23  C   UNL     1     -40.084 -54.180  13.722  1.00  0.00     0.201 C 
ENDBRANCH  21  22
ENDBRANCH  20  21
ENDBRANCH  13  20
ENDBRANCH   4  13
BRANCH   2  24
HETATM   24  C   UNL     1     -39.926 -46.596  10.953  1.00  0.00     0.147 C 
BRANCH  24  25
HETATM   25  C   UNL     1     -40.230 -45.169  11.389  1.00  0.00     0.040 C 
HETATM   26  C   UNL     1     -39.859 -44.791  12.837  1.00  0.00     0.183 C 
HETATM   27  O   UNL     1     -41.213 -44.355  13.104  1.00  0.00    -0.389 OA
HETATM   28  C   UNL     1     -41.677 -45.011  11.896  1.00  0.00     0.183 C 
BRANCH  25  29
HETATM   29  C   UNL     1     -39.811 -44.090  10.396  1.00  0.00     0.179 C 
BRANCH  29  30
HETATM   30  O   UNL     1     -40.628 -42.936  10.566  1.00  0.00    -0.400 OA
HETATM   31  H   UNL     1     -40.700 -42.783  11.530  1.00  0.00     0.209 HD
ENDBRANCH  29  30
ENDBRANCH  25  29
ENDBRANCH  24  25
ENDBRANCH   2  24
TORSDOF 9
ENDMDL
MODEL 8
REMARK VINA RESULT:      -5.8      2.178      4.009
REMARK  9 active torsions:
REMARK  status: ('A' for Active; 'I' for Inactive)
REMARK    1  A    between atoms: N_2  and  C_15 
REMARK    2  A    between atoms: C_4  and  N_8 
REMARK    3  A    between atoms: N_8  and  C_13 
REMARK    4  A    between atoms: N_8  and  C_25 
REMARK    5  A    between atoms: C_14  and  C_15 
REMARK    6  A    between atoms: C_14  and  C_24 
REMARK    7  A    between atoms: C_24  and  O_26 
REMARK    8  A    between atoms: C_25  and  C_28 
REMARK    9  A    between atoms: O_27  and  C_28 
ROOT
HETATM    1  C   UNL     1     -41.280 -50.182  11.891  1.00  0.00     0.122 A 
HETATM    2  N   UNL     1     -41.342 -52.282  12.511  1.00  0.00    -0.326 N 
HETATM    3  C   UNL     1     -40.475 -51.292  12.132  1.00  0.00     0.140 A 
HETATM    4  C   UNL     1     -40.632 -48.962  11.548  1.00  0.00     0.135 A 
HETATM    5  N   UNL     1     -42.612 -50.521  12.075  1.00  0.00    -0.346 N 
ATOM      6  HN  UNL     1     -43.425 -49.920  11.942  1.00  0.00     0.167 HD
HETATM    7  C   UNL     1     -42.607 -51.777  12.454  1.00  0.00     0.185 A 
HETATM    8  N   UNL     1     -39.266 -49.035  11.432  1.00  0.00    -0.337 N 
ATOM      9  HN  UNL     1     -38.735 -48.204  11.171  1.00  0.00     0.168 HD
HETATM   10  N   UNL     1     -39.138 -51.382  12.035  1.00  0.00    -0.336 N 
ATOM     11  HN  UNL     1     -38.595 -52.225  12.218  1.00  0.00     0.168 HD
HETATM   12  C   UNL     1     -38.620 -50.198  11.660  1.00  0.00     0.183 A 
ENDROOT
BRANCH   4  13
HETATM   13  N   UNL     1     -41.263 -47.731  11.325  1.00  0.00    -0.359 N 
BRANCH  13  14
HETATM   14  C   UNL     1     -41.053 -46.627  12.273  1.00  0.00     0.086 C 
HETATM   15  C   UNL     1     -40.047 -45.586  11.736  1.00  0.00     0.029 C 
HETATM   16  C   UNL     1     -39.333 -44.984  12.961  1.00  0.00    -0.017 C 
HETATM   17  C   UNL     1     -39.983 -45.647  14.170  1.00  0.00     0.006 C 
HETATM   18  C   UNL     1     -39.408 -43.466  13.024  1.00  0.00     0.010 C 
HETATM   19  C   UNL     1     -40.443 -46.992  13.630  1.00  0.00     0.026 C 
ENDBRANCH  13  14
BRANCH  13  20
HETATM   20  C   UNL     1     -42.076 -47.611  10.107  1.00  0.00     0.151 C 
BRANCH  20  21
HETATM   21  C   UNL     1     -43.595 -47.463  10.350  1.00  0.00     0.186 C 
BRANCH  21  22
HETATM   22  O   UNL     1     -44.432 -47.593   9.201  1.00  0.00    -0.394 OA
HETATM   23  C   UNL     1     -43.714 -47.701   7.983  1.00  0.00     0.201 C 
ENDBRANCH  21  22
ENDBRANCH  20  21
ENDBRANCH  13  20
ENDBRANCH   4  13
BRANCH   2  24
HETATM   24  C   UNL     1     -40.986 -53.597  13.020  1.00  0.00     0.147 C 
BRANCH  24  25
HETATM   25  C   UNL     1     -40.527 -53.599  14.472  1.00  0.00     0.040 C 
HETATM   26  C   UNL     1     -41.414 -54.359  15.479  1.00  0.00     0.183 C 
HETATM   27  O   UNL     1     -41.533 -53.180  16.311  1.00  0.00    -0.389 OA
HETATM   28  C   UNL     1     -41.013 -52.353  15.239  1.00  0.00     0.183 C 
BRANCH  25  29
HETATM   29  C   UNL     1     -39.047 -53.904  14.680  1.00  0.00     0.179 C 
BRANCH  29  30
HETATM   30  O   UNL     1     -38.427 -54.159  13.423  1.00  0.00    -0.400 OA
HETATM   31  H   UNL     1     -38.411 -55.133  13.312  1.00  0.00     0.209 HD
ENDBRANCH  29  30
ENDBRANCH  25  29
ENDBRANCH  24  25
ENDBRANCH   2  24
TORSDOF 9
ENDMDL
MODEL 9
REMARK VINA RESULT:      -5.7      2.902      4.518
REMARK  9 active torsions:
REMARK  status: ('A' for Active; 'I' for Inactive)
REMARK    1  A    between atoms: N_2  and  C_15 
REMARK    2  A    between atoms: C_4  and  N_8 
REMARK    3  A    between atoms: N_8  and  C_13 
REMARK    4  A    between atoms: N_8  and  C_25 
REMARK    5  A    between atoms: C_14  and  C_15 
REMARK    6  A    between atoms: C_14  and  C_24 
REMARK    7  A    between atoms: C_24  and  O_26 
REMARK    8  A    between atoms: C_25  and  C_28 
REMARK    9  A    between atoms: O_27  and  C_28 
ROOT
HETATM    1  C   UNL     1     -41.759 -50.657  12.779  1.00  0.00     0.122 A 
HETATM    2  N   UNL     1     -43.228 -52.278  12.679  1.00  0.00    -0.326 N 
HETATM    3  C   UNL     1     -42.977 -51.084  13.300  1.00  0.00     0.140 A 
HETATM    4  C   UNL     1     -41.275 -49.384  13.193  1.00  0.00     0.135 A 
HETATM    5  N   UNL     1     -41.267 -51.608  11.898  1.00  0.00    -0.346 N 
ATOM      6  HN  UNL     1     -40.383 -51.579  11.389  1.00  0.00     0.167 HD
HETATM    7  C   UNL     1     -42.176 -52.554  11.857  1.00  0.00     0.185 A 
HETATM    8  N   UNL     1     -42.050 -48.736  14.124  1.00  0.00    -0.337 N 
ATOM      9  HN  UNL     1     -41.757 -47.827  14.482  1.00  0.00     0.168 HD
HETATM   10  N   UNL     1     -43.754 -50.462  14.201  1.00  0.00    -0.336 N 
ATOM     11  HN  UNL     1     -44.640 -50.822  14.556  1.00  0.00     0.168 HD
HETATM   12  C   UNL     1     -43.196 -49.294  14.569  1.00  0.00     0.183 A 
ENDROOT
BRANCH   4  13
HETATM   13  N   UNL     1     -40.105 -48.761  12.741  1.00  0.00    -0.359 N 
BRANCH  13  14
HETATM   14  C   UNL     1     -40.190 -47.734  11.692  1.00  0.00     0.086 C 
HETATM   15  C   UNL     1     -40.001 -46.310  12.260  1.00  0.00     0.029 C 
HETATM   16  C   UNL     1     -40.828 -45.363  11.370  1.00  0.00    -0.017 C 
HETATM   17  C   UNL     1     -41.423 -46.252  10.283  1.00  0.00     0.006 C 
HETATM   18  C   UNL     1     -40.022 -44.208  10.796  1.00  0.00     0.010 C 
HETATM   19  C   UNL     1     -41.528 -47.611  10.956  1.00  0.00     0.026 C 
ENDBRANCH  13  14
BRANCH  13  20
HETATM   20  C   UNL     1     -38.847 -49.155  13.389  1.00  0.00     0.151 C 
BRANCH  20  21
HETATM   21  C   UNL     1     -37.970 -50.130  12.572  1.00  0.00     0.186 C 
BRANCH  21  22
HETATM   22  O   UNL     1     -38.329 -51.511  12.643  1.00  0.00    -0.394 OA
HETATM   23  C   UNL     1     -38.472 -51.993  13.968  1.00  0.00     0.201 C 
ENDBRANCH  21  22
ENDBRANCH  20  21
ENDBRANCH  13  20
ENDBRANCH   4  13
BRANCH   2  24
HETATM   24  C   UNL     1     -44.454 -53.055  12.762  1.00  0.00     0.147 C 
BRANCH  24  25
HETATM   25  C   UNL     1     -44.490 -54.042  13.921  1.00  0.00     0.040 C 
HETATM   26  C   UNL     1     -45.508 -55.195  13.821  1.00  0.00     0.183 C 
HETATM   27  O   UNL     1     -46.086 -54.838  15.099  1.00  0.00    -0.389 OA
HETATM   28  C   UNL     1     -45.401 -53.560  15.068  1.00  0.00     0.183 C 
BRANCH  25  29
HETATM   29  C   UNL     1     -43.124 -54.531  14.393  1.00  0.00     0.179 C 
BRANCH  29  30
HETATM   30  O   UNL     1     -43.283 -55.678  15.221  1.00  0.00    -0.400 OA
HETATM   31  H   UNL     1     -44.214 -55.967  15.124  1.00  0.00     0.209 HD
ENDBRANCH  29  30
ENDBRANCH  25  29
ENDBRANCH  24  25
ENDBRANCH   2  24
TORSDOF 9
ENDMDL
