MODEL 1
REMARK VINA RESULT:      -6.1      0.000      0.000
REMARK  6 active torsions:
REMARK  status: ('A' for Active; 'I' for Inactive)
REMARK    1  A    between atoms: C_2  and  C_3 
REMARK    2  A    between atoms: C_7  and  C_8 
REMARK    3  A    between atoms: C_8  and  C_9 
REMARK    4  A    between atoms: C_9  and  N_10 
REMARK       I    between atoms: N_10  and  C_11 
REMARK       I    between atoms: C_11  and  N_13 
REMARK    5  A    between atoms: N_13  and  C_14 
REMARK    6  A    between atoms: C_19  and  O_20 
ROOT
HETATM    1  N   UNL     1     -41.779 -50.250  11.370  1.00  0.00    -0.343 N 
HETATM    2  C   UNL     1     -41.976 -50.819  12.607  1.00  0.00     0.316 C 
HETATM    3  O   UNL     1     -41.196 -50.682  13.542  1.00  0.00    -0.247 OA
HETATM    4  N   UNL     1     -43.144 -51.536  12.684  1.00  0.00    -0.336 N 
HETATM    5  H   UNL     1     -42.629 -49.968  10.892  1.00  0.00     0.164 HD
HETATM    6  H   UNL     1     -43.425 -51.970  11.814  1.00  0.00     0.164 HD
ENDROOT
BRANCH   1   7
HETATM    7  C   UNL     1     -40.647 -49.344  11.220  1.00  0.00     0.131 C 
BRANCH   7   8
HETATM    8  C   UNL     1     -41.026 -47.881  10.992  1.00  0.00     0.084 C 
BRANCH   8   9
HETATM    9  C   UNL     1     -42.270 -47.753  10.169  1.00  0.00     0.052 A 
HETATM   10  N   UNL     1     -42.323 -47.973   8.870  1.00  0.00    -0.363 N 
HETATM   11  C   UNL     1     -43.616 -47.775   8.420  1.00  0.00     0.103 A 
ATOM     12  HN  UNL     1     -41.532 -48.247   8.287  1.00  0.00     0.165 HD
HETATM   13  C   UNL     1     -44.541 -47.423   9.380  1.00  0.00    -0.001 A 
HETATM   14  S   UNL     1     -43.762 -47.302  10.902  1.00  0.00    -0.080 SA
BRANCH  13  15
HETATM   15  C   UNL     1     -46.006 -47.174   9.228  1.00  0.00     0.043 C 
HETATM   16  C   UNL     1     -46.746 -48.446   8.842  1.00  0.00     0.010 C 
ENDBRANCH  13  15
ENDBRANCH   8   9
ENDBRANCH   7   8
ENDBRANCH   1   7
BRANCH   4  17
HETATM   17  C   UNL     1     -43.490 -52.216  13.944  1.00  0.00     0.114 C 
HETATM   18  C   UNL     1     -44.057 -53.624  13.715  1.00  0.00     0.028 C 
HETATM   19  C   UNL     1     -45.501 -53.626  13.208  1.00  0.00     0.002 C 
HETATM   20  C   UNL     1     -46.431 -52.732  14.026  1.00  0.00     0.003 C 
HETATM   21  C   UNL     1     -45.867 -51.336  14.253  1.00  0.00     0.034 C 
HETATM   22  C   UNL     1     -44.449 -51.379  14.814  1.00  0.00     0.140 C 
BRANCH  22  23
HETATM   23  O   UNL     1     -43.971 -50.042  14.955  1.00  0.00    -0.394 OA
HETATM   24  H   UNL     1     -44.444 -49.659  15.717  1.00  0.00     0.210 HD
ENDBRANCH  22  23
ENDBRANCH   4  17
TORSDOF 6
ENDMDL
MODEL 2
REMARK VINA RESULT:      -5.9      2.844      6.315
REMARK  6 active torsions:
REMARK  status: ('A' for Active; 'I' for Inactive)
REMARK    1  A    between atoms: C_2  and  C_3 
REMARK    2  A    between atoms: C_7  and  C_8 
REMARK    3  A    between atoms: C_8  and  C_9 
REMARK    4  A    between atoms: C_9  and  N_10 
REMARK       I    between atoms: N_10  and  C_11 
REMARK       I    between atoms: C_11  and  N_13 
REMARK    5  A    between atoms: N_13  and  C_14 
REMARK    6  A    between atoms: C_19  and  O_20 
ROOT
HETATM    1  N   UNL     1     -43.414 -52.860  12.160  1.00  0.00    -0.343 N 
HETATM    2  C   UNL     1     -42.527 -51.950  12.686  1.00  0.00     0.316 C 
HETATM    3  O   UNL     1     -41.917 -52.133  13.733  1.00  0.00    -0.247 OA
HETATM    4  N   UNL     1     -42.387 -50.830  11.905  1.00  0.00    -0.336 N 
HETATM    5  H   UNL     1     -43.440 -52.892  11.146  1.00  0.00     0.164 HD
HETATM    6  H   UNL     1     -43.221 -50.572  11.392  1.00  0.00     0.164 HD
ENDROOT
BRANCH   1   7
HETATM    7  C   UNL     1     -43.529 -54.151  12.829  1.00  0.00     0.131 C 
BRANCH   7   8
HETATM    8  C   UNL     1     -44.940 -54.506  13.293  1.00  0.00     0.084 C 
BRANCH   8   9
HETATM    9  C   UNL     1     -45.616 -53.342  13.950  1.00  0.00     0.052 A 
HETATM   10  N   UNL     1     -46.486 -52.557  13.348  1.00  0.00    -0.363 N 
HETATM   11  C   UNL     1     -46.925 -51.588  14.234  1.00  0.00     0.103 A 
ATOM     12  HN  UNL     1     -46.789 -52.648  12.378  1.00  0.00     0.165 HD
HETATM   13  C   UNL     1     -46.399 -51.654  15.506  1.00  0.00    -0.001 A 
HETATM   14  S   UNL     1     -45.288 -52.956  15.596  1.00  0.00    -0.080 SA
BRANCH  13  15
HETATM   15  C   UNL     1     -46.689 -50.789  16.690  1.00  0.00     0.043 C 
HETATM   16  C   UNL     1     -48.066 -51.083  17.265  1.00  0.00     0.010 C 
ENDBRANCH  13  15
ENDBRANCH   8   9
ENDBRANCH   7   8
ENDBRANCH   1   7
BRANCH   4  17
HETATM   17  C   UNL     1     -41.479 -49.756  12.342  1.00  0.00     0.114 C 
HETATM   18  C   UNL     1     -42.166 -48.750  13.276  1.00  0.00     0.028 C 
HETATM   19  C   UNL     1     -43.107 -47.787  12.549  1.00  0.00     0.002 C 
HETATM   20  C   UNL     1     -42.475 -47.130  11.324  1.00  0.00     0.003 C 
HETATM   21  C   UNL     1     -41.793 -48.129  10.400  1.00  0.00     0.034 C 
HETATM   22  C   UNL     1     -40.820 -49.029  11.152  1.00  0.00     0.140 C 
BRANCH  22  23
HETATM   23  O   UNL     1     -40.257 -49.966  10.234  1.00  0.00    -0.394 OA
HETATM   24  H   UNL     1     -39.303 -49.768  10.189  1.00  0.00     0.210 HD
ENDBRANCH  22  23
ENDBRANCH   4  17
TORSDOF 6
ENDMDL
MODEL 3
REMARK VINA RESULT:      -5.8      2.404      6.049
REMARK  6 active torsions:
REMARK  status: ('A' for Active; 'I' for Inactive)
REMARK    1  A    between atoms: C_2  and  C_3 
REMARK    2  A    between atoms: C_7  and  C_8 
REMARK    3  A    between atoms: C_8  and  C_9 
REMARK    4  A    between atoms: C_9  and  N_10 
REMARK       I    between atoms: N_10  and  C_11 
REMARK       I    between atoms: C_11  and  N_13 
REMARK    5  A    between atoms: N_13  and  C_14 
REMARK    6  A    between atoms: C_19  and  O_20 
ROOT
HETATM    1  N   UNL     1     -40.930 -50.379  11.110  1.00  0.00    -0.343 N 
HETATM    2  C   UNL     1     -41.623 -49.285  11.575  1.00  0.00     0.316 C 
HETATM    3  O   UNL     1     -41.893 -49.113  12.758  1.00  0.00    -0.247 OA
HETATM    4  N   UNL     1     -41.958 -48.405  10.577  1.00  0.00    -0.336 N 
HETATM    5  H   UNL     1     -40.326 -50.194  10.316  1.00  0.00     0.164 HD
HETATM    6  H   UNL     1     -42.127 -48.838   9.678  1.00  0.00     0.164 HD
ENDROOT
BRANCH   1   7
HETATM    7  C   UNL     1     -40.393 -51.305  12.101  1.00  0.00     0.131 C 
BRANCH   7   8
HETATM    8  C   UNL     1     -40.968 -52.719  12.030  1.00  0.00     0.084 C 
BRANCH   8   9
HETATM    9  C   UNL     1     -42.370 -52.774  12.555  1.00  0.00     0.052 A 
HETATM   10  N   UNL     1     -43.413 -53.137  11.837  1.00  0.00    -0.363 N 
HETATM   11  C   UNL     1     -44.554 -53.085  12.620  1.00  0.00     0.103 A 
ATOM     12  HN  UNL     1     -43.386 -53.412  10.855  1.00  0.00     0.165 HD
HETATM   13  C   UNL     1     -44.366 -52.700  13.931  1.00  0.00    -0.001 A 
HETATM   14  S   UNL     1     -42.707 -52.357  14.191  1.00  0.00    -0.080 SA
BRANCH  13  15
HETATM   15  C   UNL     1     -45.373 -52.579  15.028  1.00  0.00     0.043 C 
HETATM   16  C   UNL     1     -46.229 -51.334  14.858  1.00  0.00     0.010 C 
ENDBRANCH  13  15
ENDBRANCH   8   9
ENDBRANCH   7   8
ENDBRANCH   1   7
BRANCH   4  17
HETATM   17  C   UNL     1     -42.715 -47.187  10.915  1.00  0.00     0.114 C 
HETATM   18  C   UNL     1     -44.213 -47.460  11.105  1.00  0.00     0.028 C 
HETATM   19  C   UNL     1     -44.966 -47.676   9.791  1.00  0.00     0.002 C 
HETATM   20  C   UNL     1     -44.683 -46.598   8.746  1.00  0.00     0.003 C 
HETATM   21  C   UNL     1     -43.197 -46.327   8.560  1.00  0.00     0.034 C 
HETATM   22  C   UNL     1     -42.495 -46.059   9.887  1.00  0.00     0.140 C 
BRANCH  22  23
HETATM   23  O   UNL     1     -41.103 -45.862   9.639  1.00  0.00    -0.394 OA
HETATM   24  H   UNL     1     -41.040 -45.380   8.794  1.00  0.00     0.210 HD
ENDBRANCH  22  23
ENDBRANCH   4  17
TORSDOF 6
ENDMDL
MODEL 4
REMARK VINA RESULT:      -5.7      2.469      3.305
REMARK  6 active torsions:
REMARK  status: ('A' for Active; 'I' for Inactive)
REMARK    1  A    between atoms: C_2  and  C_3 
REMARK    2  A    between atoms: C_7  and  C_8 
REMARK    3  A    between atoms: C_8  and  C_9 
REMARK    4  A    between atoms: C_9  and  N_10 
REMARK       I    between atoms: N_10  and  C_11 
REMARK       I    between atoms: C_11  and  N_13 
REMARK    5  A    between atoms: N_13  and  C_14 
REMARK    6  A    between atoms: C_19  and  O_20 
ROOT
HETATM    1  N   UNL     1     -39.656 -49.662  12.904  1.00  0.00    -0.343 N 
HETATM    2  C   UNL     1     -40.194 -50.824  12.399  1.00  0.00     0.316 C 
HETATM    3  O   UNL     1     -40.561 -50.945  11.236  1.00  0.00    -0.247 OA
HETATM    4  N   UNL     1     -40.257 -51.829  13.331  1.00  0.00    -0.336 N 
HETATM    5  H   UNL     1     -38.944 -49.797  13.615  1.00  0.00     0.164 HD
HETATM    6  H   UNL     1     -40.397 -51.511  14.281  1.00  0.00     0.164 HD
ENDROOT
BRANCH   1   7
HETATM    7  C   UNL     1     -39.404 -48.575  11.965  1.00  0.00     0.131 C 
BRANCH   7   8
HETATM    8  C   UNL     1     -40.313 -47.360  12.138  1.00  0.00     0.084 C 
BRANCH   8   9
HETATM    9  C   UNL     1     -41.362 -47.297  11.071  1.00  0.00     0.052 A 
HETATM   10  N   UNL     1     -41.554 -48.238  10.168  1.00  0.00    -0.363 N 
HETATM   11  C   UNL     1     -42.601 -47.875   9.338  1.00  0.00     0.103 A 
ATOM     12  HN  UNL     1     -41.014 -49.100  10.092  1.00  0.00     0.165 HD
HETATM   13  C   UNL     1     -43.207 -46.671   9.625  1.00  0.00    -0.001 A 
HETATM   14  S   UNL     1     -42.422 -45.944  10.964  1.00  0.00    -0.080 SA
BRANCH  13  15
HETATM   15  C   UNL     1     -44.370 -46.019   8.951  1.00  0.00     0.043 C 
HETATM   16  C   UNL     1     -45.617 -46.886   9.039  1.00  0.00     0.010 C 
ENDBRANCH  13  15
ENDBRANCH   8   9
ENDBRANCH   7   8
ENDBRANCH   1   7
BRANCH   4  17
HETATM   17  C   UNL     1     -40.822 -53.134  12.944  1.00  0.00     0.114 C 
HETATM   18  C   UNL     1     -42.320 -53.242  13.260  1.00  0.00     0.028 C 
HETATM   19  C   UNL     1     -42.617 -53.448  14.747  1.00  0.00     0.002 C 
HETATM   20  C   UNL     1     -41.790 -54.564  15.381  1.00  0.00     0.003 C 
HETATM   21  C   UNL     1     -40.305 -54.457  15.066  1.00  0.00     0.034 C 
HETATM   22  C   UNL     1     -40.049 -54.313  13.570  1.00  0.00     0.140 C 
BRANCH  22  23
HETATM   23  O   UNL     1     -38.645 -54.170  13.356  1.00  0.00    -0.394 OA
HETATM   24  H   UNL     1     -38.245 -55.032  13.573  1.00  0.00     0.210 HD
ENDBRANCH  22  23
ENDBRANCH   4  17
TORSDOF 6
ENDMDL
MODEL 5
REMARK VINA RESULT:      -5.7      3.622      6.279
REMARK  6 active torsions:
REMARK  status: ('A' for Active; 'I' for Inactive)
REMARK    1  A    between atoms: C_2  and  C_3 
REMARK    2  A    between atoms: C_7  and  C_8 
REMARK    3  A    between atoms: C_8  and  C_9 
REMARK    4  A    between atoms: C_9  and  N_10 
REMARK       I    between atoms: N_10  and  C_11 
REMARK       I    between atoms: C_11  and  N_13 
REMARK    5  A    between atoms: N_13  and  C_14 
REMARK    6  A    between atoms: C_19  and  O_20 
ROOT
HETATM    1  N   UNL     1     -41.022 -52.998  14.755  1.00  0.00    -0.343 N 
HETATM    2  C   UNL     1     -40.086 -52.622  13.819  1.00  0.00     0.316 C 
HETATM    3  O   UNL     1     -39.375 -53.421  13.220  1.00  0.00    -0.247 OA
HETATM    4  N   UNL     1     -40.051 -51.265  13.618  1.00  0.00    -0.336 N 
HETATM    5  H   UNL     1     -41.854 -52.418  14.782  1.00  0.00     0.164 HD
HETATM    6  H   UNL     1     -40.281 -50.716  14.437  1.00  0.00     0.164 HD
ENDROOT
BRANCH   1   7
HETATM    7  C   UNL     1     -41.251 -54.427  14.939  1.00  0.00     0.131 C 
BRANCH   7   8
HETATM    8  C   UNL     1     -42.719 -54.824  15.088  1.00  0.00     0.084 C 
BRANCH   8   9
HETATM    9  C   UNL     1     -43.605 -54.015  14.192  1.00  0.00     0.052 A 
HETATM   10  N   UNL     1     -43.542 -54.038  12.876  1.00  0.00    -0.363 N 
HETATM   11  C   UNL     1     -44.499 -53.186  12.352  1.00  0.00     0.103 A 
ATOM     12  HN  UNL     1     -42.889 -54.597  12.327  1.00  0.00     0.165 HD
HETATM   13  C   UNL     1     -45.293 -52.535  13.272  1.00  0.00    -0.001 A 
HETATM   14  S   UNL     1     -44.807 -52.977  14.856  1.00  0.00    -0.080 SA
BRANCH  13  15
HETATM   15  C   UNL     1     -46.424 -51.587  13.035  1.00  0.00     0.043 C 
HETATM   16  C   UNL     1     -47.001 -51.755  11.638  1.00  0.00     0.010 C 
ENDBRANCH  13  15
ENDBRANCH   8   9
ENDBRANCH   7   8
ENDBRANCH   1   7
BRANCH   4  17
HETATM   17  C   UNL     1     -39.089 -50.705  12.653  1.00  0.00     0.114 C 
HETATM   18  C   UNL     1     -38.043 -49.802  13.323  1.00  0.00     0.028 C 
HETATM   19  C   UNL     1     -38.588 -48.428  13.720  1.00  0.00     0.002 C 
HETATM   20  C   UNL     1     -39.349 -47.730  12.595  1.00  0.00     0.003 C 
HETATM   21  C   UNL     1     -40.385 -48.627  11.932  1.00  0.00     0.034 C 
HETATM   22  C   UNL     1     -39.788 -49.961  11.498  1.00  0.00     0.140 C 
BRANCH  22  23
HETATM   23  O   UNL     1     -40.823 -50.764  10.930  1.00  0.00    -0.394 OA
HETATM   24  H   UNL     1     -41.654 -50.269  11.054  1.00  0.00     0.210 HD
ENDBRANCH  22  23
ENDBRANCH   4  17
TORSDOF 6
ENDMDL
MODEL 6
REMARK VINA RESULT:      -5.6      2.865      3.530
REMARK  6 active torsions:
REMARK  status: ('A' for Active; 'I' for Inactive)
REMARK    1  A    between atoms: C_2  and  C_3 
REMARK    2  A    between atoms: C_7  and  C_8 
REMARK    3  A    between atoms: C_8  and  C_9 
REMARK    4  A    between atoms: C_9  and  N_10 
REMARK       I    between atoms: N_10  and  C_11 
REMARK       I    between atoms: C_11  and  N_13 
REMARK    5  A    between atoms: N_13  and  C_14 
REMARK    6  A    between atoms: C_19  and  O_20 
ROOT
HETATM    1  N   UNL     1     -41.722 -49.973  11.687  1.00  0.00    -0.343 N 
HETATM    2  C   UNL     1     -42.189 -51.160  12.205  1.00  0.00     0.316 C 
HETATM    3  O   UNL     1     -41.546 -52.203  12.180  1.00  0.00    -0.247 OA
HETATM    4  N   UNL     1     -43.436 -51.042  12.765  1.00  0.00    -0.336 N 
HETATM    5  H   UNL     1     -42.022 -49.144  12.188  1.00  0.00     0.164 HD
HETATM    6  H   UNL     1     -44.027 -50.348  12.325  1.00  0.00     0.164 HD
ENDROOT
BRANCH   1   7
HETATM    7  C   UNL     1     -40.347 -49.947  11.201  1.00  0.00     0.131 C 
BRANCH   7   8
HETATM    8  C   UNL     1     -39.409 -49.037  11.992  1.00  0.00     0.084 C 
BRANCH   8   9
HETATM    9  C   UNL     1     -39.738 -47.590  11.788  1.00  0.00     0.052 A 
HETATM   10  N   UNL     1     -40.097 -47.071  10.631  1.00  0.00    -0.363 N 
HETATM   11  C   UNL     1     -40.335 -45.716  10.786  1.00  0.00     0.103 A 
ATOM     12  HN  UNL     1     -40.186 -47.587   9.755  1.00  0.00     0.165 HD
HETATM   13  C   UNL     1     -40.172 -45.219  12.062  1.00  0.00    -0.001 A 
HETATM   14  S   UNL     1     -39.670 -46.483  13.105  1.00  0.00    -0.080 SA
BRANCH  13  15
HETATM   15  C   UNL     1     -40.381 -43.827  12.562  1.00  0.00     0.043 C 
HETATM   16  C   UNL     1     -40.581 -42.851  11.413  1.00  0.00     0.010 C 
ENDBRANCH  13  15
ENDBRANCH   8   9
ENDBRANCH   7   8
ENDBRANCH   1   7
BRANCH   4  17
HETATM   17  C   UNL     1     -44.077 -52.231  13.351  1.00  0.00     0.114 C 
HETATM   18  C   UNL     1     -45.387 -52.603  12.642  1.00  0.00     0.028 C 
HETATM   19  C   UNL     1     -46.556 -51.682  12.997  1.00  0.00     0.002 C 
HETATM   20  C   UNL     1     -46.729 -51.473  14.499  1.00  0.00     0.003 C 
HETATM   21  C   UNL     1     -45.429 -51.106  15.202  1.00  0.00     0.034 C 
HETATM   22  C   UNL     1     -44.306 -52.082  14.869  1.00  0.00     0.140 C 
BRANCH  22  23
HETATM   23  O   UNL     1     -43.113 -51.649  15.522  1.00  0.00    -0.394 OA
HETATM   24  H   UNL     1     -42.785 -52.413  16.031  1.00  0.00     0.210 HD
ENDBRANCH  22  23
ENDBRANCH   4  17
TORSDOF 6
ENDMDL
MODEL 7
REMARK VINA RESULT:      -5.6      3.467      4.664
REMARK  6 active torsions:
REMARK  status: ('A' for Active; 'I' for Inactive)
REMARK    1  A    between atoms: C_2  and  C_3 
REMARK    2  A    between atoms: C_7  and  C_8 
REMARK    3  A    between atoms: C_8  and  C_9 
REMARK    4  A    between atoms: C_9  and  N_10 
REMARK       I    between atoms: N_10  and  C_11 
REMARK       I    between atoms: C_11  and  N_13 
REMARK    5  A    between atoms: N_13  and  C_14 
REMARK    6  A    between atoms: C_19  and  O_20 
ROOT
HETATM    1  N   UNL     1     -41.404 -53.449  14.248  1.00  0.00    -0.343 N 
HETATM    2  C   UNL     1     -42.445 -53.015  13.460  1.00  0.00     0.316 C 
HETATM    3  O   UNL     1     -42.308 -52.678  12.290  1.00  0.00    -0.247 OA
HETATM    4  N   UNL     1     -43.648 -53.019  14.120  1.00  0.00    -0.336 N 
HETATM    5  H   UNL     1     -41.653 -54.158  14.929  1.00  0.00     0.164 HD
HETATM    6  H   UNL     1     -43.580 -52.837  15.113  1.00  0.00     0.164 HD
ENDROOT
BRANCH   1   7
HETATM    7  C   UNL     1     -40.106 -53.628  13.606  1.00  0.00     0.131 C 
BRANCH   7   8
HETATM    8  C   UNL     1     -39.053 -52.593  13.999  1.00  0.00     0.084 C 
BRANCH   8   9
HETATM    9  C   UNL     1     -39.255 -51.296  13.277  1.00  0.00     0.052 A 
HETATM   10  N   UNL     1     -39.633 -51.203  12.018  1.00  0.00    -0.363 N 
HETATM   11  C   UNL     1     -39.731 -49.869  11.662  1.00  0.00     0.103 A 
ATOM     12  HN  UNL     1     -39.824 -51.992  11.400  1.00  0.00     0.165 HD
HETATM   13  C   UNL     1     -39.443 -48.959  12.657  1.00  0.00    -0.001 A 
HETATM   14  S   UNL     1     -39.001 -49.797  14.085  1.00  0.00    -0.080 SA
BRANCH  13  15
HETATM   15  C   UNL     1     -39.488 -47.466  12.607  1.00  0.00     0.043 C 
HETATM   16  C   UNL     1     -40.166 -46.975  11.337  1.00  0.00     0.010 C 
ENDBRANCH  13  15
ENDBRANCH   8   9
ENDBRANCH   7   8
ENDBRANCH   1   7
BRANCH   4  17
HETATM   17  C   UNL     1     -44.859 -52.567  13.412  1.00  0.00     0.114 C 
HETATM   18  C   UNL     1     -45.325 -51.178  13.873  1.00  0.00     0.028 C 
HETATM   19  C   UNL     1     -46.014 -51.188  15.239  1.00  0.00     0.002 C 
HETATM   20  C   UNL     1     -47.099 -52.255  15.364  1.00  0.00     0.003 C 
HETATM   21  C   UNL     1     -46.636 -53.630  14.906  1.00  0.00     0.034 C 
HETATM   22  C   UNL     1     -46.010 -53.588  13.516  1.00  0.00     0.140 C 
BRANCH  22  23
HETATM   23  O   UNL     1     -45.558 -54.898  13.175  1.00  0.00    -0.394 OA
HETATM   24  H   UNL     1     -45.452 -55.380  14.016  1.00  0.00     0.210 HD
ENDBRANCH  22  23
ENDBRANCH   4  17
TORSDOF 6
ENDMDL
MODEL 8
REMARK VINA RESULT:      -5.2      3.054      6.722
REMARK  6 active torsions:
REMARK  status: ('A' for Active; 'I' for Inactive)
REMARK    1  A    between atoms: C_2  and  C_3 
REMARK    2  A    between atoms: C_7  and  C_8 
REMARK    3  A    between atoms: C_8  and  C_9 
REMARK    4  A    between atoms: C_9  and  N_10 
REMARK       I    between atoms: N_10  and  C_11 
REMARK       I    between atoms: C_11  and  N_13 
REMARK    5  A    between atoms: N_13  and  C_14 
REMARK    6  A    between atoms: C_19  and  O_20 
ROOT
HETATM    1  N   UNL     1     -40.658 -49.176  11.999  1.00  0.00    -0.343 N 
HETATM    2  C   UNL     1     -41.027 -48.198  11.104  1.00  0.00     0.316 C 
HETATM    3  O   UNL     1     -41.600 -48.436  10.047  1.00  0.00    -0.247 OA
HETATM    4  N   UNL     1     -40.701 -46.936  11.531  1.00  0.00    -0.336 N 
HETATM    5  H   UNL     1     -40.702 -48.898  12.974  1.00  0.00     0.164 HD
HETATM    6  H   UNL     1     -39.866 -46.891  12.101  1.00  0.00     0.164 HD
ENDROOT
BRANCH   1   7
HETATM    7  C   UNL     1     -41.088 -50.541  11.718  1.00  0.00     0.131 C 
BRANCH   7   8
HETATM    8  C   UNL     1     -41.419 -51.373  12.956  1.00  0.00     0.084 C 
BRANCH   8   9
HETATM    9  C   UNL     1     -42.817 -51.907  12.906  1.00  0.00     0.052 A 
HETATM   10  N   UNL     1     -43.197 -52.915  12.147  1.00  0.00    -0.363 N 
HETATM   11  C   UNL     1     -44.545 -53.159  12.342  1.00  0.00     0.103 A 
ATOM     12  HN  UNL     1     -42.590 -53.435  11.513  1.00  0.00     0.165 HD
HETATM   13  C   UNL     1     -45.177 -52.347  13.260  1.00  0.00    -0.001 A 
HETATM   14  S   UNL     1     -44.054 -51.211  13.882  1.00  0.00    -0.080 SA
BRANCH  13  15
HETATM   15  C   UNL     1     -46.599 -52.374  13.717  1.00  0.00     0.043 C 
HETATM   16  C   UNL     1     -46.842 -51.362  14.827  1.00  0.00     0.010 C 
ENDBRANCH  13  15
ENDBRANCH   8   9
ENDBRANCH   7   8
ENDBRANCH   1   7
BRANCH   4  17
HETATM   17  C   UNL     1     -41.020 -45.781  10.674  1.00  0.00     0.114 C 
HETATM   18  C   UNL     1     -39.896 -44.736  10.652  1.00  0.00     0.028 C 
HETATM   19  C   UNL     1     -39.824 -43.890  11.925  1.00  0.00     0.002 C 
HETATM   20  C   UNL     1     -41.172 -43.309  12.344  1.00  0.00     0.003 C 
HETATM   21  C   UNL     1     -42.287 -44.346  12.364  1.00  0.00     0.034 C 
HETATM   22  C   UNL     1     -42.363 -45.125  11.056  1.00  0.00     0.140 C 
BRANCH  22  23
HETATM   23  O   UNL     1     -43.394 -46.107  11.165  1.00  0.00    -0.394 OA
HETATM   24  H   UNL     1     -42.983 -46.894  11.567  1.00  0.00     0.210 HD
ENDBRANCH  22  23
ENDBRANCH   4  17
TORSDOF 6
ENDMDL
MODEL 9
REMARK VINA RESULT:      -5.2      4.222      5.552
REMARK  6 active torsions:
REMARK  status: ('A' for Active; 'I' for Inactive)
REMARK    1  A    between atoms: C_2  and  C_3 
REMARK    2  A    between atoms: C_7  and  C_8 
REMARK    3  A    between atoms: C_8  and  C_9 
REMARK    4  A    between atoms: C_9  and  N_10 
REMARK       I    between atoms: N_10  and  C_11 
REMARK       I    between atoms: C_11  and  N_13 
REMARK    5  A    between atoms: N_13  and  C_14 
REMARK    6  A    between atoms: C_19  and  O_20 
ROOT
HETATM    1  N   UNL     1     -41.808 -53.939  15.650  1.00  0.00    -0.343 N 
HETATM    2  C   UNL     1     -43.070 -54.411  15.371  1.00  0.00     0.316 C 
HETATM    3  O   UNL     1     -43.303 -55.580  15.087  1.00  0.00    -0.247 OA
HETATM    4  N   UNL     1     -44.034 -53.438  15.463  1.00  0.00    -0.336 N 
HETATM    5  H   UNL     1     -41.775 -53.197  16.342  1.00  0.00     0.164 HD
HETATM    6  H   UNL     1     -43.714 -52.509  15.221  1.00  0.00     0.164 HD
ENDROOT
BRANCH   1   7
HETATM    7  C   UNL     1     -40.728 -54.915  15.729  1.00  0.00     0.131 C 
BRANCH   7   8
HETATM    8  C   UNL     1     -39.692 -54.812  14.610  1.00  0.00     0.084 C 
BRANCH   8   9
HETATM    9  C   UNL     1     -40.047 -53.744  13.623  1.00  0.00     0.052 A 
HETATM   10  N   UNL     1     -40.801 -53.941  12.560  1.00  0.00    -0.363 N 
HETATM   11  C   UNL     1     -40.939 -52.752  11.864  1.00  0.00     0.103 A 
ATOM     12  HN  UNL     1     -41.217 -54.833  12.290  1.00  0.00     0.165 HD
HETATM   13  C   UNL     1     -40.306 -51.657  12.412  1.00  0.00    -0.001 A 
HETATM   14  S   UNL     1     -39.476 -52.133  13.834  1.00  0.00    -0.080 SA
BRANCH  13  15
HETATM   15  C   UNL     1     -40.289 -50.242  11.932  1.00  0.00     0.043 C 
HETATM   16  C   UNL     1     -38.874 -49.780  11.622  1.00  0.00     0.010 C 
ENDBRANCH  13  15
ENDBRANCH   8   9
ENDBRANCH   7   8
ENDBRANCH   1   7
BRANCH   4  17
HETATM   17  C   UNL     1     -45.437 -53.787  15.180  1.00  0.00     0.114 C 
HETATM   18  C   UNL     1     -45.752 -53.779  13.677  1.00  0.00     0.028 C 
HETATM   19  C   UNL     1     -45.884 -52.374  13.088  1.00  0.00     0.002 C 
HETATM   20  C   UNL     1     -46.804 -51.461  13.897  1.00  0.00     0.003 C 
HETATM   21  C   UNL     1     -46.491 -51.470  15.386  1.00  0.00     0.034 C 
HETATM   22  C   UNL     1     -46.427 -52.887  15.947  1.00  0.00     0.140 C 
BRANCH  22  23
HETATM   23  O   UNL     1     -46.084 -52.818  17.331  1.00  0.00    -0.394 OA
HETATM   24  H   UNL     1     -46.871 -52.474  17.792  1.00  0.00     0.210 HD
ENDBRANCH  22  23
ENDBRANCH   4  17
TORSDOF 6
ENDMDL
