MODEL 1
REMARK VINA RESULT:      -5.7      0.000      0.000
REMARK  4 active torsions:
REMARK  status: ('A' for Active; 'I' for Inactive)
REMARK    1  A    between atoms: C_6  and  N_7 
REMARK       I    between atoms: N_7  and  C_8 
REMARK    2  A    between atoms: C_8  and  C_10 
REMARK    3  A    between atoms: C_10  and  O_11 
REMARK    4  A    between atoms: O_11  and  C_12 
ROOT
HETATM    1  N   UNL     1     -42.244 -51.915  11.987  1.00  0.00    -0.321 N 
HETATM    2  C   UNL     1     -42.958 -52.354  13.086  1.00  0.00     0.246 C 
HETATM    3  O   UNL     1     -42.901 -51.868  14.213  1.00  0.00    -0.271 OA
HETATM    4  H   UNL     1     -42.505 -52.278  11.072  1.00  0.00     0.169 HD
ENDROOT
BRANCH   1   5
HETATM    5  C   UNL     1     -41.240 -50.969  11.961  1.00  0.00     0.103 A 
HETATM    6  C   UNL     1     -41.391 -49.682  11.613  1.00  0.00     0.037 A 
HETATM    7  C   UNL     1     -40.292 -48.749  11.675  1.00  0.00     0.020 A 
HETATM    8  C   UNL     1     -39.094 -49.150  12.110  1.00  0.00     0.094 A 
HETATM    9  N   UNL     1     -38.872 -50.462  12.483  1.00  0.00    -0.327 N 
HETATM   10  C   UNL     1     -37.556 -50.866  12.941  1.00  0.00     0.159 C 
HETATM   11  C   UNL     1     -39.866 -51.439  12.400  1.00  0.00     0.274 A 
HETATM   12  O   UNL     1     -39.690 -52.631  12.658  1.00  0.00    -0.266 OA
ENDBRANCH   1   5
BRANCH   2  13
HETATM   13  C   UNL     1     -43.922 -53.495  12.771  1.00  0.00     0.271 C 
BRANCH  13  14
HETATM   14  O   UNL     1     -45.088 -53.029  12.101  1.00  0.00    -0.377 OA
BRANCH  14  15
HETATM   15  C   UNL     1     -46.192 -52.872  12.985  1.00  0.00     0.122 C 
HETATM   16  C   UNL     1     -46.346 -51.408  13.401  1.00  0.00     0.032 C 
HETATM   17  C   UNL     1     -46.875 -51.430  14.837  1.00  0.00     0.002 C 
HETATM   18  C   UNL     1     -46.939 -52.898  15.247  1.00  0.00     0.002 C 
HETATM   19  C   UNL     1     -45.973 -53.593  14.308  1.00  0.00     0.032 C 
ENDBRANCH  14  15
ENDBRANCH  13  14
ENDBRANCH   2  13
TORSDOF 4
ENDMDL
MODEL 2
REMARK VINA RESULT:      -5.5      3.268      5.369
REMARK  4 active torsions:
REMARK  status: ('A' for Active; 'I' for Inactive)
REMARK    1  A    between atoms: C_6  and  N_7 
REMARK       I    between atoms: N_7  and  C_8 
REMARK    2  A    between atoms: C_8  and  C_10 
REMARK    3  A    between atoms: C_10  and  O_11 
REMARK    4  A    between atoms: O_11  and  C_12 
ROOT
HETATM    1  N   UNL     1     -41.422 -50.861  11.441  1.00  0.00    -0.321 N 
HETATM    2  C   UNL     1     -41.584 -49.543  11.822  1.00  0.00     0.246 C 
HETATM    3  O   UNL     1     -41.828 -49.156  12.963  1.00  0.00    -0.271 OA
HETATM    4  H   UNL     1     -41.049 -51.047  10.512  1.00  0.00     0.169 HD
ENDROOT
BRANCH   1   5
HETATM    5  C   UNL     1     -41.641 -51.989  12.206  1.00  0.00     0.103 A 
HETATM    6  C   UNL     1     -42.829 -52.577  12.404  1.00  0.00     0.037 A 
HETATM    7  C   UNL     1     -42.952 -53.792  13.173  1.00  0.00     0.020 A 
HETATM    8  C   UNL     1     -41.866 -54.373  13.689  1.00  0.00     0.094 A 
HETATM    9  N   UNL     1     -40.612 -53.818  13.523  1.00  0.00    -0.327 N 
HETATM   10  C   UNL     1     -39.454 -54.470  14.105  1.00  0.00     0.159 C 
HETATM   11  C   UNL     1     -40.413 -52.616  12.840  1.00  0.00     0.274 A 
HETATM   12  O   UNL     1     -39.322 -52.053  12.728  1.00  0.00    -0.266 OA
ENDBRANCH   1   5
BRANCH   2  13
HETATM   13  C   UNL     1     -41.359 -48.548  10.687  1.00  0.00     0.271 C 
BRANCH  13  14
HETATM   14  O   UNL     1     -42.225 -47.423  10.793  1.00  0.00    -0.377 OA
BRANCH  14  15
HETATM   15  C   UNL     1     -43.191 -47.384   9.750  1.00  0.00     0.122 C 
HETATM   16  C   UNL     1     -43.416 -45.948   9.275  1.00  0.00     0.032 C 
HETATM   17  C   UNL     1     -44.889 -45.863   8.870  1.00  0.00     0.002 C 
HETATM   18  C   UNL     1     -45.501 -47.223   9.193  1.00  0.00     0.002 C 
HETATM   19  C   UNL     1     -44.569 -47.818  10.230  1.00  0.00     0.032 C 
ENDBRANCH  14  15
ENDBRANCH  13  14
ENDBRANCH   2  13
TORSDOF 4
ENDMDL
MODEL 3
REMARK VINA RESULT:      -5.4      2.566      3.249
REMARK  4 active torsions:
REMARK  status: ('A' for Active; 'I' for Inactive)
REMARK    1  A    between atoms: C_6  and  N_7 
REMARK       I    between atoms: N_7  and  C_8 
REMARK    2  A    between atoms: C_8  and  C_10 
REMARK    3  A    between atoms: C_10  and  O_11 
REMARK    4  A    between atoms: O_11  and  C_12 
ROOT
HETATM    1  N   UNL     1     -43.021 -53.864  13.779  1.00  0.00    -0.321 N 
HETATM    2  C   UNL     1     -43.778 -54.835  14.407  1.00  0.00     0.246 C 
HETATM    3  O   UNL     1     -43.422 -55.500  15.377  1.00  0.00    -0.271 OA
HETATM    4  H   UNL     1     -43.486 -53.260  13.104  1.00  0.00     0.169 HD
ENDROOT
BRANCH   1   5
HETATM    5  C   UNL     1     -41.697 -53.553  14.009  1.00  0.00     0.103 A 
HETATM    6  C   UNL     1     -40.652 -54.353  13.746  1.00  0.00     0.037 A 
HETATM    7  C   UNL     1     -39.294 -53.917  13.965  1.00  0.00     0.020 A 
HETATM    8  C   UNL     1     -39.048 -52.685  14.417  1.00  0.00     0.094 A 
HETATM    9  N   UNL     1     -40.079 -51.812  14.709  1.00  0.00    -0.327 N 
HETATM   10  C   UNL     1     -39.777 -50.484  15.208  1.00  0.00     0.159 C 
HETATM   11  C   UNL     1     -41.422 -52.174  14.577  1.00  0.00     0.274 A 
HETATM   12  O   UNL     1     -42.369 -51.451  14.891  1.00  0.00    -0.266 OA
ENDBRANCH   1   5
BRANCH   2  13
HETATM   13  C   UNL     1     -45.182 -54.983  13.828  1.00  0.00     0.271 C 
BRANCH  13  14
HETATM   14  O   UNL     1     -46.182 -54.880  14.836  1.00  0.00    -0.377 OA
BRANCH  14  15
HETATM   15  C   UNL     1     -46.878 -53.640  14.781  1.00  0.00     0.122 C 
HETATM   16  C   UNL     1     -46.498 -52.863  13.520  1.00  0.00     0.032 C 
HETATM   17  C   UNL     1     -46.549 -51.383  13.904  1.00  0.00     0.002 C 
HETATM   18  C   UNL     1     -46.876 -51.338  15.393  1.00  0.00     0.002 C 
HETATM   19  C   UNL     1     -46.467 -52.703  15.909  1.00  0.00     0.032 C 
ENDBRANCH  14  15
ENDBRANCH  13  14
ENDBRANCH   2  13
TORSDOF 4
ENDMDL
MODEL 4
REMARK VINA RESULT:      -5.4      1.276      2.157
REMARK  4 active torsions:
REMARK  status: ('A' for Active; 'I' for Inactive)
REMARK    1  A    between atoms: C_6  and  N_7 
REMARK       I    between atoms: N_7  and  C_8 
REMARK    2  A    between atoms: C_8  and  C_10 
REMARK    3  A    between atoms: C_10  and  O_11 
REMARK    4  A    between atoms: O_11  and  C_12 
ROOT
HETATM    1  N   UNL     1     -42.517 -51.802  12.110  1.00  0.00    -0.321 N 
HETATM    2  C   UNL     1     -42.826 -52.641  13.164  1.00  0.00     0.246 C 
HETATM    3  O   UNL     1     -42.385 -52.541  14.307  1.00  0.00    -0.271 OA
HETATM    4  H   UNL     1     -43.076 -51.875  11.262  1.00  0.00     0.169 HD
ENDROOT
BRANCH   1   5
HETATM    5  C   UNL     1     -41.566 -50.803  12.084  1.00  0.00     0.103 A 
HETATM    6  C   UNL     1     -40.243 -50.989  11.968  1.00  0.00     0.037 A 
HETATM    7  C   UNL     1     -39.328 -49.876  11.889  1.00  0.00     0.020 A 
HETATM    8  C   UNL     1     -39.790 -48.624  11.906  1.00  0.00     0.094 A 
HETATM    9  N   UNL     1     -41.142 -48.363  12.026  1.00  0.00    -0.327 N 
HETATM   10  C   UNL     1     -41.610 -46.990  12.052  1.00  0.00     0.159 C 
HETATM   11  C   UNL     1     -42.088 -49.381  12.163  1.00  0.00     0.274 A 
HETATM   12  O   UNL     1     -43.293 -49.189  12.340  1.00  0.00    -0.266 OA
ENDBRANCH   1   5
BRANCH   2  13
HETATM   13  C   UNL     1     -43.857 -53.710  12.812  1.00  0.00     0.271 C 
BRANCH  13  14
HETATM   14  O   UNL     1     -44.939 -53.170  12.061  1.00  0.00    -0.377 OA
BRANCH  14  15
HETATM   15  C   UNL     1     -46.080 -52.910  12.870  1.00  0.00     0.122 C 
HETATM   16  C   UNL     1     -46.144 -51.431  13.255  1.00  0.00     0.032 C 
HETATM   17  C   UNL     1     -46.762 -51.384  14.653  1.00  0.00     0.002 C 
HETATM   18  C   UNL     1     -46.968 -52.834  15.078  1.00  0.00     0.002 C 
HETATM   19  C   UNL     1     -46.003 -53.621  14.214  1.00  0.00     0.032 C 
ENDBRANCH  14  15
ENDBRANCH  13  14
ENDBRANCH   2  13
TORSDOF 4
ENDMDL
MODEL 5
REMARK VINA RESULT:      -5.3      2.850      3.904
REMARK  4 active torsions:
REMARK  status: ('A' for Active; 'I' for Inactive)
REMARK    1  A    between atoms: C_6  and  N_7 
REMARK       I    between atoms: N_7  and  C_8 
REMARK    2  A    between atoms: C_8  and  C_10 
REMARK    3  A    between atoms: C_10  and  O_11 
REMARK    4  A    between atoms: O_11  and  C_12 
ROOT
HETATM    1  N   UNL     1     -41.948 -49.607  11.404  1.00  0.00    -0.321 N 
HETATM    2  C   UNL     1     -41.943 -50.223  12.642  1.00  0.00     0.246 C 
HETATM    3  O   UNL     1     -41.795 -49.654  13.720  1.00  0.00    -0.271 OA
HETATM    4  H   UNL     1     -42.255 -50.152  10.601  1.00  0.00     0.169 HD
ENDROOT
BRANCH   1   5
HETATM    5  C   UNL     1     -41.646 -48.290  11.121  1.00  0.00     0.103 A 
HETATM    6  C   UNL     1     -40.451 -47.709  11.300  1.00  0.00     0.037 A 
HETATM    7  C   UNL     1     -40.213 -46.338  10.918  1.00  0.00     0.020 A 
HETATM    8  C   UNL     1     -41.187 -45.621  10.350  1.00  0.00     0.094 A 
HETATM    9  N   UNL     1     -42.442 -46.159  10.140  1.00  0.00    -0.327 N 
HETATM   10  C   UNL     1     -43.479 -45.349   9.530  1.00  0.00     0.159 C 
HETATM   11  C   UNL     1     -42.769 -47.460  10.530  1.00  0.00     0.274 A 
HETATM   12  O   UNL     1     -43.894 -47.954  10.423  1.00  0.00    -0.266 OA
ENDBRANCH   1   5
BRANCH   2  13
HETATM   13  C   UNL     1     -42.219 -51.723  12.577  1.00  0.00     0.271 C 
BRANCH  13  14
HETATM   14  O   UNL     1     -43.192 -52.121  13.537  1.00  0.00    -0.377 OA
BRANCH  14  15
HETATM   15  C   UNL     1     -44.469 -51.547  13.282  1.00  0.00     0.122 C 
HETATM   16  C   UNL     1     -45.169 -51.186  14.593  1.00  0.00     0.032 C 
HETATM   17  C   UNL     1     -46.664 -51.398  14.346  1.00  0.00     0.002 C 
HETATM   18  C   UNL     1     -46.789 -51.952  12.931  1.00  0.00     0.002 C 
HETATM   19  C   UNL     1     -45.424 -52.540  12.634  1.00  0.00     0.032 C 
ENDBRANCH  14  15
ENDBRANCH  13  14
ENDBRANCH   2  13
TORSDOF 4
ENDMDL
MODEL 6
REMARK VINA RESULT:      -5.3      2.897      4.051
REMARK  4 active torsions:
REMARK  status: ('A' for Active; 'I' for Inactive)
REMARK    1  A    between atoms: C_6  and  N_7 
REMARK       I    between atoms: N_7  and  C_8 
REMARK    2  A    between atoms: C_8  and  C_10 
REMARK    3  A    between atoms: C_10  and  O_11 
REMARK    4  A    between atoms: O_11  and  C_12 
ROOT
HETATM    1  N   UNL     1     -41.585 -49.542  11.025  1.00  0.00    -0.321 N 
HETATM    2  C   UNL     1     -41.735 -50.127  12.269  1.00  0.00     0.246 C 
HETATM    3  O   UNL     1     -42.246 -49.593  13.250  1.00  0.00    -0.271 OA
HETATM    4  H   UNL     1     -41.313 -50.139  10.247  1.00  0.00     0.169 HD
ENDROOT
BRANCH   1   5
HETATM    5  C   UNL     1     -41.832 -48.229  10.680  1.00  0.00     0.103 A 
HETATM    6  C   UNL     1     -42.955 -47.772  10.106  1.00  0.00     0.037 A 
HETATM    7  C   UNL     1     -43.148 -46.368   9.836  1.00  0.00     0.020 A 
HETATM    8  C   UNL     1     -42.209 -45.483  10.180  1.00  0.00     0.094 A 
HETATM    9  N   UNL     1     -41.028 -45.887  10.773  1.00  0.00    -0.327 N 
HETATM   10  C   UNL     1     -40.025 -44.900  11.124  1.00  0.00     0.159 C 
HETATM   11  C   UNL     1     -40.740 -47.232  11.018  1.00  0.00     0.274 A 
HETATM   12  O   UNL     1     -39.673 -47.639  11.481  1.00  0.00    -0.266 OA
ENDBRANCH   1   5
BRANCH   2  13
HETATM   13  C   UNL     1     -41.264 -51.577  12.321  1.00  0.00     0.271 C 
BRANCH  13  14
HETATM   14  O   UNL     1     -42.293 -52.480  11.931  1.00  0.00    -0.377 OA
BRANCH  14  15
HETATM   15  C   UNL     1     -43.078 -52.913  13.036  1.00  0.00     0.122 C 
HETATM   16  C   UNL     1     -42.257 -53.809  13.964  1.00  0.00     0.032 C 
HETATM   17  C   UNL     1     -43.237 -54.833  14.540  1.00  0.00     0.002 C 
HETATM   18  C   UNL     1     -44.581 -54.560  13.874  1.00  0.00     0.002 C 
HETATM   19  C   UNL     1     -44.227 -53.814  12.603  1.00  0.00     0.032 C 
ENDBRANCH  14  15
ENDBRANCH  13  14
ENDBRANCH   2  13
TORSDOF 4
ENDMDL
MODEL 7
REMARK VINA RESULT:      -5.3      2.943      6.289
REMARK  4 active torsions:
REMARK  status: ('A' for Active; 'I' for Inactive)
REMARK    1  A    between atoms: C_6  and  N_7 
REMARK       I    between atoms: N_7  and  C_8 
REMARK    2  A    between atoms: C_8  and  C_10 
REMARK    3  A    between atoms: C_10  and  O_11 
REMARK    4  A    between atoms: O_11  and  C_12 
ROOT
HETATM    1  N   UNL     1     -41.466 -50.722  11.433  1.00  0.00    -0.321 N 
HETATM    2  C   UNL     1     -41.742 -49.421  11.810  1.00  0.00     0.246 C 
HETATM    3  O   UNL     1     -42.075 -49.060  12.936  1.00  0.00    -0.271 OA
HETATM    4  H   UNL     1     -41.031 -50.875  10.526  1.00  0.00     0.169 HD
ENDROOT
BRANCH   1   5
HETATM    5  C   UNL     1     -41.647 -51.868  12.181  1.00  0.00     0.103 A 
HETATM    6  C   UNL     1     -42.818 -52.486  12.389  1.00  0.00     0.037 A 
HETATM    7  C   UNL     1     -42.900 -53.717  13.138  1.00  0.00     0.020 A 
HETATM    8  C   UNL     1     -41.792 -54.283  13.624  1.00  0.00     0.094 A 
HETATM    9  N   UNL     1     -40.554 -53.696  13.447  1.00  0.00    -0.327 N 
HETATM   10  C   UNL     1     -39.372 -54.332  13.996  1.00  0.00     0.159 C 
HETATM   11  C   UNL     1     -40.395 -52.478  12.782  1.00  0.00     0.274 A 
HETATM   12  O   UNL     1     -39.319 -51.889  12.662  1.00  0.00    -0.266 OA
ENDBRANCH   1   5
BRANCH   2  13
HETATM   13  C   UNL     1     -41.526 -48.404  10.692  1.00  0.00     0.271 C 
BRANCH  13  14
HETATM   14  O   UNL     1     -42.286 -47.219  10.904  1.00  0.00    -0.377 OA
BRANCH  14  15
HETATM   15  C   UNL     1     -41.584 -46.049  10.500  1.00  0.00     0.122 C 
HETATM   16  C   UNL     1     -40.104 -46.153  10.869  1.00  0.00     0.032 C 
HETATM   17  C   UNL     1     -39.650 -44.730  11.201  1.00  0.00     0.002 C 
HETATM   18  C   UNL     1     -40.891 -43.850  11.096  1.00  0.00     0.002 C 
HETATM   19  C   UNL     1     -42.050 -44.813  11.257  1.00  0.00     0.032 C 
ENDBRANCH  14  15
ENDBRANCH  13  14
ENDBRANCH   2  13
TORSDOF 4
ENDMDL
MODEL 8
REMARK VINA RESULT:      -5.2      2.051      6.912
REMARK  4 active torsions:
REMARK  status: ('A' for Active; 'I' for Inactive)
REMARK    1  A    between atoms: C_6  and  N_7 
REMARK       I    between atoms: N_7  and  C_8 
REMARK    2  A    between atoms: C_8  and  C_10 
REMARK    3  A    between atoms: C_10  and  O_11 
REMARK    4  A    between atoms: O_11  and  C_12 
ROOT
HETATM    1  N   UNL     1     -41.644 -52.772  14.298  1.00  0.00    -0.321 N 
HETATM    2  C   UNL     1     -40.510 -52.919  13.520  1.00  0.00     0.246 C 
HETATM    3  O   UNL     1     -40.474 -53.433  12.404  1.00  0.00    -0.271 OA
HETATM    4  H   UNL     1     -41.583 -52.176  15.121  1.00  0.00     0.169 HD
ENDROOT
BRANCH   1   5
HETATM    5  C   UNL     1     -42.900 -53.288  14.056  1.00  0.00     0.103 A 
HETATM    6  C   UNL     1     -43.302 -54.533  14.353  1.00  0.00     0.037 A 
HETATM    7  C   UNL     1     -44.658 -54.966  14.117  1.00  0.00     0.020 A 
HETATM    8  C   UNL     1     -45.556 -54.115  13.612  1.00  0.00     0.094 A 
HETATM    9  N   UNL     1     -45.207 -52.820  13.283  1.00  0.00    -0.327 N 
HETATM   10  C   UNL     1     -46.205 -51.925  12.727  1.00  0.00     0.159 C 
HETATM   11  C   UNL     1     -43.904 -52.339  13.429  1.00  0.00     0.274 A 
HETATM   12  O   UNL     1     -43.536 -51.214  13.084  1.00  0.00    -0.266 OA
ENDBRANCH   1   5
BRANCH   2  13
HETATM   13  C   UNL     1     -39.259 -52.307  14.144  1.00  0.00     0.271 C 
BRANCH  13  14
HETATM   14  O   UNL     1     -38.140 -52.388  13.268  1.00  0.00    -0.377 OA
BRANCH  14  15
HETATM   15  C   UNL     1     -37.589 -51.110  12.976  1.00  0.00     0.122 C 
HETATM   16  C   UNL     1     -37.607 -50.217  14.217  1.00  0.00     0.032 C 
HETATM   17  C   UNL     1     -37.829 -48.791  13.710  1.00  0.00     0.002 C 
HETATM   18  C   UNL     1     -38.015 -48.898  12.200  1.00  0.00     0.002 C 
HETATM   19  C   UNL     1     -38.436 -50.337  11.974  1.00  0.00     0.032 C 
ENDBRANCH  14  15
ENDBRANCH  13  14
ENDBRANCH   2  13
TORSDOF 4
ENDMDL
MODEL 9
REMARK VINA RESULT:      -5.1      1.517      2.257
REMARK  4 active torsions:
REMARK  status: ('A' for Active; 'I' for Inactive)
REMARK    1  A    between atoms: C_6  and  N_7 
REMARK       I    between atoms: N_7  and  C_8 
REMARK    2  A    between atoms: C_8  and  C_10 
REMARK    3  A    between atoms: C_10  and  O_11 
REMARK    4  A    between atoms: O_11  and  C_12 
ROOT
HETATM    1  N   UNL     1     -41.664 -52.163  13.364  1.00  0.00    -0.321 N 
HETATM    2  C   UNL     1     -41.958 -53.466  13.008  1.00  0.00     0.246 C 
HETATM    3  O   UNL     1     -41.153 -54.393  12.972  1.00  0.00    -0.271 OA
HETATM    4  H   UNL     1     -42.441 -51.526  13.528  1.00  0.00     0.169 HD
ENDROOT
BRANCH   1   5
HETATM    5  C   UNL     1     -40.418 -51.619  13.601  1.00  0.00     0.103 A 
HETATM    6  C   UNL     1     -39.718 -51.741  14.738  1.00  0.00     0.037 A 
HETATM    7  C   UNL     1     -38.393 -51.186  14.873  1.00  0.00     0.020 A 
HETATM    8  C   UNL     1     -37.823 -50.551  13.845  1.00  0.00     0.094 A 
HETATM    9  N   UNL     1     -38.491 -50.388  12.647  1.00  0.00    -0.327 N 
HETATM   10  C   UNL     1     -37.847 -49.685  11.554  1.00  0.00     0.159 C 
HETATM   11  C   UNL     1     -39.796 -50.848  12.453  1.00  0.00     0.274 A 
HETATM   12  O   UNL     1     -40.451 -50.663  11.425  1.00  0.00    -0.266 OA
ENDBRANCH   1   5
BRANCH   2  13
HETATM   13  C   UNL     1     -43.437 -53.699  12.715  1.00  0.00     0.271 C 
BRANCH  13  14
HETATM   14  O   UNL     1     -44.166 -54.007  13.898  1.00  0.00    -0.377 OA
BRANCH  14  15
HETATM   15  C   UNL     1     -45.445 -53.384  13.922  1.00  0.00     0.122 C 
HETATM   16  C   UNL     1     -45.761 -52.747  12.568  1.00  0.00     0.032 C 
HETATM   17  C   UNL     1     -46.594 -51.500  12.871  1.00  0.00     0.002 C 
HETATM   18  C   UNL     1     -46.673 -51.398  14.391  1.00  0.00     0.002 C 
HETATM   19  C   UNL     1     -45.490 -52.206  14.885  1.00  0.00     0.032 C 
ENDBRANCH  14  15
ENDBRANCH  13  14
ENDBRANCH   2  13
TORSDOF 4
ENDMDL
