MODEL 1
REMARK VINA RESULT:      -6.4      0.000      0.000
REMARK  7 active torsions:
REMARK  status: ('A' for Active; 'I' for Inactive)
REMARK    1  A    between atoms: O_2  and  C_3 
REMARK    2  A    between atoms: C_3  and  C_4 
REMARK    3  A    between atoms: C_4  and  N_5 
REMARK    4  A    between atoms: C_6  and  S_7 
REMARK    5  A    between atoms: S_7  and  C_8 
REMARK    6  A    between atoms: C_8  and  C_9 
REMARK    7  A    between atoms: C_8  and  C_12 
REMARK       I    between atoms: C_9  and  N_11 
ROOT
HETATM    1  N   UNL     1     -41.059 -49.923  13.028  1.00  0.00    -0.324 N 
HETATM    2  C   UNL     1     -42.307 -50.415  12.703  1.00  0.00     0.148 A 
HETATM    3  N   UNL     1     -42.909 -49.670  11.803  1.00  0.00    -0.335 N 
ATOM      4  HN  UNL     1     -43.820 -49.833  11.373  1.00  0.00     0.168 HD
HETATM    5  C   UNL     1     -42.049 -48.622  11.564  1.00  0.00     0.061 A 
HETATM    6  C   UNL     1     -42.207 -47.503  10.726  1.00  0.00     0.032 A 
HETATM    7  C   UNL     1     -41.195 -46.536  10.678  1.00  0.00     0.002 A 
HETATM    8  C   UNL     1     -40.029 -46.688  11.424  1.00  0.00     0.002 A 
HETATM    9  C   UNL     1     -39.838 -47.811  12.235  1.00  0.00     0.032 A 
HETATM   10  C   UNL     1     -40.882 -48.753  12.306  1.00  0.00     0.063 A 
ENDROOT
BRANCH   2  11
HETATM   11  S   UNL     1     -43.032 -51.802  13.470  1.00  0.00    -0.074 SA
BRANCH  11  12
HETATM   12  C   UNL     1     -44.831 -51.447  13.315  1.00  0.00     0.179 C 
BRANCH  12  13
HETATM   13  C   UNL     1     -45.514 -52.598  12.550  1.00  0.00     0.234 C 
HETATM   14  O   UNL     1     -45.275 -53.796  12.713  1.00  0.00    -0.272 OA
HETATM   15  N   UNL     1     -46.496 -52.237  11.664  1.00  0.00    -0.369 N 
HETATM   16  H   UNL     1     -46.505 -51.315  11.250  1.00  0.00     0.159 HD
HETATM   17  H   UNL     1     -46.891 -52.993  11.119  1.00  0.00     0.159 HD
ENDBRANCH  12  13
BRANCH  12  18
HETATM   18  C   UNL     1     -45.484 -51.195  14.681  1.00  0.00    -0.035 A 
HETATM   19  C   UNL     1     -46.834 -51.530  14.888  1.00  0.00     0.009 A 
HETATM   20  C   UNL     1     -47.445 -51.335  16.134  1.00  0.00     0.001 A 
HETATM   21  C   UNL     1     -46.719 -50.796  17.195  1.00  0.00     0.000 A 
HETATM   22  C   UNL     1     -45.385 -50.447  17.006  1.00  0.00     0.001 A 
HETATM   23  C   UNL     1     -44.774 -50.637  15.762  1.00  0.00     0.009 A 
ENDBRANCH  12  18
ENDBRANCH  11  12
ENDBRANCH   2  11
BRANCH   1  24
HETATM   24  C   UNL     1     -40.061 -50.499  13.912  1.00  0.00     0.157 C 
BRANCH  24  25
HETATM   25  C   UNL     1     -39.001 -51.335  13.193  1.00  0.00     0.187 C 
BRANCH  25  26
HETATM   26  O   UNL     1     -39.522 -52.637  12.905  1.00  0.00    -0.394 OA
HETATM   27  C   UNL     1     -39.531 -53.459  14.069  1.00  0.00     0.201 C 
ENDBRANCH  25  26
ENDBRANCH  24  25
ENDBRANCH   1  24
TORSDOF 7
ENDMDL
MODEL 2
REMARK VINA RESULT:      -6.3      2.639      5.863
REMARK  7 active torsions:
REMARK  status: ('A' for Active; 'I' for Inactive)
REMARK    1  A    between atoms: O_2  and  C_3 
REMARK    2  A    between atoms: C_3  and  C_4 
REMARK    3  A    between atoms: C_4  and  N_5 
REMARK    4  A    between atoms: C_6  and  S_7 
REMARK    5  A    between atoms: S_7  and  C_8 
REMARK    6  A    between atoms: C_8  and  C_9 
REMARK    7  A    between atoms: C_8  and  C_12 
REMARK       I    between atoms: C_9  and  N_11 
ROOT
HETATM    1  N   UNL     1     -42.057 -54.275  14.419  1.00  0.00    -0.324 N 
HETATM    2  C   UNL     1     -41.455 -53.322  13.622  1.00  0.00     0.148 A 
HETATM    3  N   UNL     1     -40.176 -53.192  13.896  1.00  0.00    -0.335 N 
ATOM      4  HN  UNL     1     -39.502 -52.583  13.431  1.00  0.00     0.168 HD
HETATM    5  C   UNL     1     -39.938 -54.053  14.943  1.00  0.00     0.061 A 
HETATM    6  C   UNL     1     -38.753 -54.284  15.665  1.00  0.00     0.032 A 
HETATM    7  C   UNL     1     -38.767 -55.195  16.730  1.00  0.00     0.002 A 
HETATM    8  C   UNL     1     -39.929 -55.889  17.057  1.00  0.00     0.002 A 
HETATM    9  C   UNL     1     -41.108 -55.699  16.329  1.00  0.00     0.032 A 
HETATM   10  C   UNL     1     -41.089 -54.750  15.289  1.00  0.00     0.063 A 
ENDROOT
BRANCH   2  11
HETATM   11  S   UNL     1     -42.314 -52.342  12.465  1.00  0.00    -0.074 SA
BRANCH  11  12
HETATM   12  C   UNL     1     -42.838 -50.898  13.478  1.00  0.00     0.179 C 
BRANCH  12  13
HETATM   13  C   UNL     1     -42.695 -49.610  12.643  1.00  0.00     0.234 C 
HETATM   14  O   UNL     1     -43.141 -48.507  12.963  1.00  0.00    -0.272 OA
HETATM   15  N   UNL     1     -41.968 -49.716  11.486  1.00  0.00    -0.369 N 
HETATM   16  H   UNL     1     -41.875 -50.606  11.015  1.00  0.00     0.159 HD
HETATM   17  H   UNL     1     -41.938 -48.883  10.912  1.00  0.00     0.159 HD
ENDBRANCH  12  13
BRANCH  12  18
HETATM   18  C   UNL     1     -44.259 -51.073  14.032  1.00  0.00    -0.035 A 
HETATM   19  C   UNL     1     -44.511 -50.866  15.400  1.00  0.00     0.009 A 
HETATM   20  C   UNL     1     -45.805 -50.993  15.924  1.00  0.00     0.001 A 
HETATM   21  C   UNL     1     -46.869 -51.334  15.091  1.00  0.00     0.000 A 
HETATM   22  C   UNL     1     -46.638 -51.554  13.736  1.00  0.00     0.001 A 
HETATM   23  C   UNL     1     -45.346 -51.432  13.212  1.00  0.00     0.009 A 
ENDBRANCH  12  18
ENDBRANCH  11  12
ENDBRANCH   2  11
BRANCH   1  24
HETATM   24  C   UNL     1     -43.425 -54.762  14.370  1.00  0.00     0.157 C 
BRANCH  24  25
HETATM   25  C   UNL     1     -44.269 -54.372  15.585  1.00  0.00     0.187 C 
BRANCH  25  26
HETATM   26  O   UNL     1     -45.646 -54.675  15.337  1.00  0.00    -0.394 OA
HETATM   27  C   UNL     1     -45.843 -55.122  13.998  1.00  0.00     0.201 C 
ENDBRANCH  25  26
ENDBRANCH  24  25
ENDBRANCH   1  24
TORSDOF 7
ENDMDL
MODEL 3
REMARK VINA RESULT:      -6.2      1.943      2.730
REMARK  7 active torsions:
REMARK  status: ('A' for Active; 'I' for Inactive)
REMARK    1  A    between atoms: O_2  and  C_3 
REMARK    2  A    between atoms: C_3  and  C_4 
REMARK    3  A    between atoms: C_4  and  N_5 
REMARK    4  A    between atoms: C_6  and  S_7 
REMARK    5  A    between atoms: S_7  and  C_8 
REMARK    6  A    between atoms: C_8  and  C_9 
REMARK    7  A    between atoms: C_8  and  C_12 
REMARK       I    between atoms: C_9  and  N_11 
ROOT
HETATM    1  N   UNL     1     -40.639 -48.590  12.654  1.00  0.00    -0.324 N 
HETATM    2  C   UNL     1     -41.383 -49.742  12.492  1.00  0.00     0.148 A 
HETATM    3  N   UNL     1     -42.225 -49.643  11.487  1.00  0.00    -0.335 N 
ATOM      4  HN  UNL     1     -42.861 -50.362  11.140  1.00  0.00     0.168 HD
HETATM    5  C   UNL     1     -42.065 -48.365  11.003  1.00  0.00     0.061 A 
HETATM    6  C   UNL     1     -42.748 -47.707   9.963  1.00  0.00     0.032 A 
HETATM    7  C   UNL     1     -42.432 -46.373   9.674  1.00  0.00     0.002 A 
HETATM    8  C   UNL     1     -41.434 -45.709  10.383  1.00  0.00     0.002 A 
HETATM    9  C   UNL     1     -40.720 -46.357  11.396  1.00  0.00     0.032 A 
HETATM   10  C   UNL     1     -41.078 -47.684  11.703  1.00  0.00     0.063 A 
ENDROOT
BRANCH   2  11
HETATM   11  S   UNL     1     -41.284 -51.119  13.556  1.00  0.00    -0.074 SA
BRANCH  11  12
HETATM   12  C   UNL     1     -42.502 -52.282  12.816  1.00  0.00     0.179 C 
BRANCH  12  13
HETATM   13  C   UNL     1     -42.047 -53.732  13.077  1.00  0.00     0.234 C 
HETATM   14  O   UNL     1     -42.543 -54.488  13.914  1.00  0.00    -0.272 OA
HETATM   15  N   UNL     1     -41.049 -54.208  12.267  1.00  0.00    -0.369 N 
HETATM   16  H   UNL     1     -40.399 -53.575  11.822  1.00  0.00     0.159 HD
HETATM   17  H   UNL     1     -40.713 -55.136  12.491  1.00  0.00     0.159 HD
ENDBRANCH  12  13
BRANCH  12  18
HETATM   18  C   UNL     1     -43.925 -52.022  13.329  1.00  0.00    -0.035 A 
HETATM   19  C   UNL     1     -44.122 -51.328  14.536  1.00  0.00     0.009 A 
HETATM   20  C   UNL     1     -45.412 -51.054  15.011  1.00  0.00     0.001 A 
HETATM   21  C   UNL     1     -46.529 -51.474  14.291  1.00  0.00     0.000 A 
HETATM   22  C   UNL     1     -46.354 -52.172  13.100  1.00  0.00     0.001 A 
HETATM   23  C   UNL     1     -45.067 -52.450  12.626  1.00  0.00     0.009 A 
ENDBRANCH  12  18
ENDBRANCH  11  12
ENDBRANCH   2  11
BRANCH   1  24
HETATM   24  C   UNL     1     -39.558 -48.336  13.591  1.00  0.00     0.157 C 
BRANCH  24  25
HETATM   25  C   UNL     1     -38.177 -48.740  13.074  1.00  0.00     0.187 C 
BRANCH  25  26
HETATM   26  O   UNL     1     -37.855 -50.059  13.528  1.00  0.00    -0.394 OA
HETATM   27  C   UNL     1     -37.455 -50.895  12.445  1.00  0.00     0.201 C 
ENDBRANCH  25  26
ENDBRANCH  24  25
ENDBRANCH   1  24
TORSDOF 7
ENDMDL
MODEL 4
REMARK VINA RESULT:      -6.2      2.480      3.519
REMARK  7 active torsions:
REMARK  status: ('A' for Active; 'I' for Inactive)
REMARK    1  A    between atoms: O_2  and  C_3 
REMARK    2  A    between atoms: C_3  and  C_4 
REMARK    3  A    between atoms: C_4  and  N_5 
REMARK    4  A    between atoms: C_6  and  S_7 
REMARK    5  A    between atoms: S_7  and  C_8 
REMARK    6  A    between atoms: C_8  and  C_9 
REMARK    7  A    between atoms: C_8  and  C_12 
REMARK       I    between atoms: C_9  and  N_11 
ROOT
HETATM    1  N   UNL     1     -39.560 -52.196  14.232  1.00  0.00    -0.324 N 
HETATM    2  C   UNL     1     -40.890 -51.834  14.309  1.00  0.00     0.148 A 
HETATM    3  N   UNL     1     -41.174 -50.840  13.498  1.00  0.00    -0.335 N 
ATOM      4  HN  UNL     1     -42.087 -50.410  13.341  1.00  0.00     0.168 HD
HETATM    5  C   UNL     1     -39.979 -50.501  12.904  1.00  0.00     0.061 A 
HETATM    6  C   UNL     1     -39.692 -49.474  11.987  1.00  0.00     0.032 A 
HETATM    7  C   UNL     1     -38.373 -49.299  11.547  1.00  0.00     0.002 A 
HETATM    8  C   UNL     1     -37.359 -50.147  11.985  1.00  0.00     0.002 A 
HETATM    9  C   UNL     1     -37.632 -51.196  12.868  1.00  0.00     0.032 A 
HETATM   10  C   UNL     1     -38.953 -51.333  13.334  1.00  0.00     0.063 A 
ENDROOT
BRANCH   2  11
HETATM   11  S   UNL     1     -42.027 -52.547  15.421  1.00  0.00    -0.074 SA
BRANCH  11  12
HETATM   12  C   UNL     1     -43.091 -53.556  14.309  1.00  0.00     0.179 C 
BRANCH  12  13
HETATM   13  C   UNL     1     -43.340 -54.935  14.954  1.00  0.00     0.234 C 
HETATM   14  O   UNL     1     -44.299 -55.667  14.707  1.00  0.00    -0.272 OA
HETATM   15  N   UNL     1     -42.379 -55.378  15.825  1.00  0.00    -0.369 N 
HETATM   16  H   UNL     1     -41.780 -54.723  16.310  1.00  0.00     0.159 HD
HETATM   17  H   UNL     1     -42.585 -56.251  16.293  1.00  0.00     0.159 HD
ENDBRANCH  12  13
BRANCH  12  18
HETATM   18  C   UNL     1     -44.401 -52.836  13.963  1.00  0.00    -0.035 A 
HETATM   19  C   UNL     1     -44.952 -52.958  12.674  1.00  0.00     0.009 A 
HETATM   20  C   UNL     1     -46.161 -52.333  12.342  1.00  0.00     0.001 A 
HETATM   21  C   UNL     1     -46.840 -51.569  13.290  1.00  0.00     0.000 A 
HETATM   22  C   UNL     1     -46.305 -51.427  14.567  1.00  0.00     0.001 A 
HETATM   23  C   UNL     1     -45.095 -52.047  14.899  1.00  0.00     0.009 A 
ENDBRANCH  12  18
ENDBRANCH  11  12
ENDBRANCH   2  11
BRANCH   1  24
HETATM   24  C   UNL     1     -38.880 -53.290  14.904  1.00  0.00     0.157 C 
BRANCH  24  25
HETATM   25  C   UNL     1     -39.142 -54.662  14.280  1.00  0.00     0.187 C 
BRANCH  25  26
HETATM   26  O   UNL     1     -39.251 -55.650  15.310  1.00  0.00    -0.394 OA
HETATM   27  C   UNL     1     -38.128 -55.610  16.186  1.00  0.00     0.201 C 
ENDBRANCH  25  26
ENDBRANCH  24  25
ENDBRANCH   1  24
TORSDOF 7
ENDMDL
MODEL 5
REMARK VINA RESULT:      -6.2      2.069      6.600
REMARK  7 active torsions:
REMARK  status: ('A' for Active; 'I' for Inactive)
REMARK    1  A    between atoms: O_2  and  C_3 
REMARK    2  A    between atoms: C_3  and  C_4 
REMARK    3  A    between atoms: C_4  and  N_5 
REMARK    4  A    between atoms: C_6  and  S_7 
REMARK    5  A    between atoms: S_7  and  C_8 
REMARK    6  A    between atoms: C_8  and  C_9 
REMARK    7  A    between atoms: C_8  and  C_12 
REMARK       I    between atoms: C_9  and  N_11 
ROOT
HETATM    1  N   UNL     1     -44.807 -51.417  13.800  1.00  0.00    -0.324 N 
HETATM    2  C   UNL     1     -43.668 -50.677  14.049  1.00  0.00     0.148 A 
HETATM    3  N   UNL     1     -43.681 -50.148  15.252  1.00  0.00    -0.335 N 
ATOM      4  HN  UNL     1     -42.949 -49.589  15.690  1.00  0.00     0.168 HD
HETATM    5  C   UNL     1     -44.892 -50.512  15.796  1.00  0.00     0.061 A 
HETATM    6  C   UNL     1     -45.451 -50.180  17.044  1.00  0.00     0.032 A 
HETATM    7  C   UNL     1     -46.735 -50.644  17.363  1.00  0.00     0.002 A 
HETATM    8  C   UNL     1     -47.442 -51.449  16.474  1.00  0.00     0.002 A 
HETATM    9  C   UNL     1     -46.888 -51.819  15.244  1.00  0.00     0.032 A 
HETATM   10  C   UNL     1     -45.616 -51.310  14.920  1.00  0.00     0.063 A 
ENDROOT
BRANCH   2  11
HETATM   11  S   UNL     1     -42.416 -50.398  12.869  1.00  0.00    -0.074 SA
BRANCH  11  12
HETATM   12  C   UNL     1     -41.029 -51.422  13.512  1.00  0.00     0.179 C 
BRANCH  12  13
HETATM   13  C   UNL     1     -40.746 -52.573  12.526  1.00  0.00     0.234 C 
HETATM   14  O   UNL     1     -40.168 -53.623  12.812  1.00  0.00    -0.272 OA
HETATM   15  N   UNL     1     -41.231 -52.413  11.254  1.00  0.00    -0.369 N 
HETATM   16  H   UNL     1     -41.398 -51.490  10.877  1.00  0.00     0.159 HD
HETATM   17  H   UNL     1     -40.981 -53.143  10.598  1.00  0.00     0.159 HD
ENDBRANCH  12  13
BRANCH  12  18
HETATM   18  C   UNL     1     -39.777 -50.579  13.791  1.00  0.00    -0.035 A 
HETATM   19  C   UNL     1     -39.513 -49.435  13.017  1.00  0.00     0.009 A 
HETATM   20  C   UNL     1     -38.391 -48.634  13.270  1.00  0.00     0.001 A 
HETATM   21  C   UNL     1     -37.510 -48.965  14.297  1.00  0.00     0.000 A 
HETATM   22  C   UNL     1     -37.748 -50.100  15.067  1.00  0.00     0.001 A 
HETATM   23  C   UNL     1     -38.865 -50.904  14.812  1.00  0.00     0.009 A 
ENDBRANCH  12  18
ENDBRANCH  11  12
ENDBRANCH   2  11
BRANCH   1  24
HETATM   24  C   UNL     1     -45.130 -52.214  12.629  1.00  0.00     0.157 C 
BRANCH  24  25
HETATM   25  C   UNL     1     -44.373 -53.541  12.552  1.00  0.00     0.187 C 
BRANCH  25  26
HETATM   26  O   UNL     1     -45.283 -54.631  12.743  1.00  0.00    -0.394 OA
HETATM   27  C   UNL     1     -45.306 -55.050  14.104  1.00  0.00     0.201 C 
ENDBRANCH  25  26
ENDBRANCH  24  25
ENDBRANCH   1  24
TORSDOF 7
ENDMDL
MODEL 6
REMARK VINA RESULT:      -6.1      1.364      1.605
REMARK  7 active torsions:
REMARK  status: ('A' for Active; 'I' for Inactive)
REMARK    1  A    between atoms: O_2  and  C_3 
REMARK    2  A    between atoms: C_3  and  C_4 
REMARK    3  A    between atoms: C_4  and  N_5 
REMARK    4  A    between atoms: C_6  and  S_7 
REMARK    5  A    between atoms: S_7  and  C_8 
REMARK    6  A    between atoms: C_8  and  C_9 
REMARK    7  A    between atoms: C_8  and  C_12 
REMARK       I    between atoms: C_9  and  N_11 
ROOT
HETATM    1  N   UNL     1     -41.285 -49.232  12.692  1.00  0.00    -0.324 N 
HETATM    2  C   UNL     1     -42.517 -49.855  12.698  1.00  0.00     0.148 A 
HETATM    3  N   UNL     1     -43.369 -49.261  11.894  1.00  0.00    -0.335 N 
ATOM      4  HN  UNL     1     -44.330 -49.542  11.693  1.00  0.00     0.168 HD
HETATM    5  C   UNL     1     -42.691 -48.179  11.378  1.00  0.00     0.061 A 
HETATM    6  C   UNL     1     -43.138 -47.174  10.502  1.00  0.00     0.032 A 
HETATM    7  C   UNL     1     -42.263 -46.139  10.144  1.00  0.00     0.002 A 
HETATM    8  C   UNL     1     -40.955 -46.117  10.622  1.00  0.00     0.002 A 
HETATM    9  C   UNL     1     -40.482 -47.127  11.465  1.00  0.00     0.032 A 
HETATM   10  C   UNL     1     -41.385 -48.136  11.850  1.00  0.00     0.063 A 
ENDROOT
BRANCH   2  11
HETATM   11  S   UNL     1     -42.916 -51.204  13.726  1.00  0.00    -0.074 SA
BRANCH  11  12
HETATM   12  C   UNL     1     -44.736 -51.350  13.502  1.00  0.00     0.179 C 
BRANCH  12  13
HETATM   13  C   UNL     1     -45.061 -52.701  12.833  1.00  0.00     0.234 C 
HETATM   14  O   UNL     1     -45.900 -52.866  11.945  1.00  0.00    -0.272 OA
HETATM   15  N   UNL     1     -44.310 -53.773  13.238  1.00  0.00    -0.369 N 
HETATM   16  H   UNL     1     -43.873 -53.783  14.150  1.00  0.00     0.159 HD
HETATM   17  H   UNL     1     -44.577 -54.666  12.843  1.00  0.00     0.159 HD
ENDBRANCH  12  13
BRANCH  12  18
HETATM   18  C   UNL     1     -45.492 -51.164  14.825  1.00  0.00    -0.035 A 
HETATM   19  C   UNL     1     -46.853 -51.510  14.912  1.00  0.00     0.009 A 
HETATM   20  C   UNL     1     -47.557 -51.376  16.116  1.00  0.00     0.001 A 
HETATM   21  C   UNL     1     -46.917 -50.888  17.254  1.00  0.00     0.000 A 
HETATM   22  C   UNL     1     -45.574 -50.530  17.184  1.00  0.00     0.001 A 
HETATM   23  C   UNL     1     -44.869 -50.659  15.982  1.00  0.00     0.009 A 
ENDBRANCH  12  18
ENDBRANCH  11  12
ENDBRANCH   2  11
BRANCH   1  24
HETATM   24  C   UNL     1     -40.067 -49.628  13.379  1.00  0.00     0.157 C 
BRANCH  24  25
HETATM   25  C   UNL     1     -39.091 -50.420  12.507  1.00  0.00     0.187 C 
BRANCH  25  26
HETATM   26  O   UNL     1     -37.906 -49.648  12.282  1.00  0.00    -0.394 OA
HETATM   27  C   UNL     1     -37.307 -49.976  11.031  1.00  0.00     0.201 C 
ENDBRANCH  25  26
ENDBRANCH  24  25
ENDBRANCH   1  24
TORSDOF 7
ENDMDL
MODEL 7
REMARK VINA RESULT:      -6.0      2.978      6.893
REMARK  7 active torsions:
REMARK  status: ('A' for Active; 'I' for Inactive)
REMARK    1  A    between atoms: O_2  and  C_3 
REMARK    2  A    between atoms: C_3  and  C_4 
REMARK    3  A    between atoms: C_4  and  N_5 
REMARK    4  A    between atoms: C_6  and  S_7 
REMARK    5  A    between atoms: S_7  and  C_8 
REMARK    6  A    between atoms: C_8  and  C_9 
REMARK    7  A    between atoms: C_8  and  C_12 
REMARK       I    between atoms: C_9  and  N_11 
ROOT
HETATM    1  N   UNL     1     -43.516 -53.878  14.358  1.00  0.00    -0.324 N 
HETATM    2  C   UNL     1     -42.751 -53.129  13.486  1.00  0.00     0.148 A 
HETATM    3  N   UNL     1     -43.370 -52.031  13.111  1.00  0.00    -0.335 N 
ATOM      4  HN  UNL     1     -43.011 -51.296  12.501  1.00  0.00     0.168 HD
HETATM    5  C   UNL     1     -44.604 -52.084  13.717  1.00  0.00     0.061 A 
HETATM    6  C   UNL     1     -45.688 -51.192  13.625  1.00  0.00     0.032 A 
HETATM    7  C   UNL     1     -46.874 -51.482  14.315  1.00  0.00     0.002 A 
HETATM    8  C   UNL     1     -46.974 -52.622  15.109  1.00  0.00     0.002 A 
HETATM    9  C   UNL     1     -45.894 -53.501  15.241  1.00  0.00     0.032 A 
HETATM   10  C   UNL     1     -44.725 -53.219  14.509  1.00  0.00     0.063 A 
ENDROOT
BRANCH   2  11
HETATM   11  S   UNL     1     -41.196 -53.633  12.881  1.00  0.00    -0.074 SA
BRANCH  11  12
HETATM   12  C   UNL     1     -40.044 -52.995  14.166  1.00  0.00     0.179 C 
BRANCH  12  13
HETATM   13  C   UNL     1     -39.107 -54.132  14.620  1.00  0.00     0.234 C 
HETATM   14  O   UNL     1     -38.731 -54.317  15.779  1.00  0.00    -0.272 OA
HETATM   15  N   UNL     1     -38.720 -55.021  13.652  1.00  0.00    -0.369 N 
HETATM   16  H   UNL     1     -38.707 -54.750  12.678  1.00  0.00     0.159 HD
HETATM   17  H   UNL     1     -38.052 -55.722  13.946  1.00  0.00     0.159 HD
ENDBRANCH  12  13
BRANCH  12  18
HETATM   18  C   UNL     1     -39.266 -51.766  13.676  1.00  0.00    -0.035 A 
HETATM   19  C   UNL     1     -39.587 -51.176  12.441  1.00  0.00     0.009 A 
HETATM   20  C   UNL     1     -38.910 -50.037  11.985  1.00  0.00     0.001 A 
HETATM   21  C   UNL     1     -37.895 -49.470  12.753  1.00  0.00     0.000 A 
HETATM   22  C   UNL     1     -37.554 -50.046  13.973  1.00  0.00     0.001 A 
HETATM   23  C   UNL     1     -38.226 -51.186  14.428  1.00  0.00     0.009 A 
ENDBRANCH  12  18
ENDBRANCH  11  12
ENDBRANCH   2  11
BRANCH   1  24
HETATM   24  C   UNL     1     -43.158 -55.102  15.052  1.00  0.00     0.157 C 
BRANCH  24  25
HETATM   25  C   UNL     1     -42.587 -54.880  16.453  1.00  0.00     0.187 C 
BRANCH  25  26
HETATM   26  O   UNL     1     -43.452 -55.470  17.430  1.00  0.00    -0.394 OA
HETATM   27  C   UNL     1     -42.708 -56.022  18.512  1.00  0.00     0.201 C 
ENDBRANCH  25  26
ENDBRANCH  24  25
ENDBRANCH   1  24
TORSDOF 7
ENDMDL
MODEL 8
REMARK VINA RESULT:      -5.9      2.245      3.379
REMARK  7 active torsions:
REMARK  status: ('A' for Active; 'I' for Inactive)
REMARK    1  A    between atoms: O_2  and  C_3 
REMARK    2  A    between atoms: C_3  and  C_4 
REMARK    3  A    between atoms: C_4  and  N_5 
REMARK    4  A    between atoms: C_6  and  S_7 
REMARK    5  A    between atoms: S_7  and  C_8 
REMARK    6  A    between atoms: C_8  and  C_9 
REMARK    7  A    between atoms: C_8  and  C_12 
REMARK       I    between atoms: C_9  and  N_11 
ROOT
HETATM    1  N   UNL     1     -41.367 -48.135  12.800  1.00  0.00    -0.324 N 
HETATM    2  C   UNL     1     -41.652 -49.431  12.419  1.00  0.00     0.148 A 
HETATM    3  N   UNL     1     -42.229 -49.479  11.239  1.00  0.00    -0.335 N 
ATOM      4  HN  UNL     1     -42.508 -50.311  10.720  1.00  0.00     0.168 HD
HETATM    5  C   UNL     1     -42.375 -48.166  10.852  1.00  0.00     0.061 A 
HETATM    6  C   UNL     1     -42.974 -47.631   9.696  1.00  0.00     0.032 A 
HETATM    7  C   UNL     1     -43.038 -46.240   9.540  1.00  0.00     0.002 A 
HETATM    8  C   UNL     1     -42.491 -45.391  10.498  1.00  0.00     0.002 A 
HETATM    9  C   UNL     1     -41.860 -45.904  11.636  1.00  0.00     0.032 A 
HETATM   10  C   UNL     1     -41.841 -47.302  11.800  1.00  0.00     0.063 A 
ENDROOT
BRANCH   2  11
HETATM   11  S   UNL     1     -41.369 -50.824  13.428  1.00  0.00    -0.074 SA
BRANCH  11  12
HETATM   12  C   UNL     1     -42.570 -52.048  12.762  1.00  0.00     0.179 C 
BRANCH  12  13
HETATM   13  C   UNL     1     -42.044 -53.473  13.024  1.00  0.00     0.234 C 
HETATM   14  O   UNL     1     -42.486 -54.244  13.877  1.00  0.00    -0.272 OA
HETATM   15  N   UNL     1     -41.044 -53.910  12.195  1.00  0.00    -0.369 N 
HETATM   16  H   UNL     1     -40.433 -53.252  11.731  1.00  0.00     0.159 HD
HETATM   17  H   UNL     1     -40.660 -54.820  12.418  1.00  0.00     0.159 HD
ENDBRANCH  12  13
BRANCH  12  18
HETATM   18  C   UNL     1     -43.978 -51.838  13.337  1.00  0.00    -0.035 A 
HETATM   19  C   UNL     1     -45.102 -52.309  12.634  1.00  0.00     0.009 A 
HETATM   20  C   UNL     1     -46.395 -52.154  13.151  1.00  0.00     0.001 A 
HETATM   21  C   UNL     1     -46.590 -51.520  14.377  1.00  0.00     0.000 A 
HETATM   22  C   UNL     1     -45.491 -51.037  15.082  1.00  0.00     0.001 A 
HETATM   23  C   UNL     1     -44.199 -51.187  14.565  1.00  0.00     0.009 A 
ENDBRANCH  12  18
ENDBRANCH  11  12
ENDBRANCH   2  11
BRANCH   1  24
HETATM   24  C   UNL     1     -40.667 -47.675  13.987  1.00  0.00     0.157 C 
BRANCH  24  25
HETATM   25  C   UNL     1     -39.171 -47.436  13.773  1.00  0.00     0.187 C 
BRANCH  25  26
HETATM   26  O   UNL     1     -38.759 -46.265  14.487  1.00  0.00    -0.394 OA
HETATM   27  C   UNL     1     -38.881 -45.098  13.677  1.00  0.00     0.201 C 
ENDBRANCH  25  26
ENDBRANCH  24  25
ENDBRANCH   1  24
TORSDOF 7
ENDMDL
MODEL 9
REMARK VINA RESULT:      -5.9      3.957      5.745
REMARK  7 active torsions:
REMARK  status: ('A' for Active; 'I' for Inactive)
REMARK    1  A    between atoms: O_2  and  C_3 
REMARK    2  A    between atoms: C_3  and  C_4 
REMARK    3  A    between atoms: C_4  and  N_5 
REMARK    4  A    between atoms: C_6  and  S_7 
REMARK    5  A    between atoms: S_7  and  C_8 
REMARK    6  A    between atoms: C_8  and  C_9 
REMARK    7  A    between atoms: C_8  and  C_12 
REMARK       I    between atoms: C_9  and  N_11 
ROOT
HETATM    1  N   UNL     1     -41.733 -47.271  11.161  1.00  0.00    -0.324 N 
HETATM    2  C   UNL     1     -42.182 -48.354  11.890  1.00  0.00     0.148 A 
HETATM    3  N   UNL     1     -43.407 -48.695  11.557  1.00  0.00    -0.335 N 
ATOM      4  HN  UNL     1     -43.953 -49.477  11.921  1.00  0.00     0.168 HD
HETATM    5  C   UNL     1     -43.797 -47.774  10.611  1.00  0.00     0.061 A 
HETATM    6  C   UNL     1     -45.029 -47.636   9.947  1.00  0.00     0.032 A 
HETATM    7  C   UNL     1     -45.203 -46.581   9.040  1.00  0.00     0.002 A 
HETATM    8  C   UNL     1     -44.163 -45.695   8.772  1.00  0.00     0.002 A 
HETATM    9  C   UNL     1     -42.919 -45.838   9.395  1.00  0.00     0.032 A 
HETATM   10  C   UNL     1     -42.773 -46.877  10.335  1.00  0.00     0.063 A 
ENDROOT
BRANCH   2  11
HETATM   11  S   UNL     1     -41.268 -49.110  13.168  1.00  0.00    -0.074 SA
BRANCH  11  12
HETATM   12  C   UNL     1     -40.438 -50.499  12.294  1.00  0.00     0.179 C 
BRANCH  12  13
HETATM   13  C   UNL     1     -38.940 -50.174  12.125  1.00  0.00     0.234 C 
HETATM   14  O   UNL     1     -38.142 -50.018  13.050  1.00  0.00    -0.272 OA
HETATM   15  N   UNL     1     -38.476 -50.112  10.837  1.00  0.00    -0.369 N 
HETATM   16  H   UNL     1     -39.102 -49.898  10.072  1.00  0.00     0.159 HD
HETATM   17  H   UNL     1     -37.509 -49.831  10.736  1.00  0.00     0.159 HD
ENDBRANCH  12  13
BRANCH  12  18
HETATM   18  C   UNL     1     -40.660 -51.839  13.009  1.00  0.00    -0.035 A 
HETATM   19  C   UNL     1     -40.718 -51.885  14.414  1.00  0.00     0.009 A 
HETATM   20  C   UNL     1     -40.948 -53.092  15.089  1.00  0.00     0.001 A 
HETATM   21  C   UNL     1     -41.119 -54.275  14.374  1.00  0.00     0.000 A 
HETATM   22  C   UNL     1     -41.054 -54.252  12.983  1.00  0.00     0.001 A 
HETATM   23  C   UNL     1     -40.820 -53.049  12.307  1.00  0.00     0.009 A 
ENDBRANCH  12  18
ENDBRANCH  11  12
ENDBRANCH   2  11
BRANCH   1  24
HETATM   24  C   UNL     1     -40.420 -46.651  11.178  1.00  0.00     0.157 C 
BRANCH  24  25
HETATM   25  C   UNL     1     -40.342 -45.381  12.026  1.00  0.00     0.187 C 
BRANCH  25  26
HETATM   26  O   UNL     1     -39.596 -44.377  11.330  1.00  0.00    -0.394 OA
HETATM   27  C   UNL     1     -39.402 -44.733   9.964  1.00  0.00     0.201 C 
ENDBRANCH  25  26
ENDBRANCH  24  25
ENDBRANCH   1  24
TORSDOF 7
ENDMDL
