MODEL 1
REMARK VINA RESULT:      -6.3      0.000      0.000
REMARK  6 active torsions:
REMARK  status: ('A' for Active; 'I' for Inactive)
REMARK    1  A    between atoms: C_2  and  C_4 
REMARK    2  A    between atoms: C_4  and  N_5 
REMARK       I    between atoms: N_5  and  C_7 
REMARK    3  A    between atoms: C_7  and  C_9 
REMARK    4  A    between atoms: C_9  and  C_10 
REMARK    5  A    between atoms: C_10  and  C_11 
REMARK    6  A    between atoms: C_16  and  N_20 
ROOT
HETATM    1  C   UNL     1     -41.394 -53.074  13.093  1.00  0.00     0.034 A 
HETATM    2  C   UNL     1     -42.316 -52.343  12.421  1.00  0.00     0.034 A 
HETATM    3  C   UNL     1     -43.737 -52.812  12.207  1.00  0.00     0.069 C 
HETATM    4  N   UNL     1     -42.078 -51.095  11.862  1.00  0.00    -0.195 N 
ATOM      5  HN  UNL     1     -42.819 -50.605  11.361  1.00  0.00     0.184 HD
HETATM    6  C   UNL     1     -40.905 -50.560  11.983  1.00  0.00     0.683 A 
HETATM    7  N   UNL     1     -39.911 -51.229  12.618  1.00  0.00    -0.156 N 
HETATM    8  C   UNL     1     -40.052 -52.440  13.193  1.00  0.00     0.267 A 
HETATM    9  O   UNL     1     -39.072 -52.922  13.755  1.00  0.00    -0.267 OA
HETATM   10  H   UNL     1     -38.980 -50.866  12.639  1.00  0.00     0.187 HD
ENDROOT
BRANCH   1  11
HETATM   11  C   UNL     1     -41.636 -54.447  13.710  1.00  0.00     0.055 C 
BRANCH  11  12
HETATM   12  C   UNL     1     -42.235 -54.422  15.117  1.00  0.00     0.108 C 
BRANCH  12  13
HETATM   13  C   UNL     1     -43.741 -54.390  15.234  1.00  0.00     0.219 C 
HETATM   14  N   UNL     1     -44.260 -53.180  15.710  1.00  0.00    -0.356 N 
HETATM   15  C   UNL     1     -43.417 -52.069  16.154  1.00  0.00     0.152 C 
HETATM   16  O   UNL     1     -44.436 -55.355  14.928  1.00  0.00    -0.273 OA
BRANCH  14  17
HETATM   17  C   UNL     1     -45.704 -53.045  15.876  1.00  0.00     0.129 C 
BRANCH  17  18
HETATM   18  C   UNL     1     -46.251 -51.641  15.561  1.00  0.00    -0.005 C 
HETATM   19  C   UNL     1     -46.627 -51.463  14.088  1.00  0.00     0.011 C 
HETATM   20  C   UNL     1     -47.483 -51.373  16.430  1.00  0.00     0.011 C 
ENDBRANCH  17  18
ENDBRANCH  14  17
ENDBRANCH  12  13
ENDBRANCH  11  12
ENDBRANCH   1  11
BRANCH   6  21
HETATM   21  N   UNL     1     -40.559 -49.326  11.486  1.00  0.00    -0.213 N 
HETATM   22  C   UNL     1     -39.325 -48.609  11.845  1.00  0.00     0.167 C 
HETATM   23  C   UNL     1     -39.666 -47.252  12.469  1.00  0.00     0.188 C 
HETATM   24  O   UNL     1     -40.489 -46.472  11.593  1.00  0.00    -0.388 OA
HETATM   25  C   UNL     1     -41.725 -47.162  11.329  1.00  0.00     0.188 C 
HETATM   26  C   UNL     1     -41.479 -48.525  10.671  1.00  0.00     0.167 C 
ENDBRANCH   6  21
TORSDOF 6
ENDMDL
MODEL 2
REMARK VINA RESULT:      -6.2      1.041      1.738
REMARK  6 active torsions:
REMARK  status: ('A' for Active; 'I' for Inactive)
REMARK    1  A    between atoms: C_2  and  C_4 
REMARK    2  A    between atoms: C_4  and  N_5 
REMARK       I    between atoms: N_5  and  C_7 
REMARK    3  A    between atoms: C_7  and  C_9 
REMARK    4  A    between atoms: C_9  and  C_10 
REMARK    5  A    between atoms: C_10  and  C_11 
REMARK    6  A    between atoms: C_16  and  N_20 
ROOT
HETATM    1  C   UNL     1     -41.197 -52.978  13.118  1.00  0.00     0.034 A 
HETATM    2  C   UNL     1     -40.060 -52.266  13.307  1.00  0.00     0.034 A 
HETATM    3  C   UNL     1     -38.878 -52.798  14.084  1.00  0.00     0.069 C 
HETATM    4  N   UNL     1     -39.839 -50.986  12.815  1.00  0.00    -0.195 N 
ATOM      5  HN  UNL     1     -38.960 -50.506  13.004  1.00  0.00     0.184 HD
HETATM    6  C   UNL     1     -40.762 -50.410  12.114  1.00  0.00     0.683 A 
HETATM    7  N   UNL     1     -41.944 -51.036  11.894  1.00  0.00    -0.156 N 
HETATM    8  C   UNL     1     -42.245 -52.276  12.329  1.00  0.00     0.267 A 
HETATM    9  O   UNL     1     -43.347 -52.731  12.038  1.00  0.00    -0.267 OA
HETATM   10  H   UNL     1     -42.696 -50.566  11.432  1.00  0.00     0.187 HD
ENDROOT
BRANCH   1  11
HETATM   11  C   UNL     1     -41.458 -54.381  13.653  1.00  0.00     0.055 C 
BRANCH  11  12
HETATM   12  C   UNL     1     -42.143 -54.430  15.019  1.00  0.00     0.108 C 
BRANCH  12  13
HETATM   13  C   UNL     1     -43.654 -54.422  15.042  1.00  0.00     0.219 C 
HETATM   14  N   UNL     1     -44.221 -53.206  15.442  1.00  0.00    -0.356 N 
HETATM   15  C   UNL     1     -43.426 -52.065  15.897  1.00  0.00     0.152 C 
HETATM   16  O   UNL     1     -44.313 -55.409  14.728  1.00  0.00    -0.273 OA
BRANCH  14  17
HETATM   17  C   UNL     1     -45.675 -53.092  15.514  1.00  0.00     0.129 C 
BRANCH  17  18
HETATM   18  C   UNL     1     -46.217 -51.682  15.218  1.00  0.00    -0.005 C 
HETATM   19  C   UNL     1     -46.607 -51.487  13.751  1.00  0.00     0.011 C 
HETATM   20  C   UNL     1     -47.438 -51.416  16.103  1.00  0.00     0.011 C 
ENDBRANCH  17  18
ENDBRANCH  14  17
ENDBRANCH  12  13
ENDBRANCH  11  12
ENDBRANCH   1  11
BRANCH   6  21
HETATM   21  N   UNL     1     -40.650 -49.155  11.563  1.00  0.00    -0.213 N 
HETATM   22  C   UNL     1     -39.546 -48.226  11.847  1.00  0.00     0.167 C 
HETATM   23  C   UNL     1     -40.091 -46.923  12.441  1.00  0.00     0.188 C 
HETATM   24  O   UNL     1     -41.066 -46.329  11.576  1.00  0.00    -0.388 OA
HETATM   25  C   UNL     1     -42.174 -47.228  11.387  1.00  0.00     0.188 C 
HETATM   26  C   UNL     1     -41.723 -48.554  10.762  1.00  0.00     0.167 C 
ENDBRANCH   6  21
TORSDOF 6
ENDMDL
MODEL 3
REMARK VINA RESULT:      -6.1      2.002      3.433
REMARK  6 active torsions:
REMARK  status: ('A' for Active; 'I' for Inactive)
REMARK    1  A    between atoms: C_2  and  C_4 
REMARK    2  A    between atoms: C_4  and  N_5 
REMARK       I    between atoms: N_5  and  C_7 
REMARK    3  A    between atoms: C_7  and  C_9 
REMARK    4  A    between atoms: C_9  and  C_10 
REMARK    5  A    between atoms: C_10  and  C_11 
REMARK    6  A    between atoms: C_16  and  N_20 
ROOT
HETATM    1  C   UNL     1     -44.150 -54.304  13.632  1.00  0.00     0.034 A 
HETATM    2  C   UNL     1     -42.958 -54.356  14.273  1.00  0.00     0.034 A 
HETATM    3  C   UNL     1     -42.651 -55.366  15.355  1.00  0.00     0.069 C 
HETATM    4  N   UNL     1     -41.887 -53.511  14.016  1.00  0.00    -0.195 N 
ATOM      5  HN  UNL     1     -41.019 -53.602  14.545  1.00  0.00     0.184 HD
HETATM    6  C   UNL     1     -42.002 -52.605  13.099  1.00  0.00     0.683 A 
HETATM    7  N   UNL     1     -43.168 -52.461  12.422  1.00  0.00    -0.156 N 
HETATM    8  C   UNL     1     -44.256 -53.237  12.602  1.00  0.00     0.267 A 
HETATM    9  O   UNL     1     -45.240 -53.009  11.904  1.00  0.00    -0.267 OA
HETATM   10  H   UNL     1     -43.298 -51.708  11.777  1.00  0.00     0.187 HD
ENDROOT
BRANCH   1  11
HETATM   11  C   UNL     1     -45.338 -55.221  13.904  1.00  0.00     0.055 C 
BRANCH  11  12
HETATM   12  C   UNL     1     -46.489 -54.571  14.671  1.00  0.00     0.108 C 
BRANCH  12  13
HETATM   13  C   UNL     1     -46.168 -53.941  16.007  1.00  0.00     0.219 C 
HETATM   14  N   UNL     1     -46.384 -52.558  16.063  1.00  0.00    -0.356 N 
HETATM   15  C   UNL     1     -46.792 -51.766  14.902  1.00  0.00     0.152 C 
HETATM   16  O   UNL     1     -45.756 -54.604  16.955  1.00  0.00    -0.273 OA
BRANCH  14  17
HETATM   17  C   UNL     1     -46.093 -51.845  17.303  1.00  0.00     0.129 C 
BRANCH  17  18
HETATM   18  C   UNL     1     -46.750 -50.457  17.407  1.00  0.00    -0.005 C 
HETATM   19  C   UNL     1     -47.950 -50.435  18.357  1.00  0.00     0.011 C 
HETATM   20  C   UNL     1     -45.709 -49.442  17.886  1.00  0.00     0.011 C 
ENDBRANCH  17  18
ENDBRANCH  14  17
ENDBRANCH  12  13
ENDBRANCH  11  12
ENDBRANCH   1  11
BRANCH   6  21
HETATM   21  N   UNL     1     -41.006 -51.724  12.747  1.00  0.00    -0.213 N 
HETATM   22  C   UNL     1     -39.646 -51.751  13.307  1.00  0.00     0.167 C 
HETATM   23  C   UNL     1     -39.331 -50.418  13.993  1.00  0.00     0.188 C 
HETATM   24  O   UNL     1     -39.504 -49.318  13.090  1.00  0.00    -0.388 OA
HETATM   25  C   UNL     1     -40.866 -49.267  12.627  1.00  0.00     0.188 C 
HETATM   26  C   UNL     1     -41.259 -50.557  11.895  1.00  0.00     0.167 C 
ENDBRANCH   6  21
TORSDOF 6
ENDMDL
MODEL 4
REMARK VINA RESULT:      -5.9      1.418      1.953
REMARK  6 active torsions:
REMARK  status: ('A' for Active; 'I' for Inactive)
REMARK    1  A    between atoms: C_2  and  C_4 
REMARK    2  A    between atoms: C_4  and  N_5 
REMARK       I    between atoms: N_5  and  C_7 
REMARK    3  A    between atoms: C_7  and  C_9 
REMARK    4  A    between atoms: C_9  and  C_10 
REMARK    5  A    between atoms: C_10  and  C_11 
REMARK    6  A    between atoms: C_16  and  N_20 
ROOT
HETATM    1  C   UNL     1     -41.280 -53.042  14.862  1.00  0.00     0.034 A 
HETATM    2  C   UNL     1     -41.740 -51.781  15.041  1.00  0.00     0.034 A 
HETATM    3  C   UNL     1     -42.754 -51.421  16.103  1.00  0.00     0.069 C 
HETATM    4  N   UNL     1     -41.340 -50.682  14.294  1.00  0.00    -0.195 N 
ATOM      5  HN  UNL     1     -41.736 -49.760  14.479  1.00  0.00     0.184 HD
HETATM    6  C   UNL     1     -40.460 -50.840  13.358  1.00  0.00     0.683 A 
HETATM    7  N   UNL     1     -39.962 -52.071  13.088  1.00  0.00    -0.156 N 
HETATM    8  C   UNL     1     -40.289 -53.191  13.763  1.00  0.00     0.267 A 
HETATM    9  O   UNL     1     -39.743 -54.239  13.427  1.00  0.00    -0.267 OA
HETATM   10  H   UNL     1     -39.351 -52.219  12.311  1.00  0.00     0.187 HD
ENDROOT
BRANCH   1  11
HETATM   11  C   UNL     1     -41.710 -54.261  15.671  1.00  0.00     0.055 C 
BRANCH  11  12
HETATM   12  C   UNL     1     -42.835 -55.084  15.042  1.00  0.00     0.108 C 
BRANCH  12  13
HETATM   13  C   UNL     1     -44.233 -54.517  15.105  1.00  0.00     0.219 C 
HETATM   14  N   UNL     1     -44.722 -54.040  13.882  1.00  0.00    -0.356 N 
HETATM   15  C   UNL     1     -43.916 -54.000  12.661  1.00  0.00     0.152 C 
HETATM   16  O   UNL     1     -44.876 -54.487  16.151  1.00  0.00    -0.273 OA
BRANCH  14  17
HETATM   17  C   UNL     1     -46.059 -53.456  13.832  1.00  0.00     0.129 C 
BRANCH  17  18
HETATM   18  C   UNL     1     -46.078 -51.925  13.672  1.00  0.00    -0.005 C 
HETATM   19  C   UNL     1     -46.676 -51.472  12.339  1.00  0.00     0.011 C 
HETATM   20  C   UNL     1     -46.883 -51.309  14.820  1.00  0.00     0.011 C 
ENDBRANCH  17  18
ENDBRANCH  14  17
ENDBRANCH  12  13
ENDBRANCH  11  12
ENDBRANCH   1  11
BRANCH   6  21
HETATM   21  N   UNL     1     -39.978 -49.824  12.565  1.00  0.00    -0.213 N 
HETATM   22  C   UNL     1     -39.008 -48.815  13.018  1.00  0.00     0.167 C 
HETATM   23  C   UNL     1     -39.605 -47.410  12.880  1.00  0.00     0.188 C 
HETATM   24  O   UNL     1     -40.033 -47.160  11.536  1.00  0.00    -0.388 OA
HETATM   25  C   UNL     1     -41.043 -48.111  11.152  1.00  0.00     0.188 C 
HETATM   26  C   UNL     1     -40.519 -49.550  11.230  1.00  0.00     0.167 C 
ENDBRANCH   6  21
TORSDOF 6
ENDMDL
MODEL 5
REMARK VINA RESULT:      -5.9      2.750      3.472
REMARK  6 active torsions:
REMARK  status: ('A' for Active; 'I' for Inactive)
REMARK    1  A    between atoms: C_2  and  C_4 
REMARK    2  A    between atoms: C_4  and  N_5 
REMARK       I    between atoms: N_5  and  C_7 
REMARK    3  A    between atoms: C_7  and  C_9 
REMARK    4  A    between atoms: C_9  and  C_10 
REMARK    5  A    between atoms: C_10  and  C_11 
REMARK    6  A    between atoms: C_16  and  N_20 
ROOT
HETATM    1  C   UNL     1     -40.612 -52.261  13.392  1.00  0.00     0.034 A 
HETATM    2  C   UNL     1     -41.003 -51.011  13.741  1.00  0.00     0.034 A 
HETATM    3  C   UNL     1     -42.348 -50.436  13.360  1.00  0.00     0.069 C 
HETATM    4  N   UNL     1     -40.236 -50.125  14.485  1.00  0.00    -0.195 N 
ATOM      5  HN  UNL     1     -40.592 -49.194  14.704  1.00  0.00     0.184 HD
HETATM    6  C   UNL     1     -39.065 -50.491  14.895  1.00  0.00     0.683 A 
HETATM    7  N   UNL     1     -38.578 -51.714  14.572  1.00  0.00    -0.156 N 
HETATM    8  C   UNL     1     -39.252 -52.640  13.859  1.00  0.00     0.267 A 
HETATM    9  O   UNL     1     -38.699 -53.718  13.658  1.00  0.00    -0.267 OA
HETATM   10  H   UNL     1     -37.642 -51.973  14.806  1.00  0.00     0.187 HD
ENDROOT
BRANCH   1  11
HETATM   11  C   UNL     1     -41.439 -53.247  12.574  1.00  0.00     0.055 C 
BRANCH  11  12
HETATM   12  C   UNL     1     -42.271 -54.228  13.400  1.00  0.00     0.108 C 
BRANCH  12  13
HETATM   13  C   UNL     1     -43.762 -53.996  13.464  1.00  0.00     0.219 C 
HETATM   14  N   UNL     1     -44.213 -53.450  14.672  1.00  0.00    -0.356 N 
HETATM   15  C   UNL     1     -43.335 -53.213  15.819  1.00  0.00     0.152 C 
HETATM   16  O   UNL     1     -44.503 -54.266  12.522  1.00  0.00    -0.273 OA
BRANCH  14  17
HETATM   17  C   UNL     1     -45.640 -53.198  14.847  1.00  0.00     0.129 C 
BRANCH  17  18
HETATM   18  C   UNL     1     -46.065 -51.741  14.587  1.00  0.00    -0.005 C 
HETATM   19  C   UNL     1     -46.551 -51.507  13.155  1.00  0.00     0.011 C 
HETATM   20  C   UNL     1     -47.179 -51.359  15.566  1.00  0.00     0.011 C 
ENDBRANCH  17  18
ENDBRANCH  14  17
ENDBRANCH  12  13
ENDBRANCH  11  12
ENDBRANCH   1  11
BRANCH   6  21
HETATM   21  N   UNL     1     -38.225 -49.706  15.649  1.00  0.00    -0.213 N 
HETATM   22  C   UNL     1     -38.154 -48.240  15.547  1.00  0.00     0.167 C 
HETATM   23  C   UNL     1     -36.734 -47.805  15.167  1.00  0.00     0.188 C 
HETATM   24  O   UNL     1     -35.772 -48.312  16.100  1.00  0.00    -0.388 OA
HETATM   25  C   UNL     1     -35.806 -49.751  16.114  1.00  0.00     0.188 C 
HETATM   26  C   UNL     1     -37.189 -50.277  16.517  1.00  0.00     0.167 C 
ENDBRANCH   6  21
TORSDOF 6
ENDMDL
MODEL 6
REMARK VINA RESULT:      -5.9      2.701      4.259
REMARK  6 active torsions:
REMARK  status: ('A' for Active; 'I' for Inactive)
REMARK    1  A    between atoms: C_2  and  C_4 
REMARK    2  A    between atoms: C_4  and  N_5 
REMARK       I    between atoms: N_5  and  C_7 
REMARK    3  A    between atoms: C_7  and  C_9 
REMARK    4  A    between atoms: C_9  and  C_10 
REMARK    5  A    between atoms: C_10  and  C_11 
REMARK    6  A    between atoms: C_16  and  N_20 
ROOT
HETATM    1  C   UNL     1     -38.572 -49.457  13.642  1.00  0.00     0.034 A 
HETATM    2  C   UNL     1     -38.317 -49.510  12.312  1.00  0.00     0.034 A 
HETATM    3  C   UNL     1     -37.366 -50.513  11.699  1.00  0.00     0.069 C 
HETATM    4  N   UNL     1     -38.891 -48.674  11.365  1.00  0.00    -0.195 N 
ATOM      5  HN  UNL     1     -38.645 -48.766  10.379  1.00  0.00     0.184 HD
HETATM    6  C   UNL     1     -39.741 -47.775  11.746  1.00  0.00     0.683 A 
HETATM    7  N   UNL     1     -40.039 -47.629  13.060  1.00  0.00    -0.156 N 
HETATM    8  C   UNL     1     -39.534 -48.397  14.047  1.00  0.00     0.267 A 
HETATM    9  O   UNL     1     -39.908 -48.170  15.195  1.00  0.00    -0.267 OA
HETATM   10  H   UNL     1     -40.623 -46.882  13.375  1.00  0.00     0.187 HD
ENDROOT
BRANCH   1  11
HETATM   11  C   UNL     1     -37.949 -50.364  14.697  1.00  0.00     0.055 C 
BRANCH  11  12
HETATM   12  C   UNL     1     -38.883 -51.441  15.249  1.00  0.00     0.108 C 
BRANCH  12  13
HETATM   13  C   UNL     1     -39.557 -52.357  14.254  1.00  0.00     0.219 C 
HETATM   14  N   UNL     1     -40.947 -52.205  14.176  1.00  0.00    -0.356 N 
HETATM   15  C   UNL     1     -41.703 -51.309  15.051  1.00  0.00     0.152 C 
HETATM   16  O   UNL     1     -38.922 -53.159  13.575  1.00  0.00    -0.273 OA
BRANCH  14  17
HETATM   17  C   UNL     1     -41.701 -53.051  13.256  1.00  0.00     0.129 C 
BRANCH  17  18
HETATM   18  C   UNL     1     -43.035 -53.573  13.821  1.00  0.00    -0.005 C 
HETATM   19  C   UNL     1     -44.053 -53.913  12.730  1.00  0.00     0.011 C 
HETATM   20  C   UNL     1     -42.770 -54.820  14.668  1.00  0.00     0.011 C 
ENDBRANCH  17  18
ENDBRANCH  14  17
ENDBRANCH  12  13
ENDBRANCH  11  12
ENDBRANCH   1  11
BRANCH   6  21
HETATM   21  N   UNL     1     -40.383 -46.903  10.898  1.00  0.00    -0.213 N 
HETATM   22  C   UNL     1     -39.888 -45.557  10.570  1.00  0.00     0.167 C 
HETATM   23  C   UNL     1     -40.924 -44.502  10.970  1.00  0.00     0.188 C 
HETATM   24  O   UNL     1     -42.190 -44.759  10.349  1.00  0.00    -0.388 OA
HETATM   25  C   UNL     1     -42.688 -46.047  10.757  1.00  0.00     0.188 C 
HETATM   26  C   UNL     1     -41.723 -47.173  10.367  1.00  0.00     0.167 C 
ENDBRANCH   6  21
TORSDOF 6
ENDMDL
MODEL 7
REMARK VINA RESULT:      -5.7      2.535      4.184
REMARK  6 active torsions:
REMARK  status: ('A' for Active; 'I' for Inactive)
REMARK    1  A    between atoms: C_2  and  C_4 
REMARK    2  A    between atoms: C_4  and  N_5 
REMARK       I    between atoms: N_5  and  C_7 
REMARK    3  A    between atoms: C_7  and  C_9 
REMARK    4  A    between atoms: C_9  and  C_10 
REMARK    5  A    between atoms: C_10  and  C_11 
REMARK    6  A    between atoms: C_16  and  N_20 
ROOT
HETATM    1  C   UNL     1     -39.051 -49.657  12.671  1.00  0.00     0.034 A 
HETATM    2  C   UNL     1     -38.648 -48.416  13.035  1.00  0.00     0.034 A 
HETATM    3  C   UNL     1     -37.646 -48.170  14.139  1.00  0.00     0.069 C 
HETATM    4  N   UNL     1     -39.090 -47.239  12.446  1.00  0.00    -0.195 N 
ATOM      5  HN  UNL     1     -38.749 -46.337  12.778  1.00  0.00     0.184 HD
HETATM    6  C   UNL     1     -39.941 -47.299  11.472  1.00  0.00     0.683 A 
HETATM    7  N   UNL     1     -40.421 -48.497  11.056  1.00  0.00    -0.156 N 
HETATM    8  C   UNL     1     -40.046 -49.688  11.566  1.00  0.00     0.267 A 
HETATM    9  O   UNL     1     -40.545 -50.699  11.079  1.00  0.00    -0.267 OA
HETATM   10  H   UNL     1     -41.144 -48.550  10.368  1.00  0.00     0.187 HD
ENDROOT
BRANCH   1  11
HETATM   11  C   UNL     1     -38.580 -50.960  13.308  1.00  0.00     0.055 C 
BRANCH  11  12
HETATM   12  C   UNL     1     -39.589 -51.614  14.252  1.00  0.00     0.108 C 
BRANCH  12  13
HETATM   13  C   UNL     1     -40.343 -52.819  13.739  1.00  0.00     0.219 C 
HETATM   14  N   UNL     1     -41.735 -52.659  13.703  1.00  0.00    -0.356 N 
HETATM   15  C   UNL     1     -42.415 -51.466  14.209  1.00  0.00     0.152 C 
HETATM   16  O   UNL     1     -39.768 -53.844  13.384  1.00  0.00    -0.273 OA
BRANCH  14  17
HETATM   17  C   UNL     1     -42.563 -53.767  13.237  1.00  0.00     0.129 C 
BRANCH  17  18
HETATM   18  C   UNL     1     -43.648 -54.212  14.235  1.00  0.00    -0.005 C 
HETATM   19  C   UNL     1     -44.904 -54.752  13.549  1.00  0.00     0.011 C 
HETATM   20  C   UNL     1     -43.073 -55.292  15.155  1.00  0.00     0.011 C 
ENDBRANCH  17  18
ENDBRANCH  14  17
ENDBRANCH  12  13
ENDBRANCH  11  12
ENDBRANCH   1  11
BRANCH   6  21
HETATM   21  N   UNL     1     -40.436 -46.204  10.804  1.00  0.00    -0.213 N 
HETATM   22  C   UNL     1     -39.676 -44.966  10.573  1.00  0.00     0.167 C 
HETATM   23  C   UNL     1     -40.405 -43.774  11.201  1.00  0.00     0.188 C 
HETATM   24  O   UNL     1     -41.744 -43.666  10.704  1.00  0.00    -0.388 OA
HETATM   25  C   UNL     1     -42.488 -44.858  11.021  1.00  0.00     0.188 C 
HETATM   26  C   UNL     1     -41.843 -46.104  10.401  1.00  0.00     0.167 C 
ENDBRANCH   6  21
TORSDOF 6
ENDMDL
MODEL 8
REMARK VINA RESULT:      -5.7      2.387      3.212
REMARK  6 active torsions:
REMARK  status: ('A' for Active; 'I' for Inactive)
REMARK    1  A    between atoms: C_2  and  C_4 
REMARK    2  A    between atoms: C_4  and  N_5 
REMARK       I    between atoms: N_5  and  C_7 
REMARK    3  A    between atoms: C_7  and  C_9 
REMARK    4  A    between atoms: C_9  and  C_10 
REMARK    5  A    between atoms: C_10  and  C_11 
REMARK    6  A    between atoms: C_16  and  N_20 
ROOT
HETATM    1  C   UNL     1     -40.539 -53.257  13.444  1.00  0.00     0.034 A 
HETATM    2  C   UNL     1     -39.480 -53.309  14.288  1.00  0.00     0.034 A 
HETATM    3  C   UNL     1     -39.115 -54.548  15.071  1.00  0.00     0.069 C 
HETATM    4  N   UNL     1     -38.610 -52.253  14.527  1.00  0.00    -0.195 N 
ATOM      5  HN  UNL     1     -37.837 -52.361  15.183  1.00  0.00     0.184 HD
HETATM    6  C   UNL     1     -38.792 -51.131  13.908  1.00  0.00     0.683 A 
HETATM    7  N   UNL     1     -39.842 -50.977  13.064  1.00  0.00    -0.156 N 
HETATM    8  C   UNL     1     -40.732 -51.946  12.769  1.00  0.00     0.267 A 
HETATM    9  O   UNL     1     -41.623 -51.677  11.968  1.00  0.00    -0.267 OA
HETATM   10  H   UNL     1     -40.044 -50.090  12.652  1.00  0.00     0.187 HD
ENDROOT
BRANCH   1  11
HETATM   11  C   UNL     1     -41.506 -54.405  13.172  1.00  0.00     0.055 C 
BRANCH  11  12
HETATM   12  C   UNL     1     -42.712 -54.464  14.109  1.00  0.00     0.108 C 
BRANCH  12  13
HETATM   13  C   UNL     1     -44.056 -54.071  13.542  1.00  0.00     0.219 C 
HETATM   14  N   UNL     1     -44.936 -53.507  14.474  1.00  0.00    -0.356 N 
HETATM   15  C   UNL     1     -44.626 -53.395  15.900  1.00  0.00     0.152 C 
HETATM   16  O   UNL     1     -44.334 -54.237  12.357  1.00  0.00    -0.273 OA
BRANCH  14  17
HETATM   17  C   UNL     1     -46.269 -53.105  14.036  1.00  0.00     0.129 C 
BRANCH  17  18
HETATM   18  C   UNL     1     -46.353 -51.666  13.497  1.00  0.00    -0.005 C 
HETATM   19  C   UNL     1     -45.015 -50.925  13.561  1.00  0.00     0.011 C 
HETATM   20  C   UNL     1     -46.840 -51.699  12.045  1.00  0.00     0.011 C 
ENDBRANCH  17  18
ENDBRANCH  14  17
ENDBRANCH  12  13
ENDBRANCH  11  12
ENDBRANCH   1  11
BRANCH   6  21
HETATM   21  N   UNL     1     -37.989 -50.024  14.053  1.00  0.00    -0.213 N 
HETATM   22  C   UNL     1     -36.973 -49.875  15.107  1.00  0.00     0.167 C 
HETATM   23  C   UNL     1     -37.276 -48.641  15.962  1.00  0.00     0.188 C 
HETATM   24  O   UNL     1     -37.367 -47.462  15.153  1.00  0.00    -0.388 OA
HETATM   25  C   UNL     1     -38.427 -47.604  14.189  1.00  0.00     0.188 C 
HETATM   26  C   UNL     1     -38.188 -48.804  13.264  1.00  0.00     0.167 C 
ENDBRANCH   6  21
TORSDOF 6
ENDMDL
MODEL 9
REMARK VINA RESULT:      -5.7      2.086      4.093
REMARK  6 active torsions:
REMARK  status: ('A' for Active; 'I' for Inactive)
REMARK    1  A    between atoms: C_2  and  C_4 
REMARK    2  A    between atoms: C_4  and  N_5 
REMARK       I    between atoms: N_5  and  C_7 
REMARK    3  A    between atoms: C_7  and  C_9 
REMARK    4  A    between atoms: C_9  and  C_10 
REMARK    5  A    between atoms: C_10  and  C_11 
REMARK    6  A    between atoms: C_16  and  N_20 
ROOT
HETATM    1  C   UNL     1     -45.829 -51.552  14.486  1.00  0.00     0.034 A 
HETATM    2  C   UNL     1     -45.680 -51.342  13.155  1.00  0.00     0.034 A 
HETATM    3  C   UNL     1     -46.636 -51.898  12.125  1.00  0.00     0.069 C 
HETATM    4  N   UNL     1     -44.656 -50.598  12.584  1.00  0.00    -0.195 N 
ATOM      5  HN  UNL     1     -44.602 -50.488  11.572  1.00  0.00     0.184 HD
HETATM    6  C   UNL     1     -43.772 -50.046  13.351  1.00  0.00     0.683 A 
HETATM    7  N   UNL     1     -43.824 -50.223  14.694  1.00  0.00    -0.156 N 
HETATM    8  C   UNL     1     -44.781 -50.924  15.334  1.00  0.00     0.267 A 
HETATM    9  O   UNL     1     -44.720 -50.985  16.559  1.00  0.00    -0.267 OA
HETATM   10  H   UNL     1     -43.097 -49.878  15.286  1.00  0.00     0.187 HD
ENDROOT
BRANCH   1  11
HETATM   11  C   UNL     1     -46.944 -52.368  15.130  1.00  0.00     0.055 C 
BRANCH  11  12
HETATM   12  C   UNL     1     -46.604 -53.839  15.375  1.00  0.00     0.108 C 
BRANCH  12  13
HETATM   13  C   UNL     1     -45.405 -54.406  14.651  1.00  0.00     0.219 C 
HETATM   14  N   UNL     1     -44.261 -54.549  15.448  1.00  0.00    -0.356 N 
HETATM   15  C   UNL     1     -44.195 -54.097  16.838  1.00  0.00     0.152 C 
HETATM   16  O   UNL     1     -45.448 -54.715  13.464  1.00  0.00    -0.273 OA
BRANCH  14  17
HETATM   17  C   UNL     1     -43.040 -55.075  14.846  1.00  0.00     0.129 C 
BRANCH  17  18
HETATM   18  C   UNL     1     -41.977 -54.007  14.528  1.00  0.00    -0.005 C 
HETATM   19  C   UNL     1     -40.546 -54.510  14.732  1.00  0.00     0.011 C 
HETATM   20  C   UNL     1     -42.146 -53.544  13.079  1.00  0.00     0.011 C 
ENDBRANCH  17  18
ENDBRANCH  14  17
ENDBRANCH  12  13
ENDBRANCH  11  12
ENDBRANCH   1  11
BRANCH   6  21
HETATM   21  N   UNL     1     -42.725 -49.276  12.900  1.00  0.00    -0.213 N 
HETATM   22  C   UNL     1     -42.887 -48.003  12.182  1.00  0.00     0.167 C 
HETATM   23  C   UNL     1     -42.228 -48.087  10.802  1.00  0.00     0.188 C 
HETATM   24  O   UNL     1     -40.848 -48.455  10.909  1.00  0.00    -0.388 OA
HETATM   25  C   UNL     1     -40.726 -49.744  11.538  1.00  0.00     0.188 C 
HETATM   26  C   UNL     1     -41.335 -49.743  12.946  1.00  0.00     0.167 C 
ENDBRANCH   6  21
TORSDOF 6
ENDMDL
