MODEL 1
REMARK VINA RESULT:      -6.2      0.000      0.000
REMARK  4 active torsions:
REMARK  status: ('A' for Active; 'I' for Inactive)
REMARK       I    between atoms: N_1  and  C_2 
REMARK    1  A    between atoms: C_2  and  C_4 
REMARK    2  A    between atoms: C_4  and  N_5 
REMARK    3  A    between atoms: C_7  and  N_8 
REMARK       I    between atoms: N_8  and  C_9 
REMARK       I    between atoms: C_9  and  N_11 
REMARK    4  A    between atoms: C_15  and  O_16 
ROOT
HETATM    1  N   UNL     1     -39.554 -49.836  12.129  1.00  0.00    -0.293 N 
HETATM    2  C   UNL     1     -40.360 -50.767  12.722  1.00  0.00     0.141 A 
HETATM    3  C   UNL     1     -41.622 -50.571  12.217  1.00  0.00     0.070 A 
HETATM    4  C   UNL     1     -41.469 -49.503  11.307  1.00  0.00     0.138 A 
HETATM    5  N   UNL     1     -40.213 -49.051  11.243  1.00  0.00    -0.307 N 
ATOM      6  HN  UNL     1     -39.841 -48.297  10.667  1.00  0.00     0.186 HD
ENDROOT
BRANCH   3   7
HETATM    7  N   UNL     1     -42.797 -51.247  12.504  1.00  0.00    -0.306 N 
HETATM    8  C   UNL     1     -43.796 -50.797  13.335  1.00  0.00     0.323 C 
HETATM    9  O   UNL     1     -43.757 -49.712  13.917  1.00  0.00    -0.247 OA
HETATM   10  N   UNL     1     -44.880 -51.657  13.500  1.00  0.00    -0.332 N 
HETATM   11  C   UNL     1     -45.984 -51.221  14.361  1.00  0.00     0.127 C 
HETATM   12  C   UNL     1     -45.094 -52.963  12.867  1.00  0.00     0.159 C 
HETATM   13  C   UNL     1     -46.296 -52.266  15.434  1.00  0.00     0.022 C 
HETATM   14  C   UNL     1     -46.541 -53.642  14.819  1.00  0.00     0.035 C 
HETATM   15  C   UNL     1     -45.374 -54.048  13.916  1.00  0.00     0.136 C 
HETATM   16  H   UNL     1     -42.894 -52.131  12.042  1.00  0.00     0.171 HD
BRANCH  15  17
HETATM   17  O   UNL     1     -45.657 -55.291  13.279  1.00  0.00    -0.394 OA
HETATM   18  H   UNL     1     -46.072 -55.884  13.928  1.00  0.00     0.210 HD
ENDBRANCH  15  17
ENDBRANCH   3   7
BRANCH   1  19
HETATM   19  C   UNL     1     -38.125 -49.668  12.334  1.00  0.00     0.250 C 
BRANCH  19  20
HETATM   20  C   UNL     1     -37.276 -50.611  11.509  1.00  0.00     0.235 C 
HETATM   21  N   UNL     1     -37.101 -50.312  10.188  1.00  0.00    -0.369 N 
HETATM   22  H   UNL     1     -36.537 -50.920   9.612  1.00  0.00     0.159 HD
HETATM   23  H   UNL     1     -37.443 -49.432   9.805  1.00  0.00     0.159 HD
HETATM   24  O   UNL     1     -36.824 -51.658  11.964  1.00  0.00    -0.272 OA
ENDBRANCH  19  20
ENDBRANCH   1  19
TORSDOF 4
ENDMDL
MODEL 2
REMARK VINA RESULT:      -6.1      3.468      4.693
REMARK  4 active torsions:
REMARK  status: ('A' for Active; 'I' for Inactive)
REMARK       I    between atoms: N_1  and  C_2 
REMARK    1  A    between atoms: C_2  and  C_4 
REMARK    2  A    between atoms: C_4  and  N_5 
REMARK    3  A    between atoms: C_7  and  N_8 
REMARK       I    between atoms: N_8  and  C_9 
REMARK       I    between atoms: C_9  and  N_11 
REMARK    4  A    between atoms: C_15  and  O_16 
ROOT
HETATM    1  N   UNL     1     -40.969 -46.307  10.588  1.00  0.00    -0.293 N 
HETATM    2  C   UNL     1     -40.731 -47.425  11.337  1.00  0.00     0.141 A 
HETATM    3  C   UNL     1     -41.657 -48.363  10.947  1.00  0.00     0.070 A 
HETATM    4  C   UNL     1     -42.402 -47.714   9.938  1.00  0.00     0.138 A 
HETATM    5  N   UNL     1     -41.989 -46.464   9.710  1.00  0.00    -0.307 N 
ATOM      6  HN  UNL     1     -42.354 -45.791   9.037  1.00  0.00     0.186 HD
ENDROOT
BRANCH   3   7
HETATM    7  N   UNL     1     -41.844 -49.655  11.406  1.00  0.00    -0.306 N 
HETATM    8  C   UNL     1     -42.554 -50.010  12.530  1.00  0.00     0.323 C 
HETATM    9  O   UNL     1     -43.125 -49.196  13.257  1.00  0.00    -0.247 OA
HETATM   10  N   UNL     1     -42.589 -51.373  12.820  1.00  0.00    -0.332 N 
HETATM   11  C   UNL     1     -43.348 -51.810  13.996  1.00  0.00     0.127 C 
HETATM   12  C   UNL     1     -41.989 -52.469  12.052  1.00  0.00     0.159 C 
HETATM   13  C   UNL     1     -42.487 -52.673  14.920  1.00  0.00     0.022 C 
HETATM   14  C   UNL     1     -41.852 -53.838  14.166  1.00  0.00     0.035 C 
HETATM   15  C   UNL     1     -41.087 -53.339  12.939  1.00  0.00     0.136 C 
HETATM   16  H   UNL     1     -41.417 -50.366  10.843  1.00  0.00     0.171 HD
BRANCH  15  17
HETATM   17  O   UNL     1     -40.577 -54.441  12.196  1.00  0.00    -0.394 OA
HETATM   18  H   UNL     1     -40.443 -54.157  11.275  1.00  0.00     0.210 HD
ENDBRANCH  15  17
ENDBRANCH   3   7
BRANCH   1  19
HETATM   19  C   UNL     1     -40.228 -45.058  10.633  1.00  0.00     0.250 C 
BRANCH  19  20
HETATM   20  C   UNL     1     -41.051 -43.877  11.103  1.00  0.00     0.235 C 
HETATM   21  N   UNL     1     -40.465 -42.645  11.065  1.00  0.00    -0.369 N 
HETATM   22  H   UNL     1     -40.990 -41.836  11.370  1.00  0.00     0.159 HD
HETATM   23  H   UNL     1     -39.549 -42.517  10.638  1.00  0.00     0.159 HD
HETATM   24  O   UNL     1     -42.172 -44.009  11.587  1.00  0.00    -0.272 OA
ENDBRANCH  19  20
ENDBRANCH   1  19
TORSDOF 4
ENDMDL
MODEL 3
REMARK VINA RESULT:      -6.0      3.350      4.350
REMARK  4 active torsions:
REMARK  status: ('A' for Active; 'I' for Inactive)
REMARK       I    between atoms: N_1  and  C_2 
REMARK    1  A    between atoms: C_2  and  C_4 
REMARK    2  A    between atoms: C_4  and  N_5 
REMARK    3  A    between atoms: C_7  and  N_8 
REMARK       I    between atoms: N_8  and  C_9 
REMARK       I    between atoms: C_9  and  N_11 
REMARK    4  A    between atoms: C_15  and  O_16 
ROOT
HETATM    1  N   UNL     1     -42.287 -46.104  11.004  1.00  0.00    -0.293 N 
HETATM    2  C   UNL     1     -42.850 -46.908  11.955  1.00  0.00     0.141 A 
HETATM    3  C   UNL     1     -42.749 -48.197  11.489  1.00  0.00     0.070 A 
HETATM    4  C   UNL     1     -42.089 -48.065  10.247  1.00  0.00     0.138 A 
HETATM    5  N   UNL     1     -41.801 -46.796   9.944  1.00  0.00    -0.307 N 
ATOM      6  HN  UNL     1     -41.328 -46.435   9.116  1.00  0.00     0.186 HD
ENDROOT
BRANCH   3   7
HETATM    7  N   UNL     1     -43.176 -49.377  12.073  1.00  0.00    -0.306 N 
HETATM    8  C   UNL     1     -42.364 -50.314  12.669  1.00  0.00     0.323 C 
HETATM    9  O   UNL     1     -41.142 -50.193  12.761  1.00  0.00    -0.247 OA
HETATM   10  N   UNL     1     -43.009 -51.444  13.169  1.00  0.00    -0.332 N 
HETATM   11  C   UNL     1     -42.195 -52.468  13.831  1.00  0.00     0.127 C 
HETATM   12  C   UNL     1     -44.446 -51.733  13.163  1.00  0.00     0.159 C 
HETATM   13  C   UNL     1     -42.439 -53.850  13.222  1.00  0.00     0.022 C 
HETATM   14  C   UNL     1     -43.924 -54.200  13.209  1.00  0.00     0.035 C 
HETATM   15  C   UNL     1     -44.736 -53.099  12.525  1.00  0.00     0.136 C 
HETATM   16  H   UNL     1     -44.167 -49.523  12.045  1.00  0.00     0.171 HD
BRANCH  15  17
HETATM   17  O   UNL     1     -46.127 -53.395  12.600  1.00  0.00    -0.394 OA
HETATM   18  H   UNL     1     -46.590 -52.879  11.917  1.00  0.00     0.210 HD
ENDBRANCH  15  17
ENDBRANCH   3   7
BRANCH   1  19
HETATM   19  C   UNL     1     -42.143 -44.660  11.062  1.00  0.00     0.250 C 
BRANCH  19  20
HETATM   20  C   UNL     1     -40.705 -44.188  11.006  1.00  0.00     0.235 C 
HETATM   21  N   UNL     1     -40.483 -42.841  10.990  1.00  0.00    -0.369 N 
HETATM   22  H   UNL     1     -39.534 -42.495  10.955  1.00  0.00     0.159 HD
HETATM   23  H   UNL     1     -41.252 -42.186  11.117  1.00  0.00     0.159 HD
HETATM   24  O   UNL     1     -39.762 -44.966  10.889  1.00  0.00    -0.272 OA
ENDBRANCH  19  20
ENDBRANCH   1  19
TORSDOF 4
ENDMDL
MODEL 4
REMARK VINA RESULT:      -5.9      2.941      4.362
REMARK  4 active torsions:
REMARK  status: ('A' for Active; 'I' for Inactive)
REMARK       I    between atoms: N_1  and  C_2 
REMARK    1  A    between atoms: C_2  and  C_4 
REMARK    2  A    between atoms: C_4  and  N_5 
REMARK    3  A    between atoms: C_7  and  N_8 
REMARK       I    between atoms: N_8  and  C_9 
REMARK       I    between atoms: C_9  and  N_11 
REMARK    4  A    between atoms: C_15  and  O_16 
ROOT
HETATM    1  N   UNL     1     -42.050 -47.214  10.752  1.00  0.00    -0.293 N 
HETATM    2  C   UNL     1     -42.979 -47.945  11.437  1.00  0.00     0.141 A 
HETATM    3  C   UNL     1     -42.388 -49.147  11.739  1.00  0.00     0.070 A 
HETATM    4  C   UNL     1     -41.086 -49.037  11.203  1.00  0.00     0.138 A 
HETATM    5  N   UNL     1     -40.869 -47.863  10.604  1.00  0.00    -0.307 N 
ATOM      6  HN  UNL     1     -40.020 -47.535  10.145  1.00  0.00     0.186 HD
ENDROOT
BRANCH   3   7
HETATM    7  N   UNL     1     -42.911 -50.237  12.415  1.00  0.00    -0.306 N 
HETATM    8  C   UNL     1     -42.318 -50.879  13.477  1.00  0.00     0.323 C 
HETATM    9  O   UNL     1     -41.240 -50.535  13.962  1.00  0.00    -0.247 OA
HETATM   10  N   UNL     1     -43.013 -51.975  13.987  1.00  0.00    -0.332 N 
HETATM   11  C   UNL     1     -42.437 -52.686  15.133  1.00  0.00     0.127 C 
HETATM   12  C   UNL     1     -44.309 -52.499  13.547  1.00  0.00     0.159 C 
HETATM   13  C   UNL     1     -42.316 -54.184  14.851  1.00  0.00     0.022 C 
HETATM   14  C   UNL     1     -43.649 -54.778  14.402  1.00  0.00     0.035 C 
HETATM   15  C   UNL     1     -44.221 -53.996  13.218  1.00  0.00     0.136 C 
HETATM   16  H   UNL     1     -43.800 -50.552  12.076  1.00  0.00     0.171 HD
BRANCH  15  17
HETATM   17  O   UNL     1     -45.505 -54.503  12.869  1.00  0.00    -0.394 OA
HETATM   18  H   UNL     1     -46.111 -53.751  12.746  1.00  0.00     0.210 HD
ENDBRANCH  15  17
ENDBRANCH   3   7
BRANCH   1  19
HETATM   19  C   UNL     1     -42.211 -45.863  10.242  1.00  0.00     0.250 C 
BRANCH  19  20
HETATM   20  C   UNL     1     -43.220 -45.752   9.118  1.00  0.00     0.235 C 
HETATM   21  N   UNL     1     -43.214 -46.729   8.165  1.00  0.00    -0.369 N 
HETATM   22  H   UNL     1     -43.878 -46.684   7.404  1.00  0.00     0.159 HD
HETATM   23  H   UNL     1     -42.625 -47.553   8.269  1.00  0.00     0.159 HD
HETATM   24  O   UNL     1     -43.964 -44.783   8.998  1.00  0.00    -0.272 OA
ENDBRANCH  19  20
ENDBRANCH   1  19
TORSDOF 4
ENDMDL
MODEL 5
REMARK VINA RESULT:      -5.8      3.338      5.071
REMARK  4 active torsions:
REMARK  status: ('A' for Active; 'I' for Inactive)
REMARK       I    between atoms: N_1  and  C_2 
REMARK    1  A    between atoms: C_2  and  C_4 
REMARK    2  A    between atoms: C_4  and  N_5 
REMARK    3  A    between atoms: C_7  and  N_8 
REMARK       I    between atoms: N_8  and  C_9 
REMARK       I    between atoms: C_9  and  N_11 
REMARK    4  A    between atoms: C_15  and  O_16 
ROOT
HETATM    1  N   UNL     1     -42.184 -47.200  10.558  1.00  0.00    -0.293 N 
HETATM    2  C   UNL     1     -42.619 -48.425  10.978  1.00  0.00     0.141 A 
HETATM    3  C   UNL     1     -41.498 -49.151  11.299  1.00  0.00     0.070 A 
HETATM    4  C   UNL     1     -40.429 -48.263  11.053  1.00  0.00     0.138 A 
HETATM    5  N   UNL     1     -40.836 -47.071  10.605  1.00  0.00    -0.307 N 
ATOM      6  HN  UNL     1     -40.268 -46.261  10.359  1.00  0.00     0.186 HD
ENDROOT
BRANCH   3   7
HETATM    7  N   UNL     1     -41.398 -50.451  11.765  1.00  0.00    -0.306 N 
HETATM    8  C   UNL     1     -42.283 -51.065  12.621  1.00  0.00     0.323 C 
HETATM    9  O   UNL     1     -43.291 -50.514  13.063  1.00  0.00    -0.247 OA
HETATM   10  N   UNL     1     -41.969 -52.375  12.980  1.00  0.00    -0.332 N 
HETATM   11  C   UNL     1     -42.887 -53.085  13.876  1.00  0.00     0.127 C 
HETATM   12  C   UNL     1     -40.829 -53.180  12.529  1.00  0.00     0.159 C 
HETATM   13  C   UNL     1     -42.149 -53.654  15.088  1.00  0.00     0.022 C 
HETATM   14  C   UNL     1     -40.961 -54.514  14.666  1.00  0.00     0.035 C 
HETATM   15  C   UNL     1     -40.039 -53.741  13.720  1.00  0.00     0.136 C 
HETATM   16  H   UNL     1     -40.604 -50.958  11.423  1.00  0.00     0.171 HD
BRANCH  15  17
HETATM   17  O   UNL     1     -38.986 -54.583  13.263  1.00  0.00    -0.394 OA
HETATM   18  H   UNL     1     -38.193 -54.037  13.121  1.00  0.00     0.210 HD
ENDBRANCH  15  17
ENDBRANCH   3   7
BRANCH   1  19
HETATM   19  C   UNL     1     -43.011 -46.083  10.134  1.00  0.00     0.250 C 
BRANCH  19  20
HETATM   20  C   UNL     1     -43.826 -46.366   8.889  1.00  0.00     0.235 C 
HETATM   21  N   UNL     1     -45.128 -45.958   8.881  1.00  0.00    -0.369 N 
HETATM   22  H   UNL     1     -45.697 -46.130   8.063  1.00  0.00     0.159 HD
HETATM   23  H   UNL     1     -45.500 -45.392   9.642  1.00  0.00     0.159 HD
HETATM   24  O   UNL     1     -43.381 -47.015   7.947  1.00  0.00    -0.272 OA
ENDBRANCH  19  20
ENDBRANCH   1  19
TORSDOF 4
ENDMDL
MODEL 6
REMARK VINA RESULT:      -5.5      4.137      7.339
REMARK  4 active torsions:
REMARK  status: ('A' for Active; 'I' for Inactive)
REMARK       I    between atoms: N_1  and  C_2 
REMARK    1  A    between atoms: C_2  and  C_4 
REMARK    2  A    between atoms: C_4  and  N_5 
REMARK    3  A    between atoms: C_7  and  N_8 
REMARK       I    between atoms: N_8  and  C_9 
REMARK       I    between atoms: C_9  and  N_11 
REMARK    4  A    between atoms: C_15  and  O_16 
ROOT
HETATM    1  N   UNL     1     -43.294 -47.815   9.812  1.00  0.00    -0.293 N 
HETATM    2  C   UNL     1     -41.952 -48.037   9.937  1.00  0.00     0.141 A 
HETATM    3  C   UNL     1     -41.723 -48.333  11.259  1.00  0.00     0.070 A 
HETATM    4  C   UNL     1     -43.004 -48.279  11.851  1.00  0.00     0.138 A 
HETATM    5  N   UNL     1     -43.967 -47.969  10.979  1.00  0.00    -0.307 N 
ATOM      6  HN  UNL     1     -44.968 -47.871  11.150  1.00  0.00     0.186 HD
ENDROOT
BRANCH   3   7
HETATM    7  N   UNL     1     -40.531 -48.626  11.899  1.00  0.00    -0.306 N 
HETATM    8  C   UNL     1     -40.182 -49.852  12.417  1.00  0.00     0.323 C 
HETATM    9  O   UNL     1     -40.904 -50.847  12.352  1.00  0.00    -0.247 OA
HETATM   10  N   UNL     1     -38.939 -49.912  13.046  1.00  0.00    -0.332 N 
HETATM   11  C   UNL     1     -38.507 -51.199  13.600  1.00  0.00     0.127 C 
HETATM   12  C   UNL     1     -37.954 -48.836  13.189  1.00  0.00     0.159 C 
HETATM   13  C   UNL     1     -38.106 -51.062  15.070  1.00  0.00     0.022 C 
HETATM   14  C   UNL     1     -37.067 -49.961  15.266  1.00  0.00     0.035 C 
HETATM   15  C   UNL     1     -37.552 -48.643  14.658  1.00  0.00     0.136 C 
HETATM   16  H   UNL     1     -39.892 -47.857  11.966  1.00  0.00     0.171 HD
BRANCH  15  17
HETATM   17  O   UNL     1     -36.537 -47.649  14.767  1.00  0.00    -0.394 OA
HETATM   18  H   UNL     1     -36.964 -46.776  14.815  1.00  0.00     0.210 HD
ENDBRANCH  15  17
ENDBRANCH   3   7
BRANCH   1  19
HETATM   19  C   UNL     1     -44.011 -47.489   8.592  1.00  0.00     0.250 C 
BRANCH  19  20
HETATM   20  C   UNL     1     -45.503 -47.316   8.788  1.00  0.00     0.235 C 
HETATM   21  N   UNL     1     -45.994 -46.043   8.804  1.00  0.00    -0.369 N 
HETATM   22  H   UNL     1     -46.986 -45.895   8.931  1.00  0.00     0.159 HD
HETATM   23  H   UNL     1     -45.392 -45.251   8.586  1.00  0.00     0.159 HD
HETATM   24  O   UNL     1     -46.249 -48.264   9.016  1.00  0.00    -0.272 OA
ENDBRANCH  19  20
ENDBRANCH   1  19
TORSDOF 4
ENDMDL
MODEL 7
REMARK VINA RESULT:      -5.5      3.789      5.761
REMARK  4 active torsions:
REMARK  status: ('A' for Active; 'I' for Inactive)
REMARK       I    between atoms: N_1  and  C_2 
REMARK    1  A    between atoms: C_2  and  C_4 
REMARK    2  A    between atoms: C_4  and  N_5 
REMARK    3  A    between atoms: C_7  and  N_8 
REMARK       I    between atoms: N_8  and  C_9 
REMARK       I    between atoms: C_9  and  N_11 
REMARK    4  A    between atoms: C_15  and  O_16 
ROOT
HETATM    1  N   UNL     1     -42.504 -48.074  10.575  1.00  0.00    -0.293 N 
HETATM    2  C   UNL     1     -41.378 -48.785  10.881  1.00  0.00     0.141 A 
HETATM    3  C   UNL     1     -41.675 -49.530  11.997  1.00  0.00     0.070 A 
HETATM    4  C   UNL     1     -43.020 -49.208  12.279  1.00  0.00     0.138 A 
HETATM    5  N   UNL     1     -43.535 -48.326  11.417  1.00  0.00    -0.307 N 
ATOM      6  HN  UNL     1     -44.477 -47.937  11.398  1.00  0.00     0.186 HD
ENDROOT
BRANCH   3   7
HETATM    7  N   UNL     1     -40.872 -50.407  12.706  1.00  0.00    -0.306 N 
HETATM    8  C   UNL     1     -40.959 -51.779  12.669  1.00  0.00     0.323 C 
HETATM    9  O   UNL     1     -41.772 -52.389  11.973  1.00  0.00    -0.247 OA
HETATM   10  N   UNL     1     -40.064 -52.465  13.488  1.00  0.00    -0.332 N 
HETATM   11  C   UNL     1     -40.099 -53.931  13.475  1.00  0.00     0.127 C 
HETATM   12  C   UNL     1     -39.025 -51.899  14.354  1.00  0.00     0.159 C 
HETATM   13  C   UNL     1     -40.246 -54.494  14.890  1.00  0.00     0.022 C 
HETATM   14  C   UNL     1     -39.174 -53.942  15.825  1.00  0.00     0.035 C 
HETATM   15  C   UNL     1     -39.161 -52.413  15.794  1.00  0.00     0.136 C 
HETATM   16  H   UNL     1     -40.176 -49.968  13.278  1.00  0.00     0.171 HD
BRANCH  15  17
HETATM   17  O   UNL     1     -38.097 -51.914  16.600  1.00  0.00    -0.394 OA
HETATM   18  H   UNL     1     -37.256 -52.240  16.236  1.00  0.00     0.210 HD
ENDBRANCH  15  17
ENDBRANCH   3   7
BRANCH   1  19
HETATM   19  C   UNL     1     -42.678 -47.161   9.459  1.00  0.00     0.250 C 
BRANCH  19  20
HETATM   20  C   UNL     1     -43.606 -47.682   8.382  1.00  0.00     0.235 C 
HETATM   21  N   UNL     1     -43.052 -48.033   7.186  1.00  0.00    -0.369 N 
HETATM   22  H   UNL     1     -43.645 -48.387   6.448  1.00  0.00     0.159 HD
HETATM   23  H   UNL     1     -42.040 -48.041   7.064  1.00  0.00     0.159 HD
HETATM   24  O   UNL     1     -44.825 -47.714   8.525  1.00  0.00    -0.272 OA
ENDBRANCH  19  20
ENDBRANCH   1  19
TORSDOF 4
ENDMDL
MODEL 8
REMARK VINA RESULT:      -5.5      2.811      7.028
REMARK  4 active torsions:
REMARK  status: ('A' for Active; 'I' for Inactive)
REMARK       I    between atoms: N_1  and  C_2 
REMARK    1  A    between atoms: C_2  and  C_4 
REMARK    2  A    between atoms: C_4  and  N_5 
REMARK    3  A    between atoms: C_7  and  N_8 
REMARK       I    between atoms: N_8  and  C_9 
REMARK       I    between atoms: C_9  and  N_11 
REMARK    4  A    between atoms: C_15  and  O_16 
ROOT
HETATM    1  N   UNL     1     -42.588 -53.134  13.315  1.00  0.00    -0.293 N 
HETATM    2  C   UNL     1     -42.896 -51.817  13.116  1.00  0.00     0.141 A 
HETATM    3  C   UNL     1     -42.015 -51.346  12.172  1.00  0.00     0.070 A 
HETATM    4  C   UNL     1     -41.221 -52.468  11.850  1.00  0.00     0.138 A 
HETATM    5  N   UNL     1     -41.563 -53.562  12.538  1.00  0.00    -0.307 N 
ATOM      6  HN  UNL     1     -41.153 -54.494  12.488  1.00  0.00     0.186 HD
ENDROOT
BRANCH   3   7
HETATM    7  N   UNL     1     -41.903 -50.076  11.632  1.00  0.00    -0.306 N 
HETATM    8  C   UNL     1     -40.878 -49.192  11.874  1.00  0.00     0.323 C 
HETATM    9  O   UNL     1     -39.919 -49.447  12.603  1.00  0.00    -0.247 OA
HETATM   10  N   UNL     1     -40.985 -47.953  11.243  1.00  0.00    -0.332 N 
HETATM   11  C   UNL     1     -39.910 -46.978  11.450  1.00  0.00     0.127 C 
HETATM   12  C   UNL     1     -42.039 -47.499  10.331  1.00  0.00     0.159 C 
HETATM   13  C   UNL     1     -40.465 -45.637  11.934  1.00  0.00     0.022 C 
HETATM   14  C   UNL     1     -41.559 -45.116  11.005  1.00  0.00     0.035 C 
HETATM   15  C   UNL     1     -42.648 -46.172  10.804  1.00  0.00     0.136 C 
HETATM   16  H   UNL     1     -42.648 -49.818  11.013  1.00  0.00     0.171 HD
BRANCH  15  17
HETATM   17  O   UNL     1     -43.614 -45.708   9.865  1.00  0.00    -0.394 OA
HETATM   18  H   UNL     1     -43.774 -44.763  10.028  1.00  0.00     0.210 HD
ENDBRANCH  15  17
ENDBRANCH   3   7
BRANCH   1  19
HETATM   19  C   UNL     1     -43.263 -54.058  14.210  1.00  0.00     0.250 C 
BRANCH  19  20
HETATM   20  C   UNL     1     -44.686 -54.372  13.801  1.00  0.00     0.235 C 
HETATM   21  N   UNL     1     -45.606 -54.541  14.795  1.00  0.00    -0.369 N 
HETATM   22  H   UNL     1     -46.565 -54.749  14.555  1.00  0.00     0.159 HD
HETATM   23  H   UNL     1     -45.361 -54.355  15.767  1.00  0.00     0.159 HD
HETATM   24  O   UNL     1     -45.007 -54.563  12.631  1.00  0.00    -0.272 OA
ENDBRANCH  19  20
ENDBRANCH   1  19
TORSDOF 4
ENDMDL
MODEL 9
REMARK VINA RESULT:      -5.5      7.265     10.359
REMARK  4 active torsions:
REMARK  status: ('A' for Active; 'I' for Inactive)
REMARK       I    between atoms: N_1  and  C_2 
REMARK    1  A    between atoms: C_2  and  C_4 
REMARK    2  A    between atoms: C_4  and  N_5 
REMARK    3  A    between atoms: C_7  and  N_8 
REMARK       I    between atoms: N_8  and  C_9 
REMARK       I    between atoms: C_9  and  N_11 
REMARK    4  A    between atoms: C_15  and  O_16 
ROOT
HETATM    1  N   UNL     1     -41.915 -46.581  10.513  1.00  0.00    -0.293 N 
HETATM    2  C   UNL     1     -42.268 -45.409  11.121  1.00  0.00     0.141 A 
HETATM    3  C   UNL     1     -41.108 -44.698  11.306  1.00  0.00     0.070 A 
HETATM    4  C   UNL     1     -40.104 -45.524  10.757  1.00  0.00     0.138 A 
HETATM    5  N   UNL     1     -40.585 -46.671  10.268  1.00  0.00    -0.307 N 
ATOM      6  HN  UNL     1     -40.074 -47.431   9.819  1.00  0.00     0.186 HD
ENDROOT
BRANCH   3   7
HETATM    7  N   UNL     1     -40.923 -43.454  11.887  1.00  0.00    -0.306 N 
HETATM    8  C   UNL     1     -41.361 -42.257  11.370  1.00  0.00     0.323 C 
HETATM    9  O   UNL     1     -41.992 -42.163  10.316  1.00  0.00    -0.247 OA
HETATM   10  N   UNL     1     -41.039 -41.122  12.113  1.00  0.00    -0.332 N 
HETATM   11  C   UNL     1     -41.497 -39.820  11.618  1.00  0.00     0.127 C 
HETATM   12  C   UNL     1     -40.322 -41.060  13.389  1.00  0.00     0.159 C 
HETATM   13  C   UNL     1     -40.336 -38.831  11.506  1.00  0.00     0.022 C 
HETATM   14  C   UNL     1     -39.567 -38.721  12.820  1.00  0.00     0.035 C 
HETATM   15  C   UNL     1     -39.124 -40.102  13.307  1.00  0.00     0.136 C 
HETATM   16  H   UNL     1     -40.431 -43.469  12.760  1.00  0.00     0.171 HD
BRANCH  15  17
HETATM   17  O   UNL     1     -38.489 -39.995  14.577  1.00  0.00    -0.394 OA
HETATM   18  H   UNL     1     -38.399 -40.887  14.954  1.00  0.00     0.210 HD
ENDBRANCH  15  17
ENDBRANCH   3   7
BRANCH   1  19
HETATM   19  C   UNL     1     -42.809 -47.647  10.098  1.00  0.00     0.250 C 
BRANCH  19  20
HETATM   20  C   UNL     1     -43.465 -47.406   8.754  1.00  0.00     0.235 C 
HETATM   21  N   UNL     1     -42.991 -48.109   7.685  1.00  0.00    -0.369 N 
HETATM   22  H   UNL     1     -43.410 -47.972   6.775  1.00  0.00     0.159 HD
HETATM   23  H   UNL     1     -42.297 -48.844   7.812  1.00  0.00     0.159 HD
HETATM   24  O   UNL     1     -44.330 -46.550   8.590  1.00  0.00    -0.272 OA
ENDBRANCH  19  20
ENDBRANCH   1  19
TORSDOF 4
ENDMDL
