MODEL 1
REMARK VINA RESULT:      -5.5      0.000      0.000
REMARK  6 active torsions:
REMARK  status: ('A' for Active; 'I' for Inactive)
REMARK    1  A    between atoms: C_2  and  C_3 
REMARK    2  A    between atoms: C_3  and  N_4 
REMARK    3  A    between atoms: C_3  and  C_14 
REMARK    4  A    between atoms: N_4  and  C_5 
REMARK    5  A    between atoms: C_5  and  C_6 
REMARK    6  A    between atoms: C_6  and  N_7 
REMARK       I    between atoms: C_14  and  N_16 
ROOT
HETATM    1  N   UNL     1     -41.887 -50.274  11.620  1.00  0.00     0.098 N 
HETATM    2  H   UNL     1     -42.790 -50.748  11.694  1.00  0.00     0.317 HD
ENDROOT
BRANCH   1   3
HETATM    3  C   UNL     1     -40.978 -50.864  12.646  1.00  0.00     0.310 C 
BRANCH   3   4
HETATM    4  C   UNL     1     -39.679 -50.083  12.924  1.00  0.00     0.041 C 
HETATM    5  C   UNL     1     -38.674 -50.118  11.782  1.00  0.00     0.007 C 
ENDBRANCH   3   4
BRANCH   3   6
HETATM    6  C   UNL     1     -40.665 -52.338  12.302  1.00  0.00     0.248 C 
HETATM    7  O   UNL     1     -39.992 -53.092  12.995  1.00  0.00    -0.271 OA
HETATM    8  N   UNL     1     -41.214 -52.776  11.129  1.00  0.00    -0.368 N 
HETATM    9  H   UNL     1     -41.515 -52.090  10.446  1.00  0.00     0.159 HD
HETATM   10  H   UNL     1     -40.933 -53.693  10.807  1.00  0.00     0.159 HD
ENDBRANCH   3   6
ENDBRANCH   1   3
BRANCH   1  11
HETATM   11  C   UNL     1     -42.105 -48.829  11.826  1.00  0.00     0.292 C 
BRANCH  11  12
HETATM   12  C   UNL     1     -41.730 -48.000  10.595  1.00  0.00     0.178 C 
BRANCH  12  13
HETATM   13  N   UNL     1     -42.911 -47.751   9.785  1.00  0.00    -0.302 N 
HETATM   14  C   UNL     1     -44.157 -47.418  10.236  1.00  0.00     0.118 A 
HETATM   15  C   UNL     1     -44.983 -47.432   9.132  1.00  0.00    -0.028 A 
HETATM   16  C   UNL     1     -46.437 -47.176   9.069  1.00  0.00     0.051 C 
HETATM   17  C   UNL     1     -44.122 -47.766   8.063  1.00  0.00     0.115 A 
HETATM   18  N   UNL     1     -42.860 -47.954   8.457  1.00  0.00    -0.310 N 
ATOM     19  HN  UNL     1     -42.050 -48.194   7.886  1.00  0.00     0.186 HD
ENDBRANCH  12  13
ENDBRANCH  11  12
ENDBRANCH   1  11
TORSDOF 6
ENDMDL
MODEL 2
REMARK VINA RESULT:      -5.2      3.806      6.236
REMARK  6 active torsions:
REMARK  status: ('A' for Active; 'I' for Inactive)
REMARK    1  A    between atoms: C_2  and  C_3 
REMARK    2  A    between atoms: C_3  and  N_4 
REMARK    3  A    between atoms: C_3  and  C_14 
REMARK    4  A    between atoms: N_4  and  C_5 
REMARK    5  A    between atoms: C_5  and  C_6 
REMARK    6  A    between atoms: C_6  and  N_7 
REMARK       I    between atoms: C_14  and  N_16 
ROOT
HETATM    1  N   UNL     1     -43.185 -48.160   9.981  1.00  0.00     0.098 N 
HETATM    2  H   UNL     1     -42.412 -48.047   9.322  1.00  0.00     0.317 HD
ENDROOT
BRANCH   1   3
HETATM    3  C   UNL     1     -44.265 -47.211   9.583  1.00  0.00     0.310 C 
BRANCH   3   4
HETATM    4  C   UNL     1     -45.471 -47.829   8.851  1.00  0.00     0.041 C 
HETATM    5  C   UNL     1     -46.784 -47.096   9.084  1.00  0.00     0.007 C 
ENDBRANCH   3   4
BRANCH   3   6
HETATM    6  C   UNL     1     -43.675 -46.037   8.767  1.00  0.00     0.248 C 
HETATM    7  O   UNL     1     -43.840 -44.851   9.025  1.00  0.00    -0.271 OA
HETATM    8  N   UNL     1     -42.915 -46.417   7.696  1.00  0.00    -0.368 N 
HETATM    9  H   UNL     1     -43.019 -47.359   7.334  1.00  0.00     0.159 HD
HETATM   10  H   UNL     1     -42.615 -45.685   7.066  1.00  0.00     0.159 HD
ENDBRANCH   3   6
ENDBRANCH   1   3
BRANCH   1  11
HETATM   11  C   UNL     1     -42.676 -47.896  11.340  1.00  0.00     0.292 C 
BRANCH  11  12
HETATM   12  C   UNL     1     -41.325 -47.175  11.329  1.00  0.00     0.178 C 
BRANCH  12  13
HETATM   13  N   UNL     1     -41.521 -45.748  11.517  1.00  0.00    -0.302 N 
HETATM   14  C   UNL     1     -40.609 -44.758  11.283  1.00  0.00     0.118 A 
HETATM   15  C   UNL     1     -41.181 -43.590  11.743  1.00  0.00    -0.028 A 
HETATM   16  C   UNL     1     -40.603 -42.230  11.760  1.00  0.00     0.051 C 
HETATM   17  C   UNL     1     -42.451 -43.992  12.214  1.00  0.00     0.115 A 
HETATM   18  N   UNL     1     -42.662 -45.302  12.072  1.00  0.00    -0.310 N 
ATOM     19  HN  UNL     1     -43.492 -45.839  12.323  1.00  0.00     0.186 HD
ENDBRANCH  12  13
ENDBRANCH  11  12
ENDBRANCH   1  11
TORSDOF 6
ENDMDL
MODEL 3
REMARK VINA RESULT:      -5.2      3.059      6.686
REMARK  6 active torsions:
REMARK  status: ('A' for Active; 'I' for Inactive)
REMARK    1  A    between atoms: C_2  and  C_3 
REMARK    2  A    between atoms: C_3  and  N_4 
REMARK    3  A    between atoms: C_3  and  C_14 
REMARK    4  A    between atoms: N_4  and  C_5 
REMARK    5  A    between atoms: C_5  and  C_6 
REMARK    6  A    between atoms: C_6  and  N_7 
REMARK       I    between atoms: C_14  and  N_16 
ROOT
HETATM    1  N   UNL     1     -43.135 -48.188   9.841  1.00  0.00     0.098 N 
HETATM    2  H   UNL     1     -42.442 -48.079   9.098  1.00  0.00     0.317 HD
ENDROOT
BRANCH   1   3
HETATM    3  C   UNL     1     -44.245 -47.227   9.573  1.00  0.00     0.310 C 
BRANCH   3   4
HETATM    4  C   UNL     1     -45.502 -47.817   8.909  1.00  0.00     0.041 C 
HETATM    5  C   UNL     1     -46.767 -47.001   9.132  1.00  0.00     0.007 C 
ENDBRANCH   3   4
BRANCH   3   6
HETATM    6  C   UNL     1     -43.722 -46.013   8.770  1.00  0.00     0.248 C 
HETATM    7  O   UNL     1     -43.998 -44.843   9.009  1.00  0.00    -0.271 OA
HETATM    8  N   UNL     1     -42.889 -46.334   7.735  1.00  0.00    -0.368 N 
HETATM    9  H   UNL     1     -42.898 -47.284   7.379  1.00  0.00     0.159 HD
HETATM   10  H   UNL     1     -42.625 -45.583   7.111  1.00  0.00     0.159 HD
ENDBRANCH   3   6
ENDBRANCH   1   3
BRANCH   1  11
HETATM   11  C   UNL     1     -42.470 -47.933  11.134  1.00  0.00     0.292 C 
BRANCH  11  12
HETATM   12  C   UNL     1     -41.012 -47.497  10.966  1.00  0.00     0.178 C 
BRANCH  12  13
HETATM   13  N   UNL     1     -40.128 -48.475  11.576  1.00  0.00    -0.302 N 
HETATM   14  C   UNL     1     -39.433 -48.334  12.744  1.00  0.00     0.118 A 
HETATM   15  C   UNL     1     -38.620 -49.443  12.845  1.00  0.00    -0.028 A 
HETATM   16  C   UNL     1     -37.639 -49.770  13.901  1.00  0.00     0.051 C 
HETATM   17  C   UNL     1     -38.924 -50.199  11.690  1.00  0.00     0.115 A 
HETATM   18  N   UNL     1     -39.846 -49.614  10.920  1.00  0.00    -0.310 N 
ATOM     19  HN  UNL     1     -40.242 -49.952  10.043  1.00  0.00     0.186 HD
ENDBRANCH  12  13
ENDBRANCH  11  12
ENDBRANCH   1  11
TORSDOF 6
ENDMDL
MODEL 4
REMARK VINA RESULT:      -5.1      3.740      6.098
REMARK  6 active torsions:
REMARK  status: ('A' for Active; 'I' for Inactive)
REMARK    1  A    between atoms: C_2  and  C_3 
REMARK    2  A    between atoms: C_3  and  N_4 
REMARK    3  A    between atoms: C_3  and  C_14 
REMARK    4  A    between atoms: N_4  and  C_5 
REMARK    5  A    between atoms: C_5  and  C_6 
REMARK    6  A    between atoms: C_6  and  N_7 
REMARK       I    between atoms: C_14  and  N_16 
ROOT
HETATM    1  N   UNL     1     -43.668 -53.881  12.322  1.00  0.00     0.098 N 
HETATM    2  H   UNL     1     -43.777 -54.118  11.334  1.00  0.00     0.317 HD
ENDROOT
BRANCH   1   3
HETATM    3  C   UNL     1     -45.031 -53.694  12.899  1.00  0.00     0.310 C 
BRANCH   3   4
HETATM    4  C   UNL     1     -45.354 -52.282  13.422  1.00  0.00     0.041 C 
HETATM    5  C   UNL     1     -46.500 -51.594  12.695  1.00  0.00     0.007 C 
ENDBRANCH   3   4
BRANCH   3   6
HETATM    6  C   UNL     1     -45.303 -54.756  13.990  1.00  0.00     0.248 C 
HETATM    7  O   UNL     1     -44.445 -55.455  14.516  1.00  0.00    -0.271 OA
HETATM    8  N   UNL     1     -46.615 -54.869  14.356  1.00  0.00    -0.368 N 
HETATM    9  H   UNL     1     -47.328 -54.507  13.733  1.00  0.00     0.159 HD
HETATM   10  H   UNL     1     -46.852 -55.634  14.974  1.00  0.00     0.159 HD
ENDBRANCH   3   6
ENDBRANCH   1   3
BRANCH   1  11
HETATM   11  C   UNL     1     -42.845 -52.659  12.416  1.00  0.00     0.292 C 
BRANCH  11  12
HETATM   12  C   UNL     1     -41.366 -52.968  12.663  1.00  0.00     0.178 C 
BRANCH  12  13
HETATM   13  N   UNL     1     -40.551 -51.826  12.285  1.00  0.00    -0.302 N 
HETATM   14  C   UNL     1     -39.419 -51.386  12.911  1.00  0.00     0.118 A 
HETATM   15  C   UNL     1     -39.078 -50.197  12.299  1.00  0.00    -0.028 A 
HETATM   16  C   UNL     1     -37.954 -49.291  12.616  1.00  0.00     0.051 C 
HETATM   17  C   UNL     1     -40.064 -50.028  11.302  1.00  0.00     0.115 A 
HETATM   18  N   UNL     1     -40.957 -51.021  11.287  1.00  0.00    -0.310 N 
ATOM     19  HN  UNL     1     -41.757 -51.141  10.667  1.00  0.00     0.186 HD
ENDBRANCH  12  13
ENDBRANCH  11  12
ENDBRANCH   1  11
TORSDOF 6
ENDMDL
MODEL 5
REMARK VINA RESULT:      -4.9      2.957      6.266
REMARK  6 active torsions:
REMARK  status: ('A' for Active; 'I' for Inactive)
REMARK    1  A    between atoms: C_2  and  C_3 
REMARK    2  A    between atoms: C_3  and  N_4 
REMARK    3  A    between atoms: C_3  and  C_14 
REMARK    4  A    between atoms: N_4  and  C_5 
REMARK    5  A    between atoms: C_5  and  C_6 
REMARK    6  A    between atoms: C_6  and  N_7 
REMARK       I    between atoms: C_14  and  N_16 
ROOT
HETATM    1  N   UNL     1     -43.439 -48.208   9.925  1.00  0.00     0.098 N 
HETATM    2  H   UNL     1     -42.767 -48.369   9.172  1.00  0.00     0.317 HD
ENDROOT
BRANCH   1   3
HETATM    3  C   UNL     1     -44.465 -47.249   9.421  1.00  0.00     0.310 C 
BRANCH   3   4
HETATM    4  C   UNL     1     -45.544 -47.840   8.493  1.00  0.00     0.041 C 
HETATM    5  C   UNL     1     -46.837 -48.215   9.200  1.00  0.00     0.007 C 
ENDBRANCH   3   4
BRANCH   3   6
HETATM    6  C   UNL     1     -43.782 -46.031   8.756  1.00  0.00     0.248 C 
HETATM    7  O   UNL     1     -43.987 -44.861   9.057  1.00  0.00    -0.271 OA
HETATM    8  N   UNL     1     -42.888 -46.350   7.772  1.00  0.00    -0.368 N 
HETATM    9  H   UNL     1     -42.938 -47.270   7.347  1.00  0.00     0.159 HD
HETATM   10  H   UNL     1     -42.513 -45.584   7.230  1.00  0.00     0.159 HD
ENDBRANCH   3   6
ENDBRANCH   1   3
BRANCH   1  11
HETATM   11  C   UNL     1     -42.707 -47.685  11.094  1.00  0.00     0.292 C 
BRANCH  11  12
HETATM   12  C   UNL     1     -41.362 -48.385  11.303  1.00  0.00     0.178 C 
BRANCH  12  13
HETATM   13  N   UNL     1     -41.577 -49.757  11.729  1.00  0.00    -0.302 N 
HETATM   14  C   UNL     1     -42.423 -50.185  12.713  1.00  0.00     0.118 A 
HETATM   15  C   UNL     1     -42.184 -51.535  12.867  1.00  0.00    -0.028 A 
HETATM   16  C   UNL     1     -42.806 -52.475  13.823  1.00  0.00     0.051 C 
HETATM   17  C   UNL     1     -41.188 -51.819  11.906  1.00  0.00     0.115 A 
HETATM   18  N   UNL     1     -40.822 -50.741  11.209  1.00  0.00    -0.310 N 
ATOM     19  HN  UNL     1     -40.134 -50.677  10.459  1.00  0.00     0.186 HD
ENDBRANCH  12  13
ENDBRANCH  11  12
ENDBRANCH   1  11
TORSDOF 6
ENDMDL
MODEL 6
REMARK VINA RESULT:      -4.9      3.539      4.505
REMARK  6 active torsions:
REMARK  status: ('A' for Active; 'I' for Inactive)
REMARK    1  A    between atoms: C_2  and  C_3 
REMARK    2  A    between atoms: C_3  and  N_4 
REMARK    3  A    between atoms: C_3  and  C_14 
REMARK    4  A    between atoms: N_4  and  C_5 
REMARK    5  A    between atoms: C_5  and  C_6 
REMARK    6  A    between atoms: C_6  and  N_7 
REMARK       I    between atoms: C_14  and  N_16 
ROOT
HETATM    1  N   UNL     1     -39.789 -49.954  11.103  1.00  0.00     0.098 N 
HETATM    2  H   UNL     1     -39.620 -50.668  10.391  1.00  0.00     0.317 HD
ENDROOT
BRANCH   1   3
HETATM    3  C   UNL     1     -38.716 -50.077  12.133  1.00  0.00     0.310 C 
BRANCH   3   4
HETATM    4  C   UNL     1     -38.394 -48.796  12.927  1.00  0.00     0.041 C 
HETATM    5  C   UNL     1     -38.418 -48.976  14.437  1.00  0.00     0.007 C 
ENDBRANCH   3   4
BRANCH   3   6
HETATM    6  C   UNL     1     -37.433 -50.667  11.505  1.00  0.00     0.248 C 
HETATM    7  O   UNL     1     -36.741 -51.541  12.013  1.00  0.00    -0.271 OA
HETATM    8  N   UNL     1     -37.102 -50.138  10.289  1.00  0.00    -0.368 N 
HETATM    9  H   UNL     1     -37.501 -49.245  10.021  1.00  0.00     0.159 HD
HETATM   10  H   UNL     1     -36.206 -50.405   9.902  1.00  0.00     0.159 HD
ENDBRANCH   3   6
ENDBRANCH   1   3
BRANCH   1  11
HETATM   11  C   UNL     1     -41.136 -50.171  11.665  1.00  0.00     0.292 C 
BRANCH  11  12
HETATM   12  C   UNL     1     -41.320 -51.591  12.210  1.00  0.00     0.178 C 
BRANCH  12  13
HETATM   13  N   UNL     1     -42.727 -51.846  12.465  1.00  0.00    -0.302 N 
HETATM   14  C   UNL     1     -43.575 -51.081  13.216  1.00  0.00     0.118 A 
HETATM   15  C   UNL     1     -44.758 -51.785  13.299  1.00  0.00    -0.028 A 
HETATM   16  C   UNL     1     -45.993 -51.422  14.025  1.00  0.00     0.051 C 
HETATM   17  C   UNL     1     -44.517 -52.953  12.541  1.00  0.00     0.115 A 
HETATM   18  N   UNL     1     -43.285 -52.988  12.027  1.00  0.00    -0.310 N 
ATOM     19  HN  UNL     1     -42.866 -53.711  11.442  1.00  0.00     0.186 HD
ENDBRANCH  12  13
ENDBRANCH  11  12
ENDBRANCH   1  11
TORSDOF 6
ENDMDL
MODEL 7
REMARK VINA RESULT:      -4.9      4.679      6.167
REMARK  6 active torsions:
REMARK  status: ('A' for Active; 'I' for Inactive)
REMARK    1  A    between atoms: C_2  and  C_3 
REMARK    2  A    between atoms: C_3  and  N_4 
REMARK    3  A    between atoms: C_3  and  C_14 
REMARK    4  A    between atoms: N_4  and  C_5 
REMARK    5  A    between atoms: C_5  and  C_6 
REMARK    6  A    between atoms: C_6  and  N_7 
REMARK       I    between atoms: C_14  and  N_16 
ROOT
HETATM    1  N   UNL     1     -42.843 -53.756  14.442  1.00  0.00     0.098 N 
HETATM    2  H   UNL     1     -43.313 -52.848  14.475  1.00  0.00     0.317 HD
ENDROOT
BRANCH   1   3
HETATM    3  C   UNL     1     -42.078 -53.825  13.162  1.00  0.00     0.310 C 
BRANCH   3   4
HETATM    4  C   UNL     1     -40.581 -54.166  13.290  1.00  0.00     0.041 C 
HETATM    5  C   UNL     1     -40.116 -54.405  14.719  1.00  0.00     0.007 C 
ENDBRANCH   3   4
BRANCH   3   6
HETATM    6  C   UNL     1     -42.274 -52.526  12.348  1.00  0.00     0.248 C 
HETATM    7  O   UNL     1     -43.107 -51.662  12.596  1.00  0.00    -0.271 OA
HETATM    8  N   UNL     1     -41.421 -52.386  11.289  1.00  0.00    -0.368 N 
HETATM    9  H   UNL     1     -40.948 -53.209  10.932  1.00  0.00     0.159 HD
HETATM   10  H   UNL     1     -41.596 -51.614  10.660  1.00  0.00     0.159 HD
ENDBRANCH   3   6
ENDBRANCH   1   3
BRANCH   1  11
HETATM   11  C   UNL     1     -43.870 -54.811  14.541  1.00  0.00     0.292 C 
BRANCH  11  12
HETATM   12  C   UNL     1     -45.116 -54.495  13.709  1.00  0.00     0.178 C 
BRANCH  12  13
HETATM   13  N   UNL     1     -45.759 -53.295  14.214  1.00  0.00    -0.302 N 
HETATM   14  C   UNL     1     -46.320 -53.125  15.449  1.00  0.00     0.118 A 
HETATM   15  C   UNL     1     -46.936 -51.891  15.426  1.00  0.00    -0.028 A 
HETATM   16  C   UNL     1     -47.720 -51.236  16.495  1.00  0.00     0.051 C 
HETATM   17  C   UNL     1     -46.663 -51.395  14.132  1.00  0.00     0.115 A 
HETATM   18  N   UNL     1     -45.942 -52.244  13.396  1.00  0.00    -0.310 N 
ATOM     19  HN  UNL     1     -45.608 -52.124  12.440  1.00  0.00     0.186 HD
ENDBRANCH  12  13
ENDBRANCH  11  12
ENDBRANCH   1  11
TORSDOF 6
ENDMDL
MODEL 8
REMARK VINA RESULT:      -4.9      2.273      3.133
REMARK  6 active torsions:
REMARK  status: ('A' for Active; 'I' for Inactive)
REMARK    1  A    between atoms: C_2  and  C_3 
REMARK    2  A    between atoms: C_3  and  N_4 
REMARK    3  A    between atoms: C_3  and  C_14 
REMARK    4  A    between atoms: N_4  and  C_5 
REMARK    5  A    between atoms: C_5  and  C_6 
REMARK    6  A    between atoms: C_6  and  N_7 
REMARK       I    between atoms: C_14  and  N_16 
ROOT
HETATM    1  N   UNL     1     -40.825 -49.959  11.099  1.00  0.00     0.098 N 
HETATM    2  H   UNL     1     -41.352 -50.646  10.556  1.00  0.00     0.317 HD
ENDROOT
BRANCH   1   3
HETATM    3  C   UNL     1     -40.291 -50.648  12.310  1.00  0.00     0.310 C 
BRANCH   3   4
HETATM    4  C   UNL     1     -38.833 -50.321  12.684  1.00  0.00     0.041 C 
HETATM    5  C   UNL     1     -37.940 -50.006  11.493  1.00  0.00     0.007 C 
ENDBRANCH   3   4
BRANCH   3   6
HETATM    6  C   UNL     1     -40.493 -52.176  12.191  1.00  0.00     0.248 C 
HETATM    7  O   UNL     1     -39.940 -53.014  12.894  1.00  0.00    -0.271 OA
HETATM    8  N   UNL     1     -41.372 -52.558  11.216  1.00  0.00    -0.368 N 
HETATM    9  H   UNL     1     -41.594 -51.901  10.476  1.00  0.00     0.159 HD
HETATM   10  H   UNL     1     -41.439 -53.549  11.023  1.00  0.00     0.159 HD
ENDBRANCH   3   6
ENDBRANCH   1   3
BRANCH   1  11
HETATM   11  C   UNL     1     -41.732 -48.846  11.440  1.00  0.00     0.292 C 
BRANCH  11  12
HETATM   12  C   UNL     1     -41.916 -47.865  10.279  1.00  0.00     0.178 C 
BRANCH  12  13
HETATM   13  N   UNL     1     -41.256 -46.607  10.583  1.00  0.00    -0.302 N 
HETATM   14  C   UNL     1     -41.858 -45.425  10.913  1.00  0.00     0.118 A 
HETATM   15  C   UNL     1     -40.853 -44.482  10.965  1.00  0.00    -0.028 A 
HETATM   16  C   UNL     1     -40.965 -43.035  11.245  1.00  0.00     0.051 C 
HETATM   17  C   UNL     1     -39.680 -45.212  10.670  1.00  0.00     0.115 A 
HETATM   18  N   UNL     1     -39.922 -46.506  10.445  1.00  0.00    -0.310 N 
ATOM     19  HN  UNL     1     -39.254 -47.243  10.220  1.00  0.00     0.186 HD
ENDBRANCH  12  13
ENDBRANCH  11  12
ENDBRANCH   1  11
TORSDOF 6
ENDMDL
MODEL 9
REMARK VINA RESULT:      -4.8      4.489      5.556
REMARK  6 active torsions:
REMARK  status: ('A' for Active; 'I' for Inactive)
REMARK    1  A    between atoms: C_2  and  C_3 
REMARK    2  A    between atoms: C_3  and  N_4 
REMARK    3  A    between atoms: C_3  and  C_14 
REMARK    4  A    between atoms: N_4  and  C_5 
REMARK    5  A    between atoms: C_5  and  C_6 
REMARK    6  A    between atoms: C_6  and  N_7 
REMARK       I    between atoms: C_14  and  N_16 
ROOT
HETATM    1  N   UNL     1     -39.138 -51.081  13.686  1.00  0.00     0.098 N 
HETATM    2  H   UNL     1     -39.183 -50.944  14.698  1.00  0.00     0.317 HD
ENDROOT
BRANCH   1   3
HETATM    3  C   UNL     1     -38.115 -50.139  13.145  1.00  0.00     0.310 C 
BRANCH   3   4
HETATM    4  C   UNL     1     -38.615 -48.722  12.806  1.00  0.00     0.041 C 
HETATM    5  C   UNL     1     -38.400 -47.703  13.915  1.00  0.00     0.007 C 
ENDBRANCH   3   4
BRANCH   3   6
HETATM    6  C   UNL     1     -37.395 -50.768  11.930  1.00  0.00     0.248 C 
HETATM    7  O   UNL     1     -36.739 -51.803  11.962  1.00  0.00    -0.271 OA
HETATM    8  N   UNL     1     -37.545 -50.077  10.761  1.00  0.00    -0.368 N 
HETATM    9  H   UNL     1     -37.835 -49.106  10.802  1.00  0.00     0.159 HD
HETATM   10  H   UNL     1     -36.991 -50.385   9.973  1.00  0.00     0.159 HD
ENDBRANCH   3   6
ENDBRANCH   1   3
BRANCH   1  11
HETATM   11  C   UNL     1     -40.480 -50.835  13.125  1.00  0.00     0.292 C 
BRANCH  11  12
HETATM   12  C   UNL     1     -40.896 -51.907  12.113  1.00  0.00     0.178 C 
BRANCH  12  13
HETATM   13  N   UNL     1     -41.988 -52.699  12.650  1.00  0.00    -0.302 N 
HETATM   14  C   UNL     1     -41.966 -53.461  13.784  1.00  0.00     0.118 A 
HETATM   15  C   UNL     1     -43.164 -54.145  13.813  1.00  0.00    -0.028 A 
HETATM   16  C   UNL     1     -43.636 -55.130  14.808  1.00  0.00     0.051 C 
HETATM   17  C   UNL     1     -43.841 -53.701  12.655  1.00  0.00     0.115 A 
HETATM   18  N   UNL     1     -43.130 -52.817  11.950  1.00  0.00    -0.310 N 
ATOM     19  HN  UNL     1     -43.391 -52.343  11.086  1.00  0.00     0.186 HD
ENDBRANCH  12  13
ENDBRANCH  11  12
ENDBRANCH   1  11
TORSDOF 6
ENDMDL
