MODEL 1
REMARK VINA RESULT:      -6.2      0.000      0.000
REMARK  7 active torsions:
REMARK  status: ('A' for Active; 'I' for Inactive)
REMARK    1  A    between atoms: N_11  and  C_12 
REMARK    2  A    between atoms: C_12  and  C_13 
REMARK    3  A    between atoms: C_13  and  O_14 
REMARK    4  A    between atoms: C_13  and  C_15 
REMARK    5  A    between atoms: C_15  and  O_16 
REMARK    6  A    between atoms: O_16  and  C_17 
REMARK    7  A    between atoms: C_17  and  C_18 
ROOT
HETATM    1  C   UNL     1     -40.270 -51.780  13.193  1.00  0.00     0.164 C 
ENDROOT
BRANCH   1   2
HETATM    2  N   UNL     1     -40.133 -50.512  12.494  1.00  0.00    -0.332 N 
HETATM    3  C   UNL     1     -38.975 -50.023  11.920  1.00  0.00     0.080 A 
HETATM    4  C   UNL     1     -37.653 -50.693  12.004  1.00  0.00     0.089 C 
HETATM    5  N   UNL     1     -39.210 -48.898  11.279  1.00  0.00    -0.344 N 
HETATM    6  C   UNL     1     -40.548 -48.649  11.430  1.00  0.00     0.060 A 
ATOM      7  HN  UNL     1     -38.533 -48.327  10.772  1.00  0.00     0.167 HD
HETATM    8  C   UNL     1     -41.315 -47.585  10.932  1.00  0.00     0.032 A 
HETATM    9  C   UNL     1     -41.159 -49.643  12.190  1.00  0.00     0.062 A 
HETATM   10  C   UNL     1     -42.684 -47.547  11.218  1.00  0.00     0.002 A 
HETATM   11  C   UNL     1     -43.278 -48.550  11.985  1.00  0.00     0.002 A 
HETATM   12  C   UNL     1     -42.529 -49.623  12.486  1.00  0.00     0.032 A 
ENDBRANCH   1   2
BRANCH   1  13
HETATM   13  C   UNL     1     -41.147 -52.803  12.451  1.00  0.00     0.160 C 
BRANCH  13  14
HETATM   14  O   UNL     1     -40.494 -53.331  11.293  1.00  0.00    -0.392 OA
HETATM   15  H   UNL     1     -41.153 -53.756  10.719  1.00  0.00     0.210 HD
ENDBRANCH  13  14
BRANCH  13  16
HETATM   16  C   UNL     1     -41.523 -53.972  13.374  1.00  0.00     0.201 C 
BRANCH  16  17
HETATM   17  O   UNL     1     -42.865 -53.813  13.816  1.00  0.00    -0.382 OA
BRANCH  17  18
HETATM   18  C   UNL     1     -43.809 -53.979  12.757  1.00  0.00     0.232 C 
BRANCH  18  19
HETATM   19  C   UNL     1     -44.869 -52.965  12.973  1.00  0.00     0.076 A 
HETATM   20  C   UNL     1     -45.110 -52.041  13.970  1.00  0.00     0.037 A 
HETATM   21  C   UNL     1     -46.295 -51.360  13.608  1.00  0.00     0.027 A 
HETATM   22  C   UNL     1     -46.696 -51.902  12.410  1.00  0.00     0.142 A 
HETATM   23  O   UNL     1     -45.836 -52.875  12.014  1.00  0.00    -0.325 OA
ENDBRANCH  18  19
ENDBRANCH  17  18
ENDBRANCH  16  17
ENDBRANCH  13  16
ENDBRANCH   1  13
TORSDOF 7
ENDMDL
MODEL 2
REMARK VINA RESULT:      -5.7      2.323      5.851
REMARK  7 active torsions:
REMARK  status: ('A' for Active; 'I' for Inactive)
REMARK    1  A    between atoms: N_11  and  C_12 
REMARK    2  A    between atoms: C_12  and  C_13 
REMARK    3  A    between atoms: C_13  and  O_14 
REMARK    4  A    between atoms: C_13  and  C_15 
REMARK    5  A    between atoms: C_15  and  O_16 
REMARK    6  A    between atoms: O_16  and  C_17 
REMARK    7  A    between atoms: C_17  and  C_18 
ROOT
HETATM    1  C   UNL     1     -42.334 -51.986  12.152  1.00  0.00     0.164 C 
ENDROOT
BRANCH   1   2
HETATM    2  N   UNL     1     -43.383 -51.917  13.156  1.00  0.00    -0.332 N 
HETATM    3  C   UNL     1     -43.787 -50.780  13.830  1.00  0.00     0.080 A 
HETATM    4  C   UNL     1     -43.143 -49.450  13.687  1.00  0.00     0.089 C 
HETATM    5  N   UNL     1     -44.825 -51.036  14.597  1.00  0.00    -0.344 N 
HETATM    6  C   UNL     1     -45.111 -52.362  14.417  1.00  0.00     0.060 A 
ATOM      7  HN  UNL     1     -45.317 -50.378  15.203  1.00  0.00     0.167 HD
HETATM    8  C   UNL     1     -46.130 -53.137  14.990  1.00  0.00     0.032 A 
HETATM    9  C   UNL     1     -44.223 -52.948  13.519  1.00  0.00     0.062 A 
HETATM   10  C   UNL     1     -46.228 -54.489  14.645  1.00  0.00     0.002 A 
HETATM   11  C   UNL     1     -45.325 -55.060  13.746  1.00  0.00     0.002 A 
HETATM   12  C   UNL     1     -44.305 -54.301  13.160  1.00  0.00     0.032 A 
ENDBRANCH   1   2
BRANCH   1  13
HETATM   13  C   UNL     1     -41.026 -52.614  12.665  1.00  0.00     0.160 C 
BRANCH  13  14
HETATM   14  O   UNL     1     -40.541 -53.634  11.788  1.00  0.00    -0.392 OA
HETATM   15  H   UNL     1     -40.401 -54.452  12.296  1.00  0.00     0.210 HD
ENDBRANCH  13  14
BRANCH  13  16
HETATM   16  C   UNL     1     -39.933 -51.545  12.822  1.00  0.00     0.201 C 
BRANCH  16  17
HETATM   17  O   UNL     1     -40.051 -50.591  11.775  1.00  0.00    -0.382 OA
BRANCH  17  18
HETATM   18  C   UNL     1     -39.543 -49.309  12.147  1.00  0.00     0.232 C 
BRANCH  18  19
HETATM   19  C   UNL     1     -40.401 -48.303  11.475  1.00  0.00     0.076 A 
HETATM   20  C   UNL     1     -40.403 -46.923  11.449  1.00  0.00     0.037 A 
HETATM   21  C   UNL     1     -41.487 -46.539  10.626  1.00  0.00     0.027 A 
HETATM   22  C   UNL     1     -42.072 -47.706  10.195  1.00  0.00     0.142 A 
HETATM   23  O   UNL     1     -41.418 -48.783  10.702  1.00  0.00    -0.325 OA
ENDBRANCH  18  19
ENDBRANCH  17  18
ENDBRANCH  16  17
ENDBRANCH  13  16
ENDBRANCH   1  13
TORSDOF 7
ENDMDL
MODEL 3
REMARK VINA RESULT:      -5.6      2.756      6.184
REMARK  7 active torsions:
REMARK  status: ('A' for Active; 'I' for Inactive)
REMARK    1  A    between atoms: N_11  and  C_12 
REMARK    2  A    between atoms: C_12  and  C_13 
REMARK    3  A    between atoms: C_13  and  O_14 
REMARK    4  A    between atoms: C_13  and  C_15 
REMARK    5  A    between atoms: C_15  and  O_16 
REMARK    6  A    between atoms: O_16  and  C_17 
REMARK    7  A    between atoms: C_17  and  C_18 
ROOT
HETATM    1  C   UNL     1     -42.527 -54.177  13.164  1.00  0.00     0.164 C 
ENDROOT
BRANCH   1   2
HETATM    2  N   UNL     1     -43.474 -53.854  14.218  1.00  0.00    -0.332 N 
HETATM    3  C   UNL     1     -43.382 -54.246  15.540  1.00  0.00     0.080 A 
HETATM    4  C   UNL     1     -42.326 -55.143  16.074  1.00  0.00     0.089 C 
HETATM    5  N   UNL     1     -44.344 -53.705  16.257  1.00  0.00    -0.344 N 
HETATM    6  C   UNL     1     -45.075 -52.938  15.390  1.00  0.00     0.060 A 
ATOM      7  HN  UNL     1     -44.510 -53.830  17.256  1.00  0.00     0.167 HD
HETATM    8  C   UNL     1     -46.201 -52.140  15.643  1.00  0.00     0.032 A 
HETATM    9  C   UNL     1     -44.558 -53.009  14.099  1.00  0.00     0.062 A 
HETATM   10  C   UNL     1     -46.781 -51.434  14.584  1.00  0.00     0.002 A 
HETATM   11  C   UNL     1     -46.252 -51.522  13.296  1.00  0.00     0.002 A 
HETATM   12  C   UNL     1     -45.125 -52.309  13.026  1.00  0.00     0.032 A 
ENDBRANCH   1   2
BRANCH   1  13
HETATM   13  C   UNL     1     -41.400 -53.142  13.007  1.00  0.00     0.160 C 
BRANCH  13  14
HETATM   14  O   UNL     1     -40.129 -53.761  12.793  1.00  0.00    -0.392 OA
HETATM   15  H   UNL     1     -39.758 -53.449  11.950  1.00  0.00     0.210 HD
ENDBRANCH  13  14
BRANCH  13  16
HETATM   16  C   UNL     1     -41.686 -52.197  11.829  1.00  0.00     0.201 C 
BRANCH  16  17
HETATM   17  O   UNL     1     -41.520 -50.850  12.253  1.00  0.00    -0.382 OA
BRANCH  17  18
HETATM   18  C   UNL     1     -40.526 -50.160  11.495  1.00  0.00     0.232 C 
BRANCH  18  19
HETATM   19  C   UNL     1     -39.297 -50.142  12.325  1.00  0.00     0.076 A 
HETATM   20  C   UNL     1     -38.745 -49.214  13.184  1.00  0.00     0.037 A 
HETATM   21  C   UNL     1     -37.546 -49.783  13.673  1.00  0.00     0.027 A 
HETATM   22  C   UNL     1     -37.447 -51.023  13.090  1.00  0.00     0.142 A 
HETATM   23  O   UNL     1     -38.506 -51.253  12.272  1.00  0.00    -0.325 OA
ENDBRANCH  18  19
ENDBRANCH  17  18
ENDBRANCH  16  17
ENDBRANCH  13  16
ENDBRANCH   1  13
TORSDOF 7
ENDMDL
MODEL 4
REMARK VINA RESULT:      -5.6      2.050      3.256
REMARK  7 active torsions:
REMARK  status: ('A' for Active; 'I' for Inactive)
REMARK    1  A    between atoms: N_11  and  C_12 
REMARK    2  A    between atoms: C_12  and  C_13 
REMARK    3  A    between atoms: C_13  and  O_14 
REMARK    4  A    between atoms: C_13  and  C_15 
REMARK    5  A    between atoms: C_15  and  O_16 
REMARK    6  A    between atoms: O_16  and  C_17 
REMARK    7  A    between atoms: C_17  and  C_18 
ROOT
HETATM    1  C   UNL     1     -42.223 -51.817  13.655  1.00  0.00     0.164 C 
ENDROOT
BRANCH   1   2
HETATM    2  N   UNL     1     -40.769 -51.837  13.690  1.00  0.00    -0.332 N 
HETATM    3  C   UNL     1     -39.986 -52.812  14.278  1.00  0.00     0.080 A 
HETATM    4  C   UNL     1     -40.521 -53.962  15.049  1.00  0.00     0.089 C 
HETATM    5  N   UNL     1     -38.709 -52.589  14.048  1.00  0.00    -0.344 N 
HETATM    6  C   UNL     1     -38.656 -51.451  13.288  1.00  0.00     0.060 A 
ATOM      7  HN  UNL     1     -37.920 -53.150  14.369  1.00  0.00     0.167 HD
HETATM    8  C   UNL     1     -37.539 -50.787  12.760  1.00  0.00     0.032 A 
HETATM    9  C   UNL     1     -39.933 -50.950  13.045  1.00  0.00     0.062 A 
HETATM   10  C   UNL     1     -37.737 -49.630  12.000  1.00  0.00     0.002 A 
HETATM   11  C   UNL     1     -39.024 -49.140  11.771  1.00  0.00     0.002 A 
HETATM   12  C   UNL     1     -40.151 -49.793  12.286  1.00  0.00     0.032 A 
ENDBRANCH   1   2
BRANCH   1  13
HETATM   13  C   UNL     1     -42.822 -52.571  12.455  1.00  0.00     0.160 C 
BRANCH  13  14
HETATM   14  O   UNL     1     -41.876 -52.731  11.394  1.00  0.00    -0.392 OA
HETATM   15  H   UNL     1     -40.976 -52.660  11.755  1.00  0.00     0.210 HD
ENDBRANCH  13  14
BRANCH  13  16
HETATM   16  C   UNL     1     -43.321 -53.961  12.877  1.00  0.00     0.201 C 
BRANCH  16  17
HETATM   17  O   UNL     1     -44.695 -54.093  12.539  1.00  0.00    -0.382 OA
BRANCH  17  18
HETATM   18  C   UNL     1     -45.487 -54.545  13.639  1.00  0.00     0.232 C 
BRANCH  18  19
HETATM   19  C   UNL     1     -46.074 -53.336  14.262  1.00  0.00     0.076 A 
HETATM   20  C   UNL     1     -46.402 -52.084  13.782  1.00  0.00     0.037 A 
HETATM   21  C   UNL     1     -46.924 -51.357  14.877  1.00  0.00     0.027 A 
HETATM   22  C   UNL     1     -46.891 -52.213  15.953  1.00  0.00     0.142 A 
HETATM   23  O   UNL     1     -46.380 -53.417  15.590  1.00  0.00    -0.325 OA
ENDBRANCH  18  19
ENDBRANCH  17  18
ENDBRANCH  16  17
ENDBRANCH  13  16
ENDBRANCH   1  13
TORSDOF 7
ENDMDL
MODEL 5
REMARK VINA RESULT:      -5.6      2.593      5.567
REMARK  7 active torsions:
REMARK  status: ('A' for Active; 'I' for Inactive)
REMARK    1  A    between atoms: N_11  and  C_12 
REMARK    2  A    between atoms: C_12  and  C_13 
REMARK    3  A    between atoms: C_13  and  O_14 
REMARK    4  A    between atoms: C_13  and  C_15 
REMARK    5  A    between atoms: C_15  and  O_16 
REMARK    6  A    between atoms: O_16  and  C_17 
REMARK    7  A    between atoms: C_17  and  C_18 
ROOT
HETATM    1  C   UNL     1     -42.529 -54.130  13.051  1.00  0.00     0.164 C 
ENDROOT
BRANCH   1   2
HETATM    2  N   UNL     1     -43.471 -53.862  14.126  1.00  0.00    -0.332 N 
HETATM    3  C   UNL     1     -43.380 -54.334  15.421  1.00  0.00     0.080 A 
HETATM    4  C   UNL     1     -42.331 -55.270  15.898  1.00  0.00     0.089 C 
HETATM    5  N   UNL     1     -44.335 -53.827  16.172  1.00  0.00    -0.344 N 
HETATM    6  C   UNL     1     -45.061 -53.004  15.354  1.00  0.00     0.060 A 
ATOM      7  HN  UNL     1     -44.500 -54.011  17.162  1.00  0.00     0.167 HD
HETATM    8  C   UNL     1     -46.179 -52.212  15.657  1.00  0.00     0.032 A 
HETATM    9  C   UNL     1     -44.547 -53.002  14.060  1.00  0.00     0.062 A 
HETATM   10  C   UNL     1     -46.756 -51.439  14.644  1.00  0.00     0.002 A 
HETATM   11  C   UNL     1     -46.230 -51.455  13.351  1.00  0.00     0.002 A 
HETATM   12  C   UNL     1     -45.110 -52.234  13.032  1.00  0.00     0.032 A 
ENDBRANCH   1   2
BRANCH   1  13
HETATM   13  C   UNL     1     -41.313 -53.186  13.045  1.00  0.00     0.160 C 
BRANCH  13  14
HETATM   14  O   UNL     1     -40.098 -53.879  12.747  1.00  0.00    -0.392 OA
HETATM   15  H   UNL     1     -39.494 -53.279  12.279  1.00  0.00     0.210 HD
ENDBRANCH  13  14
BRANCH  13  16
HETATM   16  C   UNL     1     -41.500 -52.063  12.014  1.00  0.00     0.201 C 
BRANCH  16  17
HETATM   17  O   UNL     1     -41.718 -50.832  12.690  1.00  0.00    -0.382 OA
BRANCH  17  18
HETATM   18  C   UNL     1     -40.970 -49.757  12.120  1.00  0.00     0.232 C 
BRANCH  18  19
HETATM   19  C   UNL     1     -41.952 -48.858  11.468  1.00  0.00     0.076 A 
HETATM   20  C   UNL     1     -43.177 -48.352  11.852  1.00  0.00     0.037 A 
HETATM   21  C   UNL     1     -43.635 -47.550  10.781  1.00  0.00     0.027 A 
HETATM   22  C   UNL     1     -42.658 -47.609   9.816  1.00  0.00     0.142 A 
HETATM   23  O   UNL     1     -41.630 -48.397  10.224  1.00  0.00    -0.325 OA
ENDBRANCH  18  19
ENDBRANCH  17  18
ENDBRANCH  16  17
ENDBRANCH  13  16
ENDBRANCH   1  13
TORSDOF 7
ENDMDL
MODEL 6
REMARK VINA RESULT:      -5.4      3.351      5.678
REMARK  7 active torsions:
REMARK  status: ('A' for Active; 'I' for Inactive)
REMARK    1  A    between atoms: N_11  and  C_12 
REMARK    2  A    between atoms: C_12  and  C_13 
REMARK    3  A    between atoms: C_13  and  O_14 
REMARK    4  A    between atoms: C_13  and  C_15 
REMARK    5  A    between atoms: C_15  and  O_16 
REMARK    6  A    between atoms: O_16  and  C_17 
REMARK    7  A    between atoms: C_17  and  C_18 
ROOT
HETATM    1  C   UNL     1     -42.507 -53.723  14.814  1.00  0.00     0.164 C 
ENDROOT
BRANCH   1   2
HETATM    2  N   UNL     1     -41.092 -54.054  14.831  1.00  0.00    -0.332 N 
HETATM    3  C   UNL     1     -40.107 -53.444  14.077  1.00  0.00     0.080 A 
HETATM    4  C   UNL     1     -40.364 -52.396  13.058  1.00  0.00     0.089 C 
HETATM    5  N   UNL     1     -38.918 -53.906  14.399  1.00  0.00    -0.344 N 
HETATM    6  C   UNL     1     -39.127 -54.831  15.387  1.00  0.00     0.060 A 
ATOM      7  HN  UNL     1     -38.022 -53.631  13.995  1.00  0.00     0.167 HD
HETATM    8  C   UNL     1     -38.192 -55.607  16.089  1.00  0.00     0.032 A 
HETATM    9  C   UNL     1     -40.482 -54.950  15.683  1.00  0.00     0.062 A 
HETATM   10  C   UNL     1     -38.649 -56.491  17.072  1.00  0.00     0.002 A 
HETATM   11  C   UNL     1     -40.013 -56.601  17.350  1.00  0.00     0.002 A 
HETATM   12  C   UNL     1     -40.959 -55.830  16.664  1.00  0.00     0.032 A 
ENDBRANCH   1   2
BRANCH   1  13
HETATM   13  C   UNL     1     -43.334 -54.589  13.848  1.00  0.00     0.160 C 
BRANCH  13  14
HETATM   14  O   UNL     1     -44.436 -55.222  14.505  1.00  0.00    -0.392 OA
HETATM   15  H   UNL     1     -44.838 -54.596  15.131  1.00  0.00     0.210 HD
ENDBRANCH  13  14
BRANCH  13  16
HETATM   16  C   UNL     1     -43.878 -53.745  12.686  1.00  0.00     0.201 C 
BRANCH  16  17
HETATM   17  O   UNL     1     -45.273 -53.979  12.544  1.00  0.00    -0.382 OA
BRANCH  17  18
HETATM   18  C   UNL     1     -46.022 -52.767  12.449  1.00  0.00     0.232 C 
BRANCH  18  19
HETATM   19  C   UNL     1     -46.376 -52.379  13.835  1.00  0.00     0.076 A 
HETATM   20  C   UNL     1     -46.504 -51.164  14.477  1.00  0.00     0.037 A 
HETATM   21  C   UNL     1     -46.859 -51.452  15.815  1.00  0.00     0.027 A 
HETATM   22  C   UNL     1     -46.936 -52.822  15.903  1.00  0.00     0.142 A 
HETATM   23  O   UNL     1     -46.648 -53.394  14.706  1.00  0.00    -0.325 OA
ENDBRANCH  18  19
ENDBRANCH  17  18
ENDBRANCH  16  17
ENDBRANCH  13  16
ENDBRANCH   1  13
TORSDOF 7
ENDMDL
MODEL 7
REMARK VINA RESULT:      -5.2      2.497      4.185
REMARK  7 active torsions:
REMARK  status: ('A' for Active; 'I' for Inactive)
REMARK    1  A    between atoms: N_11  and  C_12 
REMARK    2  A    between atoms: C_12  and  C_13 
REMARK    3  A    between atoms: C_13  and  O_14 
REMARK    4  A    between atoms: C_13  and  C_15 
REMARK    5  A    between atoms: C_15  and  O_16 
REMARK    6  A    between atoms: O_16  and  C_17 
REMARK    7  A    between atoms: C_17  and  C_18 
ROOT
HETATM    1  C   UNL     1     -40.902 -53.234  12.303  1.00  0.00     0.164 C 
ENDROOT
BRANCH   1   2
HETATM    2  N   UNL     1     -42.021 -52.356  12.601  1.00  0.00    -0.332 N 
HETATM    3  C   UNL     1     -42.001 -50.975  12.564  1.00  0.00     0.080 A 
HETATM    4  C   UNL     1     -40.788 -50.164  12.292  1.00  0.00     0.089 C 
HETATM    5  N   UNL     1     -43.202 -50.483  12.786  1.00  0.00    -0.344 N 
HETATM    6  C   UNL     1     -44.025 -51.562  12.964  1.00  0.00     0.060 A 
ATOM      7  HN  UNL     1     -43.465 -49.498  12.819  1.00  0.00     0.167 HD
HETATM    8  C   UNL     1     -45.404 -51.595  13.216  1.00  0.00     0.032 A 
HETATM    9  C   UNL     1     -43.316 -52.756  12.855  1.00  0.00     0.062 A 
HETATM   10  C   UNL     1     -46.037 -52.834  13.357  1.00  0.00     0.002 A 
HETATM   11  C   UNL     1     -45.309 -54.021  13.250  1.00  0.00     0.002 A 
HETATM   12  C   UNL     1     -43.933 -54.008  12.993  1.00  0.00     0.032 A 
ENDBRANCH   1   2
BRANCH   1  13
HETATM   13  C   UNL     1     -40.340 -53.960  13.538  1.00  0.00     0.160 C 
BRANCH  13  14
HETATM   14  O   UNL     1     -39.090 -54.598  13.262  1.00  0.00    -0.392 OA
HETATM   15  H   UNL     1     -39.099 -55.496  13.634  1.00  0.00     0.210 HD
ENDBRANCH  13  14
BRANCH  13  16
HETATM   16  C   UNL     1     -40.141 -52.980  14.704  1.00  0.00     0.201 C 
BRANCH  16  17
HETATM   17  O   UNL     1     -40.524 -53.609  15.920  1.00  0.00    -0.382 OA
BRANCH  17  18
HETATM   18  C   UNL     1     -41.576 -54.558  15.735  1.00  0.00     0.232 C 
BRANCH  18  19
HETATM   19  C   UNL     1     -42.812 -53.924  16.252  1.00  0.00     0.076 A 
HETATM   20  C   UNL     1     -43.180 -52.615  16.488  1.00  0.00     0.037 A 
HETATM   21  C   UNL     1     -44.499 -52.654  16.996  1.00  0.00     0.027 A 
HETATM   22  C   UNL     1     -44.857 -53.981  17.028  1.00  0.00     0.142 A 
HETATM   23  O   UNL     1     -43.841 -54.760  16.575  1.00  0.00    -0.325 OA
ENDBRANCH  18  19
ENDBRANCH  17  18
ENDBRANCH  16  17
ENDBRANCH  13  16
ENDBRANCH   1  13
TORSDOF 7
ENDMDL
MODEL 8
REMARK VINA RESULT:      -5.1      3.352      6.757
REMARK  7 active torsions:
REMARK  status: ('A' for Active; 'I' for Inactive)
REMARK    1  A    between atoms: N_11  and  C_12 
REMARK    2  A    between atoms: C_12  and  C_13 
REMARK    3  A    between atoms: C_13  and  O_14 
REMARK    4  A    between atoms: C_13  and  C_15 
REMARK    5  A    between atoms: C_15  and  O_16 
REMARK    6  A    between atoms: O_16  and  C_17 
REMARK    7  A    between atoms: C_17  and  C_18 
ROOT
HETATM    1  C   UNL     1     -41.283 -49.636  12.521  1.00  0.00     0.164 C 
ENDROOT
BRANCH   1   2
HETATM    2  N   UNL     1     -40.287 -50.468  13.177  1.00  0.00    -0.332 N 
HETATM    3  C   UNL     1     -39.228 -50.016  13.940  1.00  0.00     0.080 A 
HETATM    4  C   UNL     1     -38.892 -48.584  14.139  1.00  0.00     0.089 C 
HETATM    5  N   UNL     1     -38.573 -51.024  14.475  1.00  0.00    -0.344 N 
HETATM    6  C   UNL     1     -39.220 -52.158  14.061  1.00  0.00     0.060 A 
ATOM      7  HN  UNL     1     -37.750 -50.972  15.076  1.00  0.00     0.167 HD
HETATM    8  C   UNL     1     -38.938 -53.499  14.356  1.00  0.00     0.032 A 
HETATM    9  C   UNL     1     -40.302 -51.845  13.242  1.00  0.00     0.062 A 
HETATM   10  C   UNL     1     -39.755 -54.497  13.814  1.00  0.00     0.002 A 
HETATM   11  C   UNL     1     -40.832 -54.165  12.991  1.00  0.00     0.002 A 
HETATM   12  C   UNL     1     -41.132 -52.831  12.690  1.00  0.00     0.032 A 
ENDBRANCH   1   2
BRANCH   1  13
HETATM   13  C   UNL     1     -40.788 -48.993  11.214  1.00  0.00     0.160 C 
BRANCH  13  14
HETATM   14  O   UNL     1     -40.515 -49.970  10.206  1.00  0.00    -0.392 OA
HETATM   15  H   UNL     1     -39.680 -49.746   9.760  1.00  0.00     0.210 HD
ENDBRANCH  13  14
BRANCH  13  16
HETATM   16  C   UNL     1     -41.826 -48.003  10.665  1.00  0.00     0.201 C 
BRANCH  16  17
HETATM   17  O   UNL     1     -41.191 -46.764  10.376  1.00  0.00    -0.382 OA
BRANCH  17  18
HETATM   18  C   UNL     1     -40.015 -46.559  11.160  1.00  0.00     0.232 C 
BRANCH  18  19
HETATM   19  C   UNL     1     -40.034 -45.140  11.589  1.00  0.00     0.076 A 
HETATM   20  C   UNL     1     -40.625 -44.002  11.078  1.00  0.00     0.037 A 
HETATM   21  C   UNL     1     -40.264 -42.941  11.940  1.00  0.00     0.027 A 
HETATM   22  C   UNL     1     -39.486 -43.498  12.927  1.00  0.00     0.142 A 
HETATM   23  O   UNL     1     -39.343 -44.834  12.725  1.00  0.00    -0.325 OA
ENDBRANCH  18  19
ENDBRANCH  17  18
ENDBRANCH  16  17
ENDBRANCH  13  16
ENDBRANCH   1  13
TORSDOF 7
ENDMDL
MODEL 9
REMARK VINA RESULT:      -5.0      1.801      3.077
REMARK  7 active torsions:
REMARK  status: ('A' for Active; 'I' for Inactive)
REMARK    1  A    between atoms: N_11  and  C_12 
REMARK    2  A    between atoms: C_12  and  C_13 
REMARK    3  A    between atoms: C_13  and  O_14 
REMARK    4  A    between atoms: C_13  and  C_15 
REMARK    5  A    between atoms: C_15  and  O_16 
REMARK    6  A    between atoms: O_16  and  C_17 
REMARK    7  A    between atoms: C_17  and  C_18 
ROOT
HETATM    1  C   UNL     1     -40.863 -52.089  14.153  1.00  0.00     0.164 C 
ENDROOT
BRANCH   1   2
HETATM    2  N   UNL     1     -40.459 -50.728  13.839  1.00  0.00    -0.332 N 
HETATM    3  C   UNL     1     -41.235 -49.779  13.202  1.00  0.00     0.080 A 
HETATM    4  C   UNL     1     -42.592 -50.035  12.659  1.00  0.00     0.089 C 
HETATM    5  N   UNL     1     -40.613 -48.619  13.160  1.00  0.00    -0.344 N 
HETATM    6  C   UNL     1     -39.412 -48.811  13.787  1.00  0.00     0.060 A 
ATOM      7  HN  UNL     1     -40.958 -47.753  12.745  1.00  0.00     0.167 HD
HETATM    8  C   UNL     1     -38.378 -47.893  14.026  1.00  0.00     0.032 A 
HETATM    9  C   UNL     1     -39.280 -50.126  14.225  1.00  0.00     0.062 A 
HETATM   10  C   UNL     1     -37.231 -48.327  14.700  1.00  0.00     0.002 A 
HETATM   11  C   UNL     1     -37.115 -49.650  15.128  1.00  0.00     0.002 A 
HETATM   12  C   UNL     1     -38.140 -50.579  14.903  1.00  0.00     0.032 A 
ENDBRANCH   1   2
BRANCH   1  13
HETATM   13  C   UNL     1     -40.507 -53.109  13.057  1.00  0.00     0.160 C 
BRANCH  13  14
HETATM   14  O   UNL     1     -39.263 -53.764  13.318  1.00  0.00    -0.392 OA
HETATM   15  H   UNL     1     -38.700 -53.181  13.855  1.00  0.00     0.210 HD
ENDBRANCH  13  14
BRANCH  13  16
HETATM   16  C   UNL     1     -41.604 -54.177  12.928  1.00  0.00     0.201 C 
BRANCH  16  17
HETATM   17  O   UNL     1     -42.790 -53.714  13.560  1.00  0.00    -0.382 OA
BRANCH  17  18
HETATM   18  C   UNL     1     -43.971 -54.128  12.871  1.00  0.00     0.232 C 
BRANCH  18  19
HETATM   19  C   UNL     1     -44.976 -53.057  13.073  1.00  0.00     0.076 A 
HETATM   20  C   UNL     1     -45.240 -52.187  14.112  1.00  0.00     0.037 A 
HETATM   21  C   UNL     1     -46.342 -51.399  13.706  1.00  0.00     0.027 A 
HETATM   22  C   UNL     1     -46.674 -51.830  12.444  1.00  0.00     0.142 A 
HETATM   23  O   UNL     1     -45.849 -52.833  12.048  1.00  0.00    -0.325 OA
ENDBRANCH  18  19
ENDBRANCH  17  18
ENDBRANCH  16  17
ENDBRANCH  13  16
ENDBRANCH   1  13
TORSDOF 7
ENDMDL
