MODEL 1
REMARK VINA RESULT:      -5.6      0.000      0.000
REMARK  5 active torsions:
REMARK  status: ('A' for Active; 'I' for Inactive)
REMARK    1  A    between atoms: S_2  and  C_3 
REMARK    2  A    between atoms: C_3  and  C_5 
REMARK       I    between atoms: C_5  and  N_7 
REMARK    3  A    between atoms: N_7  and  C_8 
REMARK    4  A    between atoms: C_8  and  C_9 
REMARK    5  A    between atoms: C_12  and  N_16 
ROOT
HETATM    1  C   UNL     1     -41.332 -51.017  11.957  1.00  0.00    -0.025 A 
HETATM    2  C   UNL     1     -42.415 -50.672  12.756  1.00  0.00     0.014 A 
HETATM    3  C   UNL     1     -43.158 -51.673  13.386  1.00  0.00     0.049 A 
HETATM    4  C   UNL     1     -42.826 -53.020  13.227  1.00  0.00     0.103 A 
HETATM    5  N   UNL     1     -41.795 -53.356  12.420  1.00  0.00    -0.352 N 
ATOM      6  HN  UNL     1     -41.554 -54.336  12.270  1.00  0.00     0.166 HD
HETATM    7  C   UNL     1     -41.082 -52.372  11.810  1.00  0.00     0.098 A 
ENDROOT
BRANCH   1   8
HETATM    8  C   UNL     1     -40.482 -49.975  11.303  1.00  0.00     0.162 C 
BRANCH   8   9
HETATM    9  N   UNL     1     -41.246 -48.979  10.589  1.00  0.00    -0.356 N 
HETATM   10  C   UNL     1     -41.128 -47.650  10.953  1.00  0.00     0.231 C 
HETATM   11  O   UNL     1     -40.343 -47.279  11.822  1.00  0.00    -0.272 OA
HETATM   12  H   UNL     1     -42.069 -49.258  10.066  1.00  0.00     0.162 HD
BRANCH  10  13
HETATM   13  C   UNL     1     -42.011 -46.679  10.163  1.00  0.00     0.134 C 
HETATM   14  C   UNL     1     -42.112 -45.318  10.845  1.00  0.00     0.031 C 
BRANCH  13  15
HETATM   15  S   UNL     1     -43.666 -47.414   9.839  1.00  0.00    -0.160 SA
HETATM   16  C   UNL     1     -43.592 -47.642   8.042  1.00  0.00     0.090 C 
ENDBRANCH  13  15
ENDBRANCH  10  13
ENDBRANCH   8   9
ENDBRANCH   1   8
BRANCH   4  17
HETATM   17  N   UNL     1     -43.557 -54.021  13.833  1.00  0.00    -0.363 N 
HETATM   18  C   UNL     1     -44.868 -54.466  13.342  1.00  0.00     0.150 C 
HETATM   19  C   UNL     1     -45.975 -54.119  14.352  1.00  0.00     0.187 C 
HETATM   20  O   UNL     1     -45.681 -54.630  15.660  1.00  0.00    -0.388 OA
HETATM   21  C   UNL     1     -44.454 -54.055  16.144  1.00  0.00     0.187 C 
HETATM   22  C   UNL     1     -43.271 -54.399  15.226  1.00  0.00     0.150 C 
ENDBRANCH   4  17
TORSDOF 5
ENDMDL
MODEL 2
REMARK VINA RESULT:      -5.5      2.431      7.355
REMARK  5 active torsions:
REMARK  status: ('A' for Active; 'I' for Inactive)
REMARK    1  A    between atoms: S_2  and  C_3 
REMARK    2  A    between atoms: C_3  and  C_5 
REMARK       I    between atoms: C_5  and  N_7 
REMARK    3  A    between atoms: N_7  and  C_8 
REMARK    4  A    between atoms: C_8  and  C_9 
REMARK    5  A    between atoms: C_12  and  N_16 
ROOT
HETATM    1  C   UNL     1     -42.048 -50.609  12.759  1.00  0.00    -0.025 A 
HETATM    2  C   UNL     1     -43.053 -49.655  12.873  1.00  0.00     0.014 A 
HETATM    3  C   UNL     1     -43.100 -48.588  11.974  1.00  0.00     0.049 A 
HETATM    4  C   UNL     1     -42.152 -48.464  10.958  1.00  0.00     0.103 A 
HETATM    5  N   UNL     1     -41.154 -49.372  10.870  1.00  0.00    -0.352 N 
ATOM      6  HN  UNL     1     -40.437 -49.283  10.150  1.00  0.00     0.166 HD
HETATM    7  C   UNL     1     -41.118 -50.405  11.753  1.00  0.00     0.098 A 
ENDROOT
BRANCH   1   8
HETATM    8  C   UNL     1     -41.989 -51.793  13.671  1.00  0.00     0.162 C 
BRANCH   8   9
HETATM    9  N   UNL     1     -43.224 -52.030  14.380  1.00  0.00    -0.356 N 
HETATM   10  C   UNL     1     -44.041 -53.074  13.983  1.00  0.00     0.231 C 
HETATM   11  O   UNL     1     -43.718 -53.849  13.085  1.00  0.00    -0.272 OA
HETATM   12  H   UNL     1     -43.638 -51.285  14.931  1.00  0.00     0.162 HD
BRANCH  10  13
HETATM   13  C   UNL     1     -45.345 -53.215  14.772  1.00  0.00     0.134 C 
HETATM   14  C   UNL     1     -46.061 -54.526  14.458  1.00  0.00     0.031 C 
BRANCH  13  15
HETATM   15  S   UNL     1     -46.432 -51.754  14.509  1.00  0.00    -0.160 SA
HETATM   16  C   UNL     1     -46.463 -51.674  12.698  1.00  0.00     0.090 C 
ENDBRANCH  13  15
ENDBRANCH  10  13
ENDBRANCH   8   9
ENDBRANCH   1   8
BRANCH   4  17
HETATM   17  N   UNL     1     -42.178 -47.409  10.069  1.00  0.00    -0.363 N 
HETATM   18  C   UNL     1     -41.619 -46.086  10.379  1.00  0.00     0.150 C 
HETATM   19  C   UNL     1     -42.734 -45.028  10.459  1.00  0.00     0.187 C 
HETATM   20  O   UNL     1     -43.540 -45.015   9.272  1.00  0.00    -0.388 OA
HETATM   21  C   UNL     1     -44.168 -46.297   9.095  1.00  0.00     0.187 C 
HETATM   22  C   UNL     1     -43.128 -47.418   8.945  1.00  0.00     0.150 C 
ENDBRANCH   4  17
TORSDOF 5
ENDMDL
MODEL 3
REMARK VINA RESULT:      -5.5      2.727      7.628
REMARK  5 active torsions:
REMARK  status: ('A' for Active; 'I' for Inactive)
REMARK    1  A    between atoms: S_2  and  C_3 
REMARK    2  A    between atoms: C_3  and  C_5 
REMARK       I    between atoms: C_5  and  N_7 
REMARK    3  A    between atoms: N_7  and  C_8 
REMARK    4  A    between atoms: C_8  and  C_9 
REMARK    5  A    between atoms: C_12  and  N_16 
ROOT
HETATM    1  C   UNL     1     -42.247 -50.801  12.569  1.00  0.00    -0.025 A 
HETATM    2  C   UNL     1     -43.027 -49.675  12.803  1.00  0.00     0.014 A 
HETATM    3  C   UNL     1     -42.745 -48.484  12.131  1.00  0.00     0.049 A 
HETATM    4  C   UNL     1     -41.687 -48.406  11.223  1.00  0.00     0.103 A 
HETATM    5  N   UNL     1     -40.906 -49.491  11.024  1.00  0.00    -0.352 N 
ATOM      6  HN  UNL     1     -40.113 -49.446  10.384  1.00  0.00     0.166 HD
HETATM    7  C   UNL     1     -41.190 -50.644  11.686  1.00  0.00     0.098 A 
ENDROOT
BRANCH   1   8
HETATM    8  C   UNL     1     -42.544 -52.108  13.231  1.00  0.00     0.162 C 
BRANCH   8   9
HETATM    9  N   UNL     1     -43.884 -52.187  13.764  1.00  0.00    -0.356 N 
HETATM   10  C   UNL     1     -44.834 -52.936  13.093  1.00  0.00     0.231 C 
HETATM   11  O   UNL     1     -44.558 -53.593  12.091  1.00  0.00    -0.272 OA
HETATM   12  H   UNL     1     -44.209 -51.478  14.413  1.00  0.00     0.162 HD
BRANCH  10  13
HETATM   13  C   UNL     1     -46.232 -52.922  13.717  1.00  0.00     0.134 C 
HETATM   14  C   UNL     1     -46.593 -51.548  14.275  1.00  0.00     0.031 C 
BRANCH  13  15
HETATM   15  S   UNL     1     -46.398 -54.247  14.983  1.00  0.00    -0.160 SA
HETATM   16  C   UNL     1     -46.068 -53.311  16.501  1.00  0.00     0.090 C 
ENDBRANCH  13  15
ENDBRANCH  10  13
ENDBRANCH   8   9
ENDBRANCH   1   8
BRANCH   4  17
HETATM   17  N   UNL     1     -41.388 -47.234  10.561  1.00  0.00    -0.363 N 
HETATM   18  C   UNL     1     -40.181 -46.443  10.836  1.00  0.00     0.150 C 
HETATM   19  C   UNL     1     -40.549 -45.083  11.455  1.00  0.00     0.187 C 
HETATM   20  O   UNL     1     -41.496 -44.370  10.646  1.00  0.00    -0.388 OA
HETATM   21  C   UNL     1     -42.708 -45.135  10.524  1.00  0.00     0.187 C 
HETATM   22  C   UNL     1     -42.450 -46.496   9.858  1.00  0.00     0.150 C 
ENDBRANCH   4  17
TORSDOF 5
ENDMDL
MODEL 4
REMARK VINA RESULT:      -5.2      3.271      8.012
REMARK  5 active torsions:
REMARK  status: ('A' for Active; 'I' for Inactive)
REMARK    1  A    between atoms: S_2  and  C_3 
REMARK    2  A    between atoms: C_3  and  C_5 
REMARK       I    between atoms: C_5  and  N_7 
REMARK    3  A    between atoms: N_7  and  C_8 
REMARK    4  A    between atoms: C_8  and  C_9 
REMARK    5  A    between atoms: C_12  and  N_16 
ROOT
HETATM    1  C   UNL     1     -39.762 -49.722  12.386  1.00  0.00    -0.025 A 
HETATM    2  C   UNL     1     -39.263 -48.521  12.877  1.00  0.00     0.014 A 
HETATM    3  C   UNL     1     -39.603 -47.321  12.248  1.00  0.00     0.049 A 
HETATM    4  C   UNL     1     -40.439 -47.308  11.131  1.00  0.00     0.103 A 
HETATM    5  N   UNL     1     -40.894 -48.479  10.632  1.00  0.00    -0.352 N 
ATOM      6  HN  UNL     1     -41.485 -48.492   9.801  1.00  0.00     0.166 HD
HETATM    7  C   UNL     1     -40.554 -49.640  11.252  1.00  0.00     0.098 A 
ENDROOT
BRANCH   1   8
HETATM    8  C   UNL     1     -39.462 -51.024  13.057  1.00  0.00     0.162 C 
BRANCH   8   9
HETATM    9  N   UNL     1     -40.616 -51.884  13.177  1.00  0.00    -0.356 N 
HETATM   10  C   UNL     1     -40.429 -53.245  13.336  1.00  0.00     0.231 C 
HETATM   11  O   UNL     1     -39.310 -53.741  13.446  1.00  0.00    -0.272 OA
HETATM   12  H   UNL     1     -41.518 -51.564  12.841  1.00  0.00     0.162 HD
BRANCH  10  13
HETATM   13  C   UNL     1     -41.715 -54.073  13.413  1.00  0.00     0.134 C 
HETATM   14  C   UNL     1     -42.904 -53.336  12.801  1.00  0.00     0.031 C 
BRANCH  13  15
HETATM   15  S   UNL     1     -42.049 -54.607  15.142  1.00  0.00    -0.160 SA
HETATM   16  C   UNL     1     -43.182 -53.302  15.689  1.00  0.00     0.090 C 
ENDBRANCH  13  15
ENDBRANCH  10  13
ENDBRANCH   8   9
ENDBRANCH   1   8
BRANCH   4  17
HETATM   17  N   UNL     1     -40.774 -46.132  10.492  1.00  0.00    -0.363 N 
HETATM   18  C   UNL     1     -39.816 -45.041  10.268  1.00  0.00     0.150 C 
HETATM   19  C   UNL     1     -40.207 -43.796  11.083  1.00  0.00     0.187 C 
HETATM   20  O   UNL     1     -41.560 -43.395  10.824  1.00  0.00    -0.388 OA
HETATM   21  C   UNL     1     -42.461 -44.456  11.189  1.00  0.00     0.187 C 
HETATM   22  C   UNL     1     -42.186 -45.732  10.380  1.00  0.00     0.150 C 
ENDBRANCH   4  17
TORSDOF 5
ENDMDL
MODEL 5
REMARK VINA RESULT:      -5.1      2.781      7.564
REMARK  5 active torsions:
REMARK  status: ('A' for Active; 'I' for Inactive)
REMARK    1  A    between atoms: S_2  and  C_3 
REMARK    2  A    between atoms: C_3  and  C_5 
REMARK       I    between atoms: C_5  and  N_7 
REMARK    3  A    between atoms: N_7  and  C_8 
REMARK    4  A    between atoms: C_8  and  C_9 
REMARK    5  A    between atoms: C_12  and  N_16 
ROOT
HETATM    1  C   UNL     1     -40.752 -50.768  11.881  1.00  0.00    -0.025 A 
HETATM    2  C   UNL     1     -39.425 -50.358  11.939  1.00  0.00     0.014 A 
HETATM    3  C   UNL     1     -39.121 -48.995  11.943  1.00  0.00     0.049 A 
HETATM    4  C   UNL     1     -40.132 -48.034  11.891  1.00  0.00     0.103 A 
HETATM    5  N   UNL     1     -41.420 -48.435  11.797  1.00  0.00    -0.352 N 
ATOM      6  HN  UNL     1     -42.171 -47.747  11.731  1.00  0.00     0.166 HD
HETATM    7  C   UNL     1     -41.703 -49.764  11.792  1.00  0.00     0.098 A 
ENDROOT
BRANCH   1   8
HETATM    8  C   UNL     1     -41.124 -52.216  11.923  1.00  0.00     0.162 C 
BRANCH   8   9
HETATM    9  N   UNL     1     -42.546 -52.444  11.830  1.00  0.00    -0.356 N 
HETATM   10  C   UNL     1     -43.218 -52.968  12.919  1.00  0.00     0.231 C 
HETATM   11  O   UNL     1     -42.656 -53.185  13.990  1.00  0.00    -0.272 OA
HETATM   12  H   UNL     1     -42.983 -52.525  10.917  1.00  0.00     0.162 HD
BRANCH  10  13
HETATM   13  C   UNL     1     -44.715 -53.211  12.704  1.00  0.00     0.134 C 
HETATM   14  C   UNL     1     -45.547 -51.980  13.053  1.00  0.00     0.031 C 
BRANCH  13  15
HETATM   15  S   UNL     1     -45.275 -54.705  13.621  1.00  0.00    -0.160 SA
HETATM   16  C   UNL     1     -46.045 -53.944  15.076  1.00  0.00     0.090 C 
ENDBRANCH  13  15
ENDBRANCH  10  13
ENDBRANCH   8   9
ENDBRANCH   1   8
BRANCH   4  17
HETATM   17  N   UNL     1     -39.847 -46.684  11.881  1.00  0.00    -0.363 N 
HETATM   18  C   UNL     1     -39.611 -45.907  13.104  1.00  0.00     0.150 C 
HETATM   19  C   UNL     1     -40.730 -44.873  13.319  1.00  0.00     0.187 C 
HETATM   20  O   UNL     1     -40.908 -44.037  12.167  1.00  0.00    -0.388 OA
HETATM   21  C   UNL     1     -41.270 -44.841  11.031  1.00  0.00     0.187 C 
HETATM   22  C   UNL     1     -40.180 -45.872  10.700  1.00  0.00     0.150 C 
ENDBRANCH   4  17
TORSDOF 5
ENDMDL
MODEL 6
REMARK VINA RESULT:      -5.1      3.397      7.108
REMARK  5 active torsions:
REMARK  status: ('A' for Active; 'I' for Inactive)
REMARK    1  A    between atoms: S_2  and  C_3 
REMARK    2  A    between atoms: C_3  and  C_5 
REMARK       I    between atoms: C_5  and  N_7 
REMARK    3  A    between atoms: N_7  and  C_8 
REMARK    4  A    between atoms: C_8  and  C_9 
REMARK    5  A    between atoms: C_12  and  N_16 
ROOT
HETATM    1  C   UNL     1     -42.923 -53.497  12.941  1.00  0.00    -0.025 A 
HETATM    2  C   UNL     1     -41.724 -54.110  13.288  1.00  0.00     0.014 A 
HETATM    3  C   UNL     1     -40.528 -53.396  13.191  1.00  0.00     0.049 A 
HETATM    4  C   UNL     1     -40.517 -52.071  12.752  1.00  0.00     0.103 A 
HETATM    5  N   UNL     1     -41.679 -51.489  12.380  1.00  0.00    -0.352 N 
ATOM      6  HN  UNL     1     -41.687 -50.530  12.030  1.00  0.00     0.166 HD
HETATM    7  C   UNL     1     -42.836 -52.195  12.476  1.00  0.00     0.098 A 
ENDROOT
BRANCH   1   8
HETATM    8  C   UNL     1     -44.231 -54.210  13.075  1.00  0.00     0.162 C 
BRANCH   8   9
HETATM    9  N   UNL     1     -45.256 -53.410  13.701  1.00  0.00    -0.356 N 
HETATM   10  C   UNL     1     -45.570 -53.634  15.030  1.00  0.00     0.231 C 
HETATM   11  O   UNL     1     -44.957 -54.450  15.716  1.00  0.00    -0.272 OA
HETATM   12  H   UNL     1     -45.940 -52.929  13.126  1.00  0.00     0.162 HD
BRANCH  10  13
HETATM   13  C   UNL     1     -46.698 -52.762  15.588  1.00  0.00     0.134 C 
HETATM   14  C   UNL     1     -46.850 -51.459  14.807  1.00  0.00     0.031 C 
BRANCH  13  15
HETATM   15  S   UNL     1     -46.467 -52.465  17.389  1.00  0.00    -0.160 SA
HETATM   16  C   UNL     1     -45.303 -51.075  17.358  1.00  0.00     0.090 C 
ENDBRANCH  13  15
ENDBRANCH  10  13
ENDBRANCH   8   9
ENDBRANCH   1   8
BRANCH   4  17
HETATM   17  N   UNL     1     -39.342 -51.357  12.639  1.00  0.00    -0.363 N 
HETATM   18  C   UNL     1     -38.247 -51.456  13.613  1.00  0.00     0.150 C 
HETATM   19  C   UNL     1     -38.068 -50.128  14.370  1.00  0.00     0.187 C 
HETATM   20  O   UNL     1     -37.899 -49.024  13.471  1.00  0.00    -0.388 OA
HETATM   21  C   UNL     1     -39.062 -48.894  12.633  1.00  0.00     0.187 C 
HETATM   22  C   UNL     1     -39.291 -50.157  11.789  1.00  0.00     0.150 C 
ENDBRANCH   4  17
TORSDOF 5
ENDMDL
MODEL 7
REMARK VINA RESULT:      -5.1      3.368      4.215
REMARK  5 active torsions:
REMARK  status: ('A' for Active; 'I' for Inactive)
REMARK    1  A    between atoms: S_2  and  C_3 
REMARK    2  A    between atoms: C_3  and  C_5 
REMARK       I    between atoms: C_5  and  N_7 
REMARK    3  A    between atoms: N_7  and  C_8 
REMARK    4  A    between atoms: C_8  and  C_9 
REMARK    5  A    between atoms: C_12  and  N_16 
ROOT
HETATM    1  C   UNL     1     -40.520 -53.280  13.958  1.00  0.00    -0.025 A 
HETATM    2  C   UNL     1     -41.423 -52.693  14.837  1.00  0.00     0.014 A 
HETATM    3  C   UNL     1     -42.795 -52.844  14.625  1.00  0.00     0.049 A 
HETATM    4  C   UNL     1     -43.276 -53.579  13.540  1.00  0.00     0.103 A 
HETATM    5  N   UNL     1     -42.398 -54.118  12.666  1.00  0.00    -0.352 N 
ATOM      6  HN  UNL     1     -42.731 -54.636  11.853  1.00  0.00     0.166 HD
HETATM    7  C   UNL     1     -41.065 -53.962  12.882  1.00  0.00     0.098 A 
ENDROOT
BRANCH   1   8
HETATM    8  C   UNL     1     -39.044 -53.183  14.175  1.00  0.00     0.162 C 
BRANCH   8   9
HETATM    9  N   UNL     1     -38.609 -51.864  14.568  1.00  0.00    -0.356 N 
HETATM   10  C   UNL     1     -38.000 -51.047  13.633  1.00  0.00     0.231 C 
HETATM   11  O   UNL     1     -37.876 -51.382  12.457  1.00  0.00    -0.272 OA
HETATM   12  H   UNL     1     -38.458 -51.657  15.551  1.00  0.00     0.162 HD
BRANCH  10  13
HETATM   13  C   UNL     1     -37.539 -49.685  14.161  1.00  0.00     0.134 C 
HETATM   14  C   UNL     1     -36.767 -49.814  15.471  1.00  0.00     0.031 C 
BRANCH  13  15
HETATM   15  S   UNL     1     -38.960 -48.525  14.307  1.00  0.00    -0.160 SA
HETATM   16  C   UNL     1     -39.279 -48.155  12.561  1.00  0.00     0.090 C 
ENDBRANCH  13  15
ENDBRANCH  10  13
ENDBRANCH   8   9
ENDBRANCH   1   8
BRANCH   4  17
HETATM   17  N   UNL     1     -44.628 -53.726  13.311  1.00  0.00    -0.363 N 
HETATM   18  C   UNL     1     -45.501 -52.612  12.919  1.00  0.00     0.150 C 
HETATM   19  C   UNL     1     -46.519 -52.299  14.030  1.00  0.00     0.187 C 
HETATM   20  O   UNL     1     -47.262 -53.465  14.413  1.00  0.00    -0.388 OA
HETATM   21  C   UNL     1     -46.365 -54.472  14.914  1.00  0.00     0.187 C 
HETATM   22  C   UNL     1     -45.342 -54.895  13.849  1.00  0.00     0.150 C 
ENDBRANCH   4  17
TORSDOF 5
ENDMDL
MODEL 8
REMARK VINA RESULT:      -5.1      2.352      3.567
REMARK  5 active torsions:
REMARK  status: ('A' for Active; 'I' for Inactive)
REMARK    1  A    between atoms: S_2  and  C_3 
REMARK    2  A    between atoms: C_3  and  C_5 
REMARK       I    between atoms: C_5  and  N_7 
REMARK    3  A    between atoms: N_7  and  C_8 
REMARK    4  A    between atoms: C_8  and  C_9 
REMARK    5  A    between atoms: C_12  and  N_16 
ROOT
HETATM    1  C   UNL     1     -42.210 -53.433  13.200  1.00  0.00    -0.025 A 
HETATM    2  C   UNL     1     -42.358 -54.255  14.311  1.00  0.00     0.014 A 
HETATM    3  C   UNL     1     -43.561 -54.252  15.020  1.00  0.00     0.049 A 
HETATM    4  C   UNL     1     -44.622 -53.434  14.628  1.00  0.00     0.103 A 
HETATM    5  N   UNL     1     -44.464 -52.608  13.570  1.00  0.00    -0.352 N 
ATOM      6  HN  UNL     1     -45.219 -51.984  13.285  1.00  0.00     0.166 HD
HETATM    7  C   UNL     1     -43.287 -52.619  12.890  1.00  0.00     0.098 A 
ENDROOT
BRANCH   1   8
HETATM    8  C   UNL     1     -40.956 -53.441  12.385  1.00  0.00     0.162 C 
BRANCH   8   9
HETATM    9  N   UNL     1     -40.677 -52.173  11.752  1.00  0.00    -0.356 N 
HETATM   10  C   UNL     1     -39.804 -51.292  12.363  1.00  0.00     0.231 C 
HETATM   11  O   UNL     1     -39.204 -51.579  13.397  1.00  0.00    -0.272 OA
HETATM   12  H   UNL     1     -41.325 -51.801  11.065  1.00  0.00     0.162 HD
BRANCH  10  13
HETATM   13  C   UNL     1     -39.608 -49.960  11.633  1.00  0.00     0.134 C 
HETATM   14  C   UNL     1     -38.169 -49.462  11.734  1.00  0.00     0.031 C 
BRANCH  13  15
HETATM   15  S   UNL     1     -40.816 -48.704  12.226  1.00  0.00    -0.160 SA
HETATM   16  C   UNL     1     -41.696 -48.325  10.687  1.00  0.00     0.090 C 
ENDBRANCH  13  15
ENDBRANCH  10  13
ENDBRANCH   8   9
ENDBRANCH   1   8
BRANCH   4  17
HETATM   17  N   UNL     1     -45.812 -53.410  15.325  1.00  0.00    -0.363 N 
HETATM   18  C   UNL     1     -46.953 -52.572  14.935  1.00  0.00     0.150 C 
HETATM   19  C   UNL     1     -47.217 -51.484  15.990  1.00  0.00     0.187 C 
HETATM   20  O   UNL     1     -47.374 -52.042  17.302  1.00  0.00    -0.388 OA
HETATM   21  C   UNL     1     -46.174 -52.737  17.684  1.00  0.00     0.187 C 
HETATM   22  C   UNL     1     -45.858 -53.889  16.717  1.00  0.00     0.150 C 
ENDBRANCH   4  17
TORSDOF 5
ENDMDL
MODEL 9
REMARK VINA RESULT:      -5.0      2.650      7.730
REMARK  5 active torsions:
REMARK  status: ('A' for Active; 'I' for Inactive)
REMARK    1  A    between atoms: S_2  and  C_3 
REMARK    2  A    between atoms: C_3  and  C_5 
REMARK       I    between atoms: C_5  and  N_7 
REMARK    3  A    between atoms: N_7  and  C_8 
REMARK    4  A    between atoms: C_8  and  C_9 
REMARK    5  A    between atoms: C_12  and  N_16 
ROOT
HETATM    1  C   UNL     1     -42.579 -52.362  12.619  1.00  0.00    -0.025 A 
HETATM    2  C   UNL     1     -43.049 -51.131  13.060  1.00  0.00     0.014 A 
HETATM    3  C   UNL     1     -42.417 -49.958  12.641  1.00  0.00     0.049 A 
HETATM    4  C   UNL     1     -41.318 -50.003  11.782  1.00  0.00     0.103 A 
HETATM    5  N   UNL     1     -40.839 -51.202  11.383  1.00  0.00    -0.352 N 
ATOM      6  HN  UNL     1     -40.021 -51.256  10.777  1.00  0.00     0.166 HD
HETATM    7  C   UNL     1     -41.461 -52.336  11.800  1.00  0.00     0.098 A 
ENDROOT
BRANCH   1   8
HETATM    8  C   UNL     1     -43.254 -53.639  13.005  1.00  0.00     0.162 C 
BRANCH   8   9
HETATM    9  N   UNL     1     -44.375 -53.447  13.895  1.00  0.00    -0.356 N 
HETATM   10  C   UNL     1     -44.622 -54.384  14.882  1.00  0.00     0.231 C 
HETATM   11  O   UNL     1     -43.878 -55.344  15.070  1.00  0.00    -0.272 OA
HETATM   12  H   UNL     1     -45.136 -52.835  13.619  1.00  0.00     0.162 HD
BRANCH  10  13
HETATM   13  C   UNL     1     -45.857 -54.109  15.745  1.00  0.00     0.134 C 
HETATM   14  C   UNL     1     -46.834 -53.161  15.056  1.00  0.00     0.031 C 
BRANCH  13  15
HETATM   15  S   UNL     1     -45.368 -53.503  17.413  1.00  0.00    -0.160 SA
HETATM   16  C   UNL     1     -46.202 -54.714  18.474  1.00  0.00     0.090 C 
ENDBRANCH  13  15
ENDBRANCH  10  13
ENDBRANCH   8   9
ENDBRANCH   1   8
BRANCH   4  17
HETATM   17  N   UNL     1     -40.676 -48.853  11.369  1.00  0.00    -0.363 N 
HETATM   18  C   UNL     1     -39.439 -48.360  11.988  1.00  0.00     0.150 C 
HETATM   19  C   UNL     1     -39.687 -47.026  12.714  1.00  0.00     0.187 C 
HETATM   20  O   UNL     1     -40.289 -46.054  11.847  1.00  0.00    -0.388 OA
HETATM   21  C   UNL     1     -41.560 -46.537  11.379  1.00  0.00     0.187 C 
HETATM   22  C   UNL     1     -41.408 -47.844  10.586  1.00  0.00     0.150 C 
ENDBRANCH   4  17
TORSDOF 5
ENDMDL
