MODEL 1
REMARK VINA RESULT:      -5.3      0.000      0.000
REMARK  3 active torsions:
REMARK  status: ('A' for Active; 'I' for Inactive)
REMARK    1  A    between atoms: O_1  and  C_2 
REMARK    2  A    between atoms: C_2  and  C_3 
REMARK    3  A    between atoms: C_6  and  N_10 
ROOT
HETATM    1  C   UNL     1     -45.399 -47.289   9.278  1.00  0.00    -0.019 A 
HETATM    2  C   UNL     1     -44.370 -47.799  10.063  1.00  0.00     0.014 A 
HETATM    3  C   UNL     1     -43.276 -46.995  10.375  1.00  0.00     0.043 A 
HETATM    4  C   UNL     1     -43.224 -45.669   9.946  1.00  0.00     0.082 A 
HETATM    5  N   UNL     1     -44.208 -45.175   9.165  1.00  0.00    -0.356 N 
ATOM      6  HN  UNL     1     -44.164 -44.216   8.817  1.00  0.00     0.166 HD
HETATM    7  C   UNL     1     -45.256 -45.978   8.851  1.00  0.00     0.098 A 
ENDROOT
BRANCH   4   8
HETATM    8  N   UNL     1     -42.127 -44.862  10.268  1.00  0.00    -0.265 NA
HETATM    9  C   UNL     1     -42.406 -43.805  11.263  1.00  0.00     0.123 C 
HETATM   10  C   UNL     1     -41.209 -42.841  11.317  1.00  0.00     0.182 C 
HETATM   11  O   UNL     1     -39.981 -43.527  11.623  1.00  0.00    -0.389 OA
HETATM   12  C   UNL     1     -39.723 -44.544  10.640  1.00  0.00     0.182 C 
HETATM   13  C   UNL     1     -40.866 -45.569  10.574  1.00  0.00     0.123 C 
ENDBRANCH   4   8
BRANCH   1  14
HETATM   14  C   UNL     1     -46.641 -48.067   8.963  1.00  0.00     0.204 C 
BRANCH  14  15
HETATM   15  O   UNL     1     -46.608 -48.578   7.637  1.00  0.00    -0.396 OA
HETATM   16  H   UNL     1     -46.443 -49.532   7.706  1.00  0.00     0.209 HD
ENDBRANCH  14  15
ENDBRANCH   1  14
TORSDOF 3
ENDMDL
MODEL 2
REMARK VINA RESULT:      -4.9      6.865      7.576
REMARK  3 active torsions:
REMARK  status: ('A' for Active; 'I' for Inactive)
REMARK    1  A    between atoms: O_1  and  C_2 
REMARK    2  A    between atoms: C_2  and  C_3 
REMARK    3  A    between atoms: C_6  and  N_10 
ROOT
HETATM    1  C   UNL     1     -43.564 -53.987  13.166  1.00  0.00    -0.019 A 
HETATM    2  C   UNL     1     -42.443 -54.230  13.951  1.00  0.00     0.014 A 
HETATM    3  C   UNL     1     -41.267 -53.523  13.713  1.00  0.00     0.043 A 
HETATM    4  C   UNL     1     -41.217 -52.541  12.724  1.00  0.00     0.082 A 
HETATM    5  N   UNL     1     -42.294 -52.316  11.942  1.00  0.00    -0.356 N 
ATOM      6  HN  UNL     1     -42.259 -51.624  11.193  1.00  0.00     0.166 HD
HETATM    7  C   UNL     1     -43.426 -53.030  12.173  1.00  0.00     0.098 A 
ENDROOT
BRANCH   4   8
HETATM    8  N   UNL     1     -40.035 -51.827  12.493  1.00  0.00    -0.265 NA
HETATM    9  C   UNL     1     -40.228 -50.482  11.911  1.00  0.00     0.123 C 
HETATM   10  C   UNL     1     -38.863 -49.930  11.464  1.00  0.00     0.182 C 
HETATM   11  O   UNL     1     -37.918 -49.894  12.549  1.00  0.00    -0.389 OA
HETATM   12  C   UNL     1     -37.738 -51.212  13.094  1.00  0.00     0.182 C 
HETATM   13  C   UNL     1     -39.064 -51.798  13.605  1.00  0.00     0.123 C 
ENDBRANCH   4   8
BRANCH   1  14
HETATM   14  C   UNL     1     -44.885 -54.654  13.410  1.00  0.00     0.204 C 
BRANCH  14  15
HETATM   15  O   UNL     1     -45.954 -53.903  12.848  1.00  0.00    -0.396 OA
HETATM   16  H   UNL     1     -46.453 -53.524  13.590  1.00  0.00     0.209 HD
ENDBRANCH  14  15
ENDBRANCH   1  14
TORSDOF 3
ENDMDL
MODEL 3
REMARK VINA RESULT:      -4.9      3.842      4.666
REMARK  3 active torsions:
REMARK  status: ('A' for Active; 'I' for Inactive)
REMARK    1  A    between atoms: O_1  and  C_2 
REMARK    2  A    between atoms: C_2  and  C_3 
REMARK    3  A    between atoms: C_6  and  N_10 
ROOT
HETATM    1  C   UNL     1     -42.892 -46.419   9.727  1.00  0.00    -0.019 A 
HETATM    2  C   UNL     1     -42.031 -45.702  10.550  1.00  0.00     0.014 A 
HETATM    3  C   UNL     1     -40.991 -46.360  11.202  1.00  0.00     0.043 A 
HETATM    4  C   UNL     1     -40.777 -47.724  11.001  1.00  0.00     0.082 A 
HETATM    5  N   UNL     1     -41.622 -48.430  10.221  1.00  0.00    -0.356 N 
ATOM      6  HN  UNL     1     -41.496 -49.435  10.093  1.00  0.00     0.166 HD
HETATM    7  C   UNL     1     -42.644 -47.778   9.611  1.00  0.00     0.098 A 
ENDROOT
BRANCH   4   8
HETATM    8  N   UNL     1     -39.726 -48.380  11.652  1.00  0.00    -0.265 NA
HETATM    9  C   UNL     1     -39.481 -47.933  13.040  1.00  0.00     0.123 C 
HETATM   10  C   UNL     1     -38.152 -48.532  13.531  1.00  0.00     0.182 C 
HETATM   11  O   UNL     1     -38.145 -49.968  13.441  1.00  0.00    -0.389 OA
HETATM   12  C   UNL     1     -38.375 -50.382  12.084  1.00  0.00     0.182 C 
HETATM   13  C   UNL     1     -39.717 -49.854  11.552  1.00  0.00     0.123 C 
ENDBRANCH   4   8
BRANCH   1  14
HETATM   14  C   UNL     1     -43.986 -45.768   8.934  1.00  0.00     0.204 C 
BRANCH  14  15
HETATM   15  O   UNL     1     -44.158 -44.408   9.312  1.00  0.00    -0.396 OA
HETATM   16  H   UNL     1     -44.174 -43.888   8.491  1.00  0.00     0.209 HD
ENDBRANCH  14  15
ENDBRANCH   1  14
TORSDOF 3
ENDMDL
MODEL 4
REMARK VINA RESULT:      -4.9      6.880      9.093
REMARK  3 active torsions:
REMARK  status: ('A' for Active; 'I' for Inactive)
REMARK    1  A    between atoms: O_1  and  C_2 
REMARK    2  A    between atoms: C_2  and  C_3 
REMARK    3  A    between atoms: C_6  and  N_10 
ROOT
HETATM    1  C   UNL     1     -41.240 -50.990  12.070  1.00  0.00    -0.019 A 
HETATM    2  C   UNL     1     -41.160 -52.371  12.211  1.00  0.00     0.014 A 
HETATM    3  C   UNL     1     -42.261 -53.082  12.682  1.00  0.00     0.043 A 
HETATM    4  C   UNL     1     -43.458 -52.427  12.971  1.00  0.00     0.082 A 
HETATM    5  N   UNL     1     -43.536 -51.084  12.859  1.00  0.00    -0.356 N 
ATOM      6  HN  UNL     1     -44.396 -50.591  13.099  1.00  0.00     0.166 HD
HETATM    7  C   UNL     1     -42.447 -50.404  12.419  1.00  0.00     0.098 A 
ENDROOT
BRANCH   4   8
HETATM    8  N   UNL     1     -44.565 -53.147  13.437  1.00  0.00    -0.265 NA
HETATM    9  C   UNL     1     -44.320 -54.588  13.656  1.00  0.00     0.123 C 
HETATM   10  C   UNL     1     -45.665 -55.292  13.900  1.00  0.00     0.182 C 
HETATM   11  O   UNL     1     -46.380 -54.715  15.008  1.00  0.00    -0.389 OA
HETATM   12  C   UNL     1     -46.616 -53.317  14.772  1.00  0.00     0.182 C 
HETATM   13  C   UNL     1     -45.301 -52.548  14.569  1.00  0.00     0.123 C 
ENDBRANCH   4   8
BRANCH   1  14
HETATM   14  C   UNL     1     -40.124 -50.167  11.499  1.00  0.00     0.204 C 
BRANCH  14  15
HETATM   15  O   UNL     1     -40.367 -49.843  10.136  1.00  0.00    -0.396 OA
HETATM   16  H   UNL     1     -40.234 -50.658   9.625  1.00  0.00     0.209 HD
ENDBRANCH  14  15
ENDBRANCH   1  14
TORSDOF 3
ENDMDL
MODEL 5
REMARK VINA RESULT:      -4.8      4.100      4.920
REMARK  3 active torsions:
REMARK  status: ('A' for Active; 'I' for Inactive)
REMARK    1  A    between atoms: O_1  and  C_2 
REMARK    2  A    between atoms: C_2  and  C_3 
REMARK    3  A    between atoms: C_6  and  N_10 
ROOT
HETATM    1  C   UNL     1     -41.056 -51.162  12.151  1.00  0.00    -0.019 A 
HETATM    2  C   UNL     1     -42.182 -50.395  12.429  1.00  0.00     0.014 A 
HETATM    3  C   UNL     1     -42.236 -49.069  12.005  1.00  0.00     0.043 A 
HETATM    4  C   UNL     1     -41.190 -48.518  11.265  1.00  0.00     0.082 A 
HETATM    5  N   UNL     1     -40.084 -49.249  11.012  1.00  0.00    -0.356 N 
ATOM      6  HN  UNL     1     -39.299 -48.846  10.500  1.00  0.00     0.166 HD
HETATM    7  C   UNL     1     -40.038 -50.533  11.451  1.00  0.00     0.098 A 
ENDROOT
BRANCH   4   8
HETATM    8  N   UNL     1     -41.251 -47.187  10.834  1.00  0.00    -0.265 NA
HETATM    9  C   UNL     1     -42.469 -46.458  11.245  1.00  0.00     0.123 C 
HETATM   10  C   UNL     1     -42.531 -45.121  10.488  1.00  0.00     0.182 C 
HETATM   11  O   UNL     1     -41.353 -44.325  10.709  1.00  0.00    -0.389 OA
HETATM   12  C   UNL     1     -40.181 -45.047  10.295  1.00  0.00     0.182 C 
HETATM   13  C   UNL     1     -40.038 -46.374  11.055  1.00  0.00     0.123 C 
ENDBRANCH   4   8
BRANCH   1  14
HETATM   14  C   UNL     1     -40.956 -52.615  12.508  1.00  0.00     0.204 C 
BRANCH  14  15
HETATM   15  O   UNL     1     -40.576 -53.399  11.384  1.00  0.00    -0.396 OA
HETATM   16  H   UNL     1     -39.605 -53.431  11.380  1.00  0.00     0.209 HD
ENDBRANCH  14  15
ENDBRANCH   1  14
TORSDOF 3
ENDMDL
MODEL 6
REMARK VINA RESULT:      -4.7      7.101      8.030
REMARK  3 active torsions:
REMARK  status: ('A' for Active; 'I' for Inactive)
REMARK    1  A    between atoms: O_1  and  C_2 
REMARK    2  A    between atoms: C_2  and  C_3 
REMARK    3  A    between atoms: C_6  and  N_10 
ROOT
HETATM    1  C   UNL     1     -45.245 -52.197  12.787  1.00  0.00    -0.019 A 
HETATM    2  C   UNL     1     -44.672 -53.445  12.571  1.00  0.00     0.014 A 
HETATM    3  C   UNL     1     -43.328 -53.649  12.875  1.00  0.00     0.043 A 
HETATM    4  C   UNL     1     -42.563 -52.626  13.436  1.00  0.00     0.082 A 
HETATM    5  N   UNL     1     -43.107 -51.405  13.627  1.00  0.00    -0.356 N 
ATOM      6  HN  UNL     1     -42.549 -50.640  14.006  1.00  0.00     0.166 HD
HETATM    7  C   UNL     1     -44.412 -51.217  13.304  1.00  0.00     0.098 A 
ENDROOT
BRANCH   4   8
HETATM    8  N   UNL     1     -41.215 -52.837  13.747  1.00  0.00    -0.265 NA
HETATM    9  C   UNL     1     -40.696 -54.172  13.379  1.00  0.00     0.123 C 
HETATM   10  C   UNL     1     -39.307 -54.360  14.013  1.00  0.00     0.182 C 
HETATM   11  O   UNL     1     -38.392 -53.322  13.618  1.00  0.00    -0.389 OA
HETATM   12  C   UNL     1     -38.910 -52.035  13.992  1.00  0.00     0.182 C 
HETATM   13  C   UNL     1     -40.279 -51.767  13.347  1.00  0.00     0.123 C 
ENDBRANCH   4   8
BRANCH   1  14
HETATM   14  C   UNL     1     -46.701 -51.922  12.555  1.00  0.00     0.204 C 
BRANCH  14  15
HETATM   15  O   UNL     1     -47.137 -52.459  11.313  1.00  0.00    -0.396 OA
HETATM   16  H   UNL     1     -46.339 -52.717  10.823  1.00  0.00     0.209 HD
ENDBRANCH  14  15
ENDBRANCH   1  14
TORSDOF 3
ENDMDL
MODEL 7
REMARK VINA RESULT:      -4.6      8.111      9.918
REMARK  3 active torsions:
REMARK  status: ('A' for Active; 'I' for Inactive)
REMARK    1  A    between atoms: O_1  and  C_2 
REMARK    2  A    between atoms: C_2  and  C_3 
REMARK    3  A    between atoms: C_6  and  N_10 
ROOT
HETATM    1  C   UNL     1     -40.639 -54.154  14.439  1.00  0.00    -0.019 A 
HETATM    2  C   UNL     1     -41.338 -54.239  13.240  1.00  0.00     0.014 A 
HETATM    3  C   UNL     1     -42.659 -53.800  13.179  1.00  0.00     0.043 A 
HETATM    4  C   UNL     1     -43.272 -53.235  14.297  1.00  0.00     0.082 A 
HETATM    5  N   UNL     1     -42.607 -53.171  15.470  1.00  0.00    -0.356 N 
ATOM      6  HN  UNL     1     -43.056 -52.790  16.303  1.00  0.00     0.166 HD
HETATM    7  C   UNL     1     -41.328 -53.623  15.518  1.00  0.00     0.098 A 
ENDROOT
BRANCH   4   8
HETATM    8  N   UNL     1     -44.597 -52.788  14.229  1.00  0.00    -0.265 NA
HETATM    9  C   UNL     1     -45.250 -52.583  15.539  1.00  0.00     0.123 C 
HETATM   10  C   UNL     1     -46.755 -52.361  15.319  1.00  0.00     0.182 C 
HETATM   11  O   UNL     1     -47.010 -51.253  14.436  1.00  0.00    -0.389 OA
HETATM   12  C   UNL     1     -46.375 -51.475  13.165  1.00  0.00     0.182 C 
HETATM   13  C   UNL     1     -44.856 -51.655  13.317  1.00  0.00     0.123 C 
ENDBRANCH   4   8
BRANCH   1  14
HETATM   14  C   UNL     1     -39.194 -54.536  14.564  1.00  0.00     0.204 C 
BRANCH  14  15
HETATM   15  O   UNL     1     -38.612 -54.777  13.289  1.00  0.00    -0.396 OA
HETATM   16  H   UNL     1     -39.074 -54.205  12.655  1.00  0.00     0.209 HD
ENDBRANCH  14  15
ENDBRANCH   1  14
TORSDOF 3
ENDMDL
MODEL 8
REMARK VINA RESULT:      -4.5      3.858      4.676
REMARK  3 active torsions:
REMARK  status: ('A' for Active; 'I' for Inactive)
REMARK    1  A    between atoms: O_1  and  C_2 
REMARK    2  A    between atoms: C_2  and  C_3 
REMARK    3  A    between atoms: C_6  and  N_10 
ROOT
HETATM    1  C   UNL     1     -43.823 -47.420   9.809  1.00  0.00    -0.019 A 
HETATM    2  C   UNL     1     -43.967 -47.685  11.166  1.00  0.00     0.014 A 
HETATM    3  C   UNL     1     -42.936 -48.315  11.860  1.00  0.00     0.043 A 
HETATM    4  C   UNL     1     -41.742 -48.640  11.217  1.00  0.00     0.082 A 
HETATM    5  N   UNL     1     -41.604 -48.406   9.895  1.00  0.00    -0.356 N 
ATOM      6  HN  UNL     1     -40.748 -48.670   9.406  1.00  0.00     0.166 HD
HETATM    7  C   UNL     1     -42.627 -47.812   9.228  1.00  0.00     0.098 A 
ENDROOT
BRANCH   4   8
HETATM    8  N   UNL     1     -40.706 -49.266  11.920  1.00  0.00    -0.265 NA
HETATM    9  C   UNL     1     -40.658 -50.736  11.774  1.00  0.00     0.123 C 
HETATM   10  C   UNL     1     -39.661 -51.307  12.796  1.00  0.00     0.182 C 
HETATM   11  O   UNL     1     -38.351 -50.730  12.648  1.00  0.00    -0.389 OA
HETATM   12  C   UNL     1     -38.417 -49.302  12.802  1.00  0.00     0.182 C 
HETATM   13  C   UNL     1     -39.364 -48.667  11.771  1.00  0.00     0.123 C 
ENDBRANCH   4   8
BRANCH   1  14
HETATM   14  C   UNL     1     -44.855 -46.679   9.013  1.00  0.00     0.204 C 
BRANCH  14  15
HETATM   15  O   UNL     1     -45.634 -47.569   8.224  1.00  0.00    -0.396 OA
HETATM   16  H   UNL     1     -46.552 -47.487   8.530  1.00  0.00     0.209 HD
ENDBRANCH  14  15
ENDBRANCH   1  14
TORSDOF 3
ENDMDL
MODEL 9
REMARK VINA RESULT:      -4.5      6.568      7.153
REMARK  3 active torsions:
REMARK  status: ('A' for Active; 'I' for Inactive)
REMARK    1  A    between atoms: O_1  and  C_2 
REMARK    2  A    between atoms: C_2  and  C_3 
REMARK    3  A    between atoms: C_6  and  N_10 
ROOT
HETATM    1  C   UNL     1     -45.043 -52.146  12.962  1.00  0.00    -0.019 A 
HETATM    2  C   UNL     1     -44.560 -50.939  13.457  1.00  0.00     0.014 A 
HETATM    3  C   UNL     1     -43.185 -50.732  13.550  1.00  0.00     0.043 A 
HETATM    4  C   UNL     1     -42.289 -51.706  13.110  1.00  0.00     0.082 A 
HETATM    5  N   UNL     1     -42.751 -52.888  12.650  1.00  0.00    -0.356 N 
ATOM      6  HN  UNL     1     -42.104 -53.621  12.357  1.00  0.00     0.166 HD
HETATM    7  C   UNL     1     -44.092 -53.083  12.587  1.00  0.00     0.098 A 
ENDROOT
BRANCH   4   8
HETATM    8  N   UNL     1     -40.908 -51.490  13.198  1.00  0.00    -0.265 NA
HETATM    9  C   UNL     1     -40.133 -52.643  13.702  1.00  0.00     0.123 C 
HETATM   10  C   UNL     1     -38.695 -52.186  14.001  1.00  0.00     0.182 C 
HETATM   11  O   UNL     1     -38.066 -51.605  12.845  1.00  0.00    -0.389 OA
HETATM   12  C   UNL     1     -38.829 -50.481  12.376  1.00  0.00     0.182 C 
HETATM   13  C   UNL     1     -40.266 -50.887  12.012  1.00  0.00     0.123 C 
ENDBRANCH   4   8
BRANCH   1  14
HETATM   14  C   UNL     1     -46.504 -52.413  12.762  1.00  0.00     0.204 C 
BRANCH  14  15
HETATM   15  O   UNL     1     -46.838 -52.450  11.381  1.00  0.00    -0.396 OA
HETATM   16  H   UNL     1     -47.779 -52.682  11.325  1.00  0.00     0.209 HD
ENDBRANCH  14  15
ENDBRANCH   1  14
TORSDOF 3
ENDMDL
