MODEL 1
REMARK VINA RESULT:      -5.4      0.000      0.000
REMARK  7 active torsions:
REMARK  status: ('A' for Active; 'I' for Inactive)
REMARK    1  A    between atoms: C_2  and  N_3 
REMARK       I    between atoms: N_3  and  C_4 
REMARK    2  A    between atoms: C_4  and  C_6 
REMARK    3  A    between atoms: C_6  and  N_7 
REMARK    4  A    between atoms: C_10  and  N_11 
REMARK       I    between atoms: N_11  and  C_12 
REMARK    5  A    between atoms: C_12  and  C_14 
REMARK    6  A    between atoms: C_14  and  O_15 
REMARK    7  A    between atoms: O_15  and  C_16 
ROOT
HETATM    1  N   UNL     1     -40.634 -51.302  12.088  1.00  0.00    -0.293 N 
HETATM    2  C   UNL     1     -39.449 -50.649  12.260  1.00  0.00     0.114 A 
HETATM    3  C   UNL     1     -39.577 -49.461  11.571  1.00  0.00     0.068 A 
HETATM    4  C   UNL     1     -40.881 -49.483  11.023  1.00  0.00     0.123 A 
HETATM    5  N   UNL     1     -41.525 -50.590  11.381  1.00  0.00    -0.283 N 
ATOM      6  HN  UNL     1     -42.489 -50.845  11.165  1.00  0.00     0.189 HD
ENDROOT
BRANCH   4   7
HETATM    7  N   UNL     1     -41.421 -48.508  10.217  1.00  0.00    -0.310 N 
HETATM    8  C   UNL     1     -42.617 -47.860  10.481  1.00  0.00     0.246 C 
HETATM    9  O   UNL     1     -43.364 -48.015  11.443  1.00  0.00    -0.271 OA
HETATM   10  H   UNL     1     -40.965 -48.327   9.332  1.00  0.00     0.170 HD
BRANCH   8  11
HETATM   11  C   UNL     1     -42.981 -46.879   9.366  1.00  0.00     0.270 C 
BRANCH  11  12
HETATM   12  O   UNL     1     -44.386 -46.720   9.202  1.00  0.00    -0.382 OA
BRANCH  12  13
HETATM   13  C   UNL     1     -44.955 -47.793   8.445  1.00  0.00     0.163 C 
HETATM   14  C   UNL     1     -46.361 -48.043   8.948  1.00  0.00     0.033 C 
ENDBRANCH  12  13
ENDBRANCH  11  12
ENDBRANCH   8  11
ENDBRANCH   4   7
BRANCH   1  15
HETATM   15  C   UNL     1     -41.019 -52.612  12.582  1.00  0.00     0.250 C 
BRANCH  15  16
HETATM   16  C   UNL     1     -42.471 -52.692  13.020  1.00  0.00     0.237 C 
HETATM   17  N   UNL     1     -43.209 -53.744  12.527  1.00  0.00    -0.360 N 
HETATM   18  H   UNL     1     -42.757 -54.368  11.851  1.00  0.00     0.162 HD
HETATM   19  O   UNL     1     -42.962 -51.817  13.735  1.00  0.00    -0.272 OA
BRANCH  17  20
HETATM   20  C   UNL     1     -44.603 -53.959  12.843  1.00  0.00     0.118 C 
HETATM   21  C   UNL     1     -44.781 -54.972  13.957  1.00  0.00     0.026 C 
ENDBRANCH  17  20
ENDBRANCH  15  16
ENDBRANCH   1  15
TORSDOF 7
ENDMDL
MODEL 2
REMARK VINA RESULT:      -5.4      2.117      6.352
REMARK  7 active torsions:
REMARK  status: ('A' for Active; 'I' for Inactive)
REMARK    1  A    between atoms: C_2  and  N_3 
REMARK       I    between atoms: N_3  and  C_4 
REMARK    2  A    between atoms: C_4  and  C_6 
REMARK    3  A    between atoms: C_6  and  N_7 
REMARK    4  A    between atoms: C_10  and  N_11 
REMARK       I    between atoms: N_11  and  C_12 
REMARK    5  A    between atoms: C_12  and  C_14 
REMARK    6  A    between atoms: C_14  and  O_15 
REMARK    7  A    between atoms: O_15  and  C_16 
ROOT
HETATM    1  N   UNL     1     -41.953 -47.229  10.624  1.00  0.00    -0.293 N 
HETATM    2  C   UNL     1     -40.696 -46.962  11.078  1.00  0.00     0.114 A 
HETATM    3  C   UNL     1     -40.154 -48.187  11.410  1.00  0.00     0.068 A 
HETATM    4  C   UNL     1     -41.160 -49.136  11.111  1.00  0.00     0.123 A 
HETATM    5  N   UNL     1     -42.231 -48.540  10.595  1.00  0.00    -0.283 N 
ATOM      6  HN  UNL     1     -43.083 -48.986  10.252  1.00  0.00     0.189 HD
ENDROOT
BRANCH   4   7
HETATM    7  N   UNL     1     -41.064 -50.491  11.328  1.00  0.00    -0.310 N 
HETATM    8  C   UNL     1     -41.871 -51.193  12.209  1.00  0.00     0.246 C 
HETATM    9  O   UNL     1     -42.786 -50.760  12.904  1.00  0.00    -0.271 OA
HETATM   10  H   UNL     1     -40.294 -50.981  10.892  1.00  0.00     0.170 HD
BRANCH   8  11
HETATM   11  C   UNL     1     -41.475 -52.668  12.278  1.00  0.00     0.270 C 
BRANCH  11  12
HETATM   12  O   UNL     1     -40.077 -52.859  12.470  1.00  0.00    -0.382 OA
BRANCH  12  13
HETATM   13  C   UNL     1     -39.758 -53.078  13.848  1.00  0.00     0.163 C 
HETATM   14  C   UNL     1     -39.312 -54.515  14.015  1.00  0.00     0.033 C 
ENDBRANCH  12  13
ENDBRANCH  11  12
ENDBRANCH   8  11
ENDBRANCH   4   7
BRANCH   1  15
HETATM   15  C   UNL     1     -42.964 -46.289  10.173  1.00  0.00     0.250 C 
BRANCH  15  16
HETATM   16  C   UNL     1     -43.996 -46.908   9.245  1.00  0.00     0.237 C 
HETATM   17  N   UNL     1     -45.317 -46.761   9.603  1.00  0.00    -0.360 N 
HETATM   18  H   UNL     1     -45.520 -46.302  10.498  1.00  0.00     0.162 HD
HETATM   19  O   UNL     1     -43.647 -47.555   8.257  1.00  0.00    -0.272 OA
BRANCH  17  20
HETATM   20  C   UNL     1     -46.418 -47.294   8.833  1.00  0.00     0.118 C 
HETATM   21  C   UNL     1     -46.693 -48.746   9.170  1.00  0.00     0.026 C 
ENDBRANCH  17  20
ENDBRANCH  15  16
ENDBRANCH   1  15
TORSDOF 7
ENDMDL
MODEL 3
REMARK VINA RESULT:      -5.3      3.534      6.542
REMARK  7 active torsions:
REMARK  status: ('A' for Active; 'I' for Inactive)
REMARK    1  A    between atoms: C_2  and  N_3 
REMARK       I    between atoms: N_3  and  C_4 
REMARK    2  A    between atoms: C_4  and  C_6 
REMARK    3  A    between atoms: C_6  and  N_7 
REMARK    4  A    between atoms: C_10  and  N_11 
REMARK       I    between atoms: N_11  and  C_12 
REMARK    5  A    between atoms: C_12  and  C_14 
REMARK    6  A    between atoms: C_14  and  O_15 
REMARK    7  A    between atoms: O_15  and  C_16 
ROOT
HETATM    1  N   UNL     1     -41.956 -46.134  10.295  1.00  0.00    -0.293 N 
HETATM    2  C   UNL     1     -41.572 -45.308  11.309  1.00  0.00     0.114 A 
HETATM    3  C   UNL     1     -40.506 -45.938  11.918  1.00  0.00     0.068 A 
HETATM    4  C   UNL     1     -40.314 -47.136  11.191  1.00  0.00     0.123 A 
HETATM    5  N   UNL     1     -41.177 -47.220  10.182  1.00  0.00    -0.283 N 
ATOM      6  HN  UNL     1     -41.234 -47.953   9.475  1.00  0.00     0.189 HD
ENDROOT
BRANCH   4   7
HETATM    7  N   UNL     1     -39.376 -48.100  11.481  1.00  0.00    -0.310 N 
HETATM    8  C   UNL     1     -39.642 -49.459  11.499  1.00  0.00     0.246 C 
HETATM    9  O   UNL     1     -40.704 -50.024  11.252  1.00  0.00    -0.271 OA
HETATM   10  H   UNL     1     -38.466 -47.787  11.794  1.00  0.00     0.170 HD
BRANCH   8  11
HETATM   11  C   UNL     1     -38.414 -50.265  11.922  1.00  0.00     0.270 C 
BRANCH  11  12
HETATM   12  O   UNL     1     -38.747 -51.473  12.598  1.00  0.00    -0.382 OA
BRANCH  12  13
HETATM   13  C   UNL     1     -38.639 -51.331  14.019  1.00  0.00     0.163 C 
HETATM   14  C   UNL     1     -37.468 -50.420  14.321  1.00  0.00     0.033 C 
ENDBRANCH  12  13
ENDBRANCH  11  12
ENDBRANCH   8  11
ENDBRANCH   4   7
BRANCH   1  15
HETATM   15  C   UNL     1     -43.052 -45.959   9.359  1.00  0.00     0.250 C 
BRANCH  15  16
HETATM   16  C   UNL     1     -44.252 -46.840   9.660  1.00  0.00     0.237 C 
HETATM   17  N   UNL     1     -45.397 -46.595   8.935  1.00  0.00    -0.360 N 
HETATM   18  H   UNL     1     -45.389 -45.800   8.288  1.00  0.00     0.162 HD
HETATM   19  O   UNL     1     -44.203 -47.689  10.552  1.00  0.00    -0.272 OA
BRANCH  17  20
HETATM   20  C   UNL     1     -46.624 -47.340   9.104  1.00  0.00     0.118 C 
HETATM   21  C   UNL     1     -46.587 -48.666   8.371  1.00  0.00     0.026 C 
ENDBRANCH  17  20
ENDBRANCH  15  16
ENDBRANCH   1  15
TORSDOF 7
ENDMDL
MODEL 4
REMARK VINA RESULT:      -5.3      1.697      6.023
REMARK  7 active torsions:
REMARK  status: ('A' for Active; 'I' for Inactive)
REMARK    1  A    between atoms: C_2  and  N_3 
REMARK       I    between atoms: N_3  and  C_4 
REMARK    2  A    between atoms: C_4  and  C_6 
REMARK    3  A    between atoms: C_6  and  N_7 
REMARK    4  A    between atoms: C_10  and  N_11 
REMARK       I    between atoms: N_11  and  C_12 
REMARK    5  A    between atoms: C_12  and  C_14 
REMARK    6  A    between atoms: C_14  and  O_15 
REMARK    7  A    between atoms: O_15  and  C_16 
ROOT
HETATM    1  N   UNL     1     -42.041 -47.262  10.506  1.00  0.00    -0.293 N 
HETATM    2  C   UNL     1     -40.778 -47.177  11.011  1.00  0.00     0.114 A 
HETATM    3  C   UNL     1     -40.526 -48.403  11.589  1.00  0.00     0.068 A 
HETATM    4  C   UNL     1     -41.696 -49.168  11.372  1.00  0.00     0.123 A 
HETATM    5  N   UNL     1     -42.591 -48.473  10.676  1.00  0.00    -0.283 N 
ATOM      6  HN  UNL     1     -43.501 -48.792  10.344  1.00  0.00     0.189 HD
ENDROOT
BRANCH   4   7
HETATM    7  N   UNL     1     -41.902 -50.451  11.824  1.00  0.00    -0.310 N 
HETATM    8  C   UNL     1     -42.804 -50.786  12.821  1.00  0.00     0.246 C 
HETATM    9  O   UNL     1     -43.559 -50.040  13.438  1.00  0.00    -0.271 OA
HETATM   10  H   UNL     1     -41.288 -51.174  11.473  1.00  0.00     0.170 HD
BRANCH   8  11
HETATM   11  C   UNL     1     -42.752 -52.279  13.144  1.00  0.00     0.270 C 
BRANCH  11  12
HETATM   12  O   UNL     1     -43.480 -53.076  12.214  1.00  0.00    -0.382 OA
BRANCH  12  13
HETATM   13  C   UNL     1     -44.597 -53.721  12.833  1.00  0.00     0.163 C 
HETATM   14  C   UNL     1     -44.099 -54.495  14.035  1.00  0.00     0.033 C 
ENDBRANCH  12  13
ENDBRANCH  11  12
ENDBRANCH   8  11
ENDBRANCH   4   7
BRANCH   1  15
HETATM   15  C   UNL     1     -42.806 -46.236   9.819  1.00  0.00     0.250 C 
BRANCH  15  16
HETATM   16  C   UNL     1     -43.981 -46.784   9.027  1.00  0.00     0.237 C 
HETATM   17  N   UNL     1     -45.236 -46.552   9.541  1.00  0.00    -0.360 N 
HETATM   18  H   UNL     1     -45.299 -46.083  10.451  1.00  0.00     0.162 HD
HETATM   19  O   UNL     1     -43.796 -47.451   8.008  1.00  0.00    -0.272 OA
BRANCH  17  20
HETATM   20  C   UNL     1     -46.454 -47.010   8.913  1.00  0.00     0.118 C 
HETATM   21  C   UNL     1     -46.681 -48.493   9.133  1.00  0.00     0.026 C 
ENDBRANCH  17  20
ENDBRANCH  15  16
ENDBRANCH   1  15
TORSDOF 7
ENDMDL
MODEL 5
REMARK VINA RESULT:      -5.2      1.493      6.171
REMARK  7 active torsions:
REMARK  status: ('A' for Active; 'I' for Inactive)
REMARK    1  A    between atoms: C_2  and  N_3 
REMARK       I    between atoms: N_3  and  C_4 
REMARK    2  A    between atoms: C_4  and  C_6 
REMARK    3  A    between atoms: C_6  and  N_7 
REMARK    4  A    between atoms: C_10  and  N_11 
REMARK       I    between atoms: N_11  and  C_12 
REMARK    5  A    between atoms: C_12  and  C_14 
REMARK    6  A    between atoms: C_14  and  O_15 
REMARK    7  A    between atoms: O_15  and  C_16 
ROOT
HETATM    1  N   UNL     1     -40.648 -50.903  11.860  1.00  0.00    -0.293 N 
HETATM    2  C   UNL     1     -39.806 -51.527  12.730  1.00  0.00     0.114 A 
HETATM    3  C   UNL     1     -40.475 -52.659  13.149  1.00  0.00     0.068 A 
HETATM    4  C   UNL     1     -41.714 -52.636  12.465  1.00  0.00     0.123 A 
HETATM    5  N   UNL     1     -41.786 -51.584  11.655  1.00  0.00    -0.283 N 
ATOM      6  HN  UNL     1     -42.543 -51.346  11.014  1.00  0.00     0.189 HD
ENDROOT
BRANCH   4   7
HETATM    7  N   UNL     1     -42.722 -53.560  12.616  1.00  0.00    -0.310 N 
HETATM    8  C   UNL     1     -44.039 -53.231  12.890  1.00  0.00     0.246 C 
HETATM    9  O   UNL     1     -44.527 -52.112  13.022  1.00  0.00    -0.271 OA
HETATM   10  H   UNL     1     -42.462 -54.538  12.623  1.00  0.00     0.170 HD
BRANCH   8  11
HETATM   11  C   UNL     1     -44.903 -54.480  13.067  1.00  0.00     0.270 C 
BRANCH  11  12
HETATM   12  O   UNL     1     -45.046 -54.869  14.429  1.00  0.00    -0.382 OA
BRANCH  12  13
HETATM   13  C   UNL     1     -46.324 -54.495  14.954  1.00  0.00     0.163 C 
HETATM   14  C   UNL     1     -46.119 -53.396  15.975  1.00  0.00     0.033 C 
ENDBRANCH  12  13
ENDBRANCH  11  12
ENDBRANCH   8  11
ENDBRANCH   4   7
BRANCH   1  15
HETATM   15  C   UNL     1     -40.445 -49.652  11.152  1.00  0.00     0.250 C 
BRANCH  15  16
HETATM   16  C   UNL     1     -41.723 -48.855  10.950  1.00  0.00     0.237 C 
HETATM   17  N   UNL     1     -41.892 -48.258   9.721  1.00  0.00    -0.360 N 
HETATM   18  H   UNL     1     -41.125 -48.334   9.045  1.00  0.00     0.162 HD
HETATM   19  O   UNL     1     -42.528 -48.712  11.872  1.00  0.00    -0.272 OA
BRANCH  17  20
HETATM   20  C   UNL     1     -43.047 -47.463   9.372  1.00  0.00     0.118 C 
HETATM   21  C   UNL     1     -43.530 -47.754   7.965  1.00  0.00     0.026 C 
ENDBRANCH  17  20
ENDBRANCH  15  16
ENDBRANCH   1  15
TORSDOF 7
ENDMDL
MODEL 6
REMARK VINA RESULT:      -5.1      1.671      2.485
REMARK  7 active torsions:
REMARK  status: ('A' for Active; 'I' for Inactive)
REMARK    1  A    between atoms: C_2  and  N_3 
REMARK       I    between atoms: N_3  and  C_4 
REMARK    2  A    between atoms: C_4  and  C_6 
REMARK    3  A    between atoms: C_6  and  N_7 
REMARK    4  A    between atoms: C_10  and  N_11 
REMARK       I    between atoms: N_11  and  C_12 
REMARK    5  A    between atoms: C_12  and  C_14 
REMARK    6  A    between atoms: C_14  and  O_15 
REMARK    7  A    between atoms: O_15  and  C_16 
ROOT
HETATM    1  N   UNL     1     -40.699 -51.022  11.773  1.00  0.00    -0.293 N 
HETATM    2  C   UNL     1     -39.458 -50.561  12.097  1.00  0.00     0.114 A 
HETATM    3  C   UNL     1     -39.427 -49.248  11.675  1.00  0.00     0.068 A 
HETATM    4  C   UNL     1     -40.704 -49.004  11.116  1.00  0.00     0.123 A 
HETATM    5  N   UNL     1     -41.478 -50.080  11.221  1.00  0.00    -0.283 N 
ATOM      6  HN  UNL     1     -42.455 -50.171  10.941  1.00  0.00     0.189 HD
ENDROOT
BRANCH   4   7
HETATM    7  N   UNL     1     -41.102 -47.826  10.528  1.00  0.00    -0.310 N 
HETATM    8  C   UNL     1     -42.359 -47.265  10.691  1.00  0.00     0.246 C 
HETATM    9  O   UNL     1     -43.291 -47.685  11.370  1.00  0.00    -0.271 OA
HETATM   10  H   UNL     1     -40.472 -47.399   9.862  1.00  0.00     0.170 HD
BRANCH   8  11
HETATM   11  C   UNL     1     -42.517 -45.994   9.857  1.00  0.00     0.270 C 
BRANCH  11  12
HETATM   12  O   UNL     1     -41.377 -45.143   9.917  1.00  0.00    -0.382 OA
BRANCH  12  13
HETATM   13  C   UNL     1     -41.369 -44.354  11.111  1.00  0.00     0.163 C 
HETATM   14  C   UNL     1     -40.005 -44.474  11.757  1.00  0.00     0.033 C 
ENDBRANCH  12  13
ENDBRANCH  11  12
ENDBRANCH   8  11
ENDBRANCH   4   7
BRANCH   1  15
HETATM   15  C   UNL     1     -41.244 -52.353  11.971  1.00  0.00     0.250 C 
BRANCH  15  16
HETATM   16  C   UNL     1     -42.615 -52.356  12.626  1.00  0.00     0.237 C 
HETATM   17  N   UNL     1     -43.581 -53.140  12.037  1.00  0.00    -0.360 N 
HETATM   18  H   UNL     1     -43.337 -53.621  11.165  1.00  0.00     0.162 HD
HETATM   19  O   UNL     1     -42.848 -51.640  13.601  1.00  0.00    -0.272 OA
BRANCH  17  20
HETATM   20  C   UNL     1     -44.934 -53.248  12.533  1.00  0.00     0.118 C 
HETATM   21  C   UNL     1     -45.105 -54.439  13.455  1.00  0.00     0.026 C 
ENDBRANCH  17  20
ENDBRANCH  15  16
ENDBRANCH   1  15
TORSDOF 7
ENDMDL
MODEL 7
REMARK VINA RESULT:      -5.1      1.881      2.559
REMARK  7 active torsions:
REMARK  status: ('A' for Active; 'I' for Inactive)
REMARK    1  A    between atoms: C_2  and  N_3 
REMARK       I    between atoms: N_3  and  C_4 
REMARK    2  A    between atoms: C_4  and  C_6 
REMARK    3  A    between atoms: C_6  and  N_7 
REMARK    4  A    between atoms: C_10  and  N_11 
REMARK       I    between atoms: N_11  and  C_12 
REMARK    5  A    between atoms: C_12  and  C_14 
REMARK    6  A    between atoms: C_14  and  O_15 
REMARK    7  A    between atoms: O_15  and  C_16 
ROOT
HETATM    1  N   UNL     1     -42.307 -53.082  12.966  1.00  0.00    -0.293 N 
HETATM    2  C   UNL     1     -40.971 -53.071  13.241  1.00  0.00     0.114 A 
HETATM    3  C   UNL     1     -40.480 -51.927  12.646  1.00  0.00     0.068 A 
HETATM    4  C   UNL     1     -41.600 -51.307  12.043  1.00  0.00     0.123 A 
HETATM    5  N   UNL     1     -42.709 -52.001  12.283  1.00  0.00    -0.283 N 
ATOM      6  HN  UNL     1     -43.661 -51.762  12.006  1.00  0.00     0.189 HD
ENDROOT
BRANCH   4   7
HETATM    7  N   UNL     1     -41.563 -50.151  11.298  1.00  0.00    -0.310 N 
HETATM    8  C   UNL     1     -42.230 -48.987  11.640  1.00  0.00     0.246 C 
HETATM    9  O   UNL     1     -42.924 -48.777  12.631  1.00  0.00    -0.271 OA
HETATM   10  H   UNL     1     -41.101 -50.190  10.398  1.00  0.00     0.170 HD
BRANCH   8  11
HETATM   11  C   UNL     1     -42.048 -47.903  10.577  1.00  0.00     0.270 C 
BRANCH  11  12
HETATM   12  O   UNL     1     -43.139 -46.990  10.521  1.00  0.00    -0.382 OA
BRANCH  12  13
HETATM   13  C   UNL     1     -44.163 -47.445   9.630  1.00  0.00     0.163 C 
HETATM   14  C   UNL     1     -43.583 -47.528   8.234  1.00  0.00     0.033 C 
ENDBRANCH  12  13
ENDBRANCH  11  12
ENDBRANCH   8  11
ENDBRANCH   4   7
BRANCH   1  15
HETATM   15  C   UNL     1     -43.292 -54.083  13.335  1.00  0.00     0.250 C 
BRANCH  15  16
HETATM   16  C   UNL     1     -44.723 -53.575  13.278  1.00  0.00     0.237 C 
HETATM   17  N   UNL     1     -45.361 -53.388  14.484  1.00  0.00    -0.360 N 
HETATM   18  H   UNL     1     -44.859 -53.660  15.336  1.00  0.00     0.162 HD
HETATM   19  O   UNL     1     -45.286 -53.400  12.197  1.00  0.00    -0.272 OA
BRANCH  17  20
HETATM   20  C   UNL     1     -46.722 -52.917  14.602  1.00  0.00     0.118 C 
HETATM   21  C   UNL     1     -46.793 -51.403  14.656  1.00  0.00     0.026 C 
ENDBRANCH  17  20
ENDBRANCH  15  16
ENDBRANCH   1  15
TORSDOF 7
ENDMDL
MODEL 8
REMARK VINA RESULT:      -4.9      4.628      6.430
REMARK  7 active torsions:
REMARK  status: ('A' for Active; 'I' for Inactive)
REMARK    1  A    between atoms: C_2  and  N_3 
REMARK       I    between atoms: N_3  and  C_4 
REMARK    2  A    between atoms: C_4  and  C_6 
REMARK    3  A    between atoms: C_6  and  N_7 
REMARK    4  A    between atoms: C_10  and  N_11 
REMARK       I    between atoms: N_11  and  C_12 
REMARK    5  A    between atoms: C_12  and  C_14 
REMARK    6  A    between atoms: C_14  and  O_15 
REMARK    7  A    between atoms: O_15  and  C_16 
ROOT
HETATM    1  N   UNL     1     -41.845 -46.651  10.680  1.00  0.00    -0.293 N 
HETATM    2  C   UNL     1     -40.520 -46.438  10.918  1.00  0.00     0.114 A 
HETATM    3  C   UNL     1     -40.442 -45.184  11.488  1.00  0.00     0.068 A 
HETATM    4  C   UNL     1     -41.777 -44.722  11.562  1.00  0.00     0.123 A 
HETATM    5  N   UNL     1     -42.621 -45.642  11.105  1.00  0.00    -0.283 N 
ATOM      6  HN  UNL     1     -43.639 -45.593  11.082  1.00  0.00     0.189 HD
ENDROOT
BRANCH   4   7
HETATM    7  N   UNL     1     -42.166 -43.488  12.029  1.00  0.00    -0.310 N 
HETATM    8  C   UNL     1     -43.033 -42.643  11.356  1.00  0.00     0.246 C 
HETATM    9  O   UNL     1     -43.601 -42.840  10.285  1.00  0.00    -0.271 OA
HETATM   10  H   UNL     1     -41.712 -43.140  12.864  1.00  0.00     0.170 HD
BRANCH   8  11
HETATM   11  C   UNL     1     -43.215 -41.319  12.099  1.00  0.00     0.270 C 
BRANCH  11  12
HETATM   12  O   UNL     1     -44.475 -41.216  12.753  1.00  0.00    -0.382 OA
BRANCH  12  13
HETATM   13  C   UNL     1     -45.313 -40.234  12.135  1.00  0.00     0.163 C 
HETATM   14  C   UNL     1     -46.291 -39.719  13.170  1.00  0.00     0.033 C 
ENDBRANCH  12  13
ENDBRANCH  11  12
ENDBRANCH   8  11
ENDBRANCH   4   7
BRANCH   1  15
HETATM   15  C   UNL     1     -42.474 -47.805  10.063  1.00  0.00     0.250 C 
BRANCH  15  16
HETATM   16  C   UNL     1     -43.710 -47.460   9.250  1.00  0.00     0.237 C 
HETATM   17  N   UNL     1     -44.906 -47.977   9.693  1.00  0.00    -0.360 N 
HETATM   18  H   UNL     1     -44.882 -48.610  10.500  1.00  0.00     0.162 HD
HETATM   19  O   UNL     1     -43.619 -46.796   8.216  1.00  0.00    -0.272 OA
BRANCH  17  20
HETATM   20  C   UNL     1     -46.170 -47.748   9.030  1.00  0.00     0.118 C 
HETATM   21  C   UNL     1     -46.527 -48.878   8.085  1.00  0.00     0.026 C 
ENDBRANCH  17  20
ENDBRANCH  15  16
ENDBRANCH   1  15
TORSDOF 7
ENDMDL
MODEL 9
REMARK VINA RESULT:      -4.6      1.954      2.192
REMARK  7 active torsions:
REMARK  status: ('A' for Active; 'I' for Inactive)
REMARK    1  A    between atoms: C_2  and  N_3 
REMARK       I    between atoms: N_3  and  C_4 
REMARK    2  A    between atoms: C_4  and  C_6 
REMARK    3  A    between atoms: C_6  and  N_7 
REMARK    4  A    between atoms: C_10  and  N_11 
REMARK       I    between atoms: N_11  and  C_12 
REMARK    5  A    between atoms: C_12  and  C_14 
REMARK    6  A    between atoms: C_14  and  O_15 
REMARK    7  A    between atoms: O_15  and  C_16 
ROOT
HETATM    1  N   UNL     1     -38.866 -50.965  13.192  1.00  0.00    -0.293 N 
HETATM    2  C   UNL     1     -37.730 -50.782  12.462  1.00  0.00     0.114 A 
HETATM    3  C   UNL     1     -38.038 -49.807  11.536  1.00  0.00     0.068 A 
HETATM    4  C   UNL     1     -39.384 -49.456  11.794  1.00  0.00     0.123 A 
HETATM    5  N   UNL     1     -39.860 -50.140  12.830  1.00  0.00    -0.283 N 
ATOM      6  HN  UNL     1     -40.782 -50.055  13.258  1.00  0.00     0.189 HD
ENDROOT
BRANCH   4   7
HETATM    7  N   UNL     1     -40.120 -48.543  11.073  1.00  0.00    -0.310 N 
HETATM    8  C   UNL     1     -41.503 -48.474  11.094  1.00  0.00     0.246 C 
HETATM    9  O   UNL     1     -42.284 -49.166  11.741  1.00  0.00    -0.271 OA
HETATM   10  H   UNL     1     -39.622 -47.956  10.417  1.00  0.00     0.170 HD
BRANCH   8  11
HETATM   11  C   UNL     1     -42.025 -47.402  10.137  1.00  0.00     0.270 C 
BRANCH  11  12
HETATM   12  O   UNL     1     -42.972 -47.906   9.200  1.00  0.00    -0.382 OA
BRANCH  12  13
HETATM   13  C   UNL     1     -44.021 -46.964   8.953  1.00  0.00     0.163 C 
HETATM   14  C   UNL     1     -45.311 -47.525   9.514  1.00  0.00     0.033 C 
ENDBRANCH  12  13
ENDBRANCH  11  12
ENDBRANCH   8  11
ENDBRANCH   4   7
BRANCH   1  15
HETATM   15  C   UNL     1     -39.096 -51.901  14.279  1.00  0.00     0.250 C 
BRANCH  15  16
HETATM   16  C   UNL     1     -39.864 -53.142  13.859  1.00  0.00     0.237 C 
HETATM   17  N   UNL     1     -41.225 -53.126  14.065  1.00  0.00    -0.360 N 
HETATM   18  H   UNL     1     -41.625 -52.311  14.542  1.00  0.00     0.162 HD
HETATM   19  O   UNL     1     -39.274 -54.126  13.413  1.00  0.00    -0.272 OA
BRANCH  17  20
HETATM   20  C   UNL     1     -42.097 -54.228  13.726  1.00  0.00     0.118 C 
HETATM   21  C   UNL     1     -42.710 -54.864  14.958  1.00  0.00     0.026 C 
ENDBRANCH  17  20
ENDBRANCH  15  16
ENDBRANCH   1  15
TORSDOF 7
ENDMDL
