MODEL 1
REMARK VINA RESULT:      -6.2      0.000      0.000
REMARK  4 active torsions:
REMARK  status: ('A' for Active; 'I' for Inactive)
REMARK    1  A    between atoms: C_2  and  C_3 
REMARK    2  A    between atoms: C_3  and  C_4 
REMARK       I    between atoms: N_10  and  C_11 
REMARK       I    between atoms: C_11  and  N_13 
REMARK    3  A    between atoms: N_13  and  C_14 
REMARK    4  A    between atoms: C_14  and  C_15 
ROOT
HETATM    1  C   UNL     1     -45.024 -47.188   9.490  1.00  0.00     0.069 A 
HETATM    2  N   UNL     1     -44.386 -48.110  10.183  1.00  0.00    -0.296 N 
ATOM      3  HN  UNL     1     -44.818 -48.969  10.521  1.00  0.00     0.187 HD
HETATM    4  N   UNL     1     -43.072 -47.777  10.394  1.00  0.00    -0.279 N 
ATOM      5  HN  UNL     1     -42.417 -48.349  10.927  1.00  0.00     0.189 HD
HETATM    6  C   UNL     1     -42.759 -46.634   9.829  1.00  0.00     0.169 A 
HETATM    7  N   UNL     1     -41.557 -45.988   9.868  1.00  0.00    -0.288 N 
HETATM    8  C   UNL     1     -40.502 -46.362  10.650  1.00  0.00     0.322 C 
HETATM    9  O   UNL     1     -39.445 -45.741  10.593  1.00  0.00    -0.247 OA
HETATM   10  N   UNL     1     -40.711 -47.400  11.510  1.00  0.00    -0.342 N 
HETATM   11  S   UNL     1     -44.022 -45.881   8.975  1.00  0.00    -0.038 SA
HETATM   12  H   UNL     1     -41.429 -45.153   9.311  1.00  0.00     0.172 HD
HETATM   13  H   UNL     1     -41.544 -47.960  11.351  1.00  0.00     0.164 HD
ENDROOT
BRANCH  10  14
HETATM   14  C   UNL     1     -39.708 -47.898  12.425  1.00  0.00     0.131 C 
BRANCH  14  15
HETATM   15  C   UNL     1     -39.411 -49.385  12.251  1.00  0.00     0.029 C 
HETATM   16  C   UNL     1     -39.484 -50.220  13.520  1.00  0.00     0.034 C 
HETATM   17  C   UNL     1     -38.418 -51.289  13.336  1.00  0.00     0.168 C 
HETATM   18  O   UNL     1     -37.805 -51.073  12.060  1.00  0.00    -0.391 OA
HETATM   19  C   UNL     1     -38.029 -49.702  11.710  1.00  0.00     0.173 C 
ENDBRANCH  14  15
ENDBRANCH  10  14
BRANCH   1  20
HETATM   20  C   UNL     1     -46.481 -47.250   9.167  1.00  0.00     0.066 C 
BRANCH  20  21
HETATM   21  C   UNL     1     -46.915 -48.694   8.894  1.00  0.00     0.002 C 
HETATM   22  C   UNL     1     -46.501 -49.153   7.506  1.00  0.00     0.005 C 
ENDBRANCH  20  21
ENDBRANCH   1  20
TORSDOF 4
ENDMDL
MODEL 2
REMARK VINA RESULT:      -6.2      3.158      6.105
REMARK  4 active torsions:
REMARK  status: ('A' for Active; 'I' for Inactive)
REMARK    1  A    between atoms: C_2  and  C_3 
REMARK    2  A    between atoms: C_3  and  C_4 
REMARK       I    between atoms: N_10  and  C_11 
REMARK       I    between atoms: C_11  and  N_13 
REMARK    3  A    between atoms: N_13  and  C_14 
REMARK    4  A    between atoms: C_14  and  C_15 
ROOT
HETATM    1  C   UNL     1     -41.042 -51.324  11.973  1.00  0.00     0.069 A 
HETATM    2  N   UNL     1     -42.172 -50.691  11.725  1.00  0.00    -0.296 N 
ATOM      3  HN  UNL     1     -43.091 -51.131  11.762  1.00  0.00     0.187 HD
HETATM    4  N   UNL     1     -41.964 -49.372  11.412  1.00  0.00    -0.279 N 
ATOM      5  HN  UNL     1     -42.708 -48.720  11.167  1.00  0.00     0.189 HD
HETATM    6  C   UNL     1     -40.692 -49.050  11.465  1.00  0.00     0.169 A 
HETATM    7  N   UNL     1     -40.127 -47.841  11.180  1.00  0.00    -0.288 N 
HETATM    8  C   UNL     1     -40.796 -46.784  10.631  1.00  0.00     0.322 C 
HETATM    9  O   UNL     1     -40.213 -45.720  10.443  1.00  0.00    -0.247 OA
HETATM   10  N   UNL     1     -42.093 -46.999  10.268  1.00  0.00    -0.342 N 
HETATM   11  S   UNL     1     -39.646 -50.312  11.922  1.00  0.00    -0.038 SA
HETATM   12  H   UNL     1     -39.139 -47.708  11.348  1.00  0.00     0.172 HD
HETATM   13  H   UNL     1     -42.532 -47.839  10.631  1.00  0.00     0.164 HD
ENDROOT
BRANCH  10  14
HETATM   14  C   UNL     1     -42.928 -45.995   9.648  1.00  0.00     0.131 C 
BRANCH  14  15
HETATM   15  C   UNL     1     -43.914 -46.566   8.632  1.00  0.00     0.029 C 
HETATM   16  C   UNL     1     -45.260 -46.994   9.196  1.00  0.00     0.034 C 
HETATM   17  C   UNL     1     -45.664 -48.194   8.355  1.00  0.00     0.168 C 
HETATM   18  O   UNL     1     -44.628 -48.414   7.390  1.00  0.00    -0.391 OA
HETATM   19  C   UNL     1     -43.436 -47.810   7.906  1.00  0.00     0.173 C 
ENDBRANCH  14  15
ENDBRANCH  10  14
BRANCH   1  20
HETATM   20  C   UNL     1     -40.957 -52.785  12.276  1.00  0.00     0.066 C 
BRANCH  20  21
HETATM   21  C   UNL     1     -41.777 -53.129  13.524  1.00  0.00     0.002 C 
HETATM   22  C   UNL     1     -42.996 -53.968  13.182  1.00  0.00     0.005 C 
ENDBRANCH  20  21
ENDBRANCH   1  20
TORSDOF 4
ENDMDL
MODEL 3
REMARK VINA RESULT:      -6.1      5.539      7.909
REMARK  4 active torsions:
REMARK  status: ('A' for Active; 'I' for Inactive)
REMARK    1  A    between atoms: C_2  and  C_3 
REMARK    2  A    between atoms: C_3  and  C_4 
REMARK       I    between atoms: N_10  and  C_11 
REMARK       I    between atoms: C_11  and  N_13 
REMARK    3  A    between atoms: N_13  and  C_14 
REMARK    4  A    between atoms: C_14  and  C_15 
ROOT
HETATM    1  C   UNL     1     -40.384 -50.302  12.223  1.00  0.00     0.069 A 
HETATM    2  N   UNL     1     -41.588 -49.792  12.048  1.00  0.00    -0.296 N 
ATOM      3  HN  UNL     1     -41.771 -48.798  11.914  1.00  0.00     0.187 HD
HETATM    4  N   UNL     1     -42.563 -50.756  12.069  1.00  0.00    -0.279 N 
ATOM      5  HN  UNL     1     -43.560 -50.562  11.974  1.00  0.00     0.189 HD
HETATM    6  C   UNL     1     -42.060 -51.959  12.227  1.00  0.00     0.169 A 
HETATM    7  N   UNL     1     -42.739 -53.138  12.328  1.00  0.00    -0.288 N 
HETATM    8  C   UNL     1     -44.097 -53.243  12.438  1.00  0.00     0.322 C 
HETATM    9  O   UNL     1     -44.625 -54.350  12.487  1.00  0.00    -0.247 OA
HETATM   10  N   UNL     1     -44.797 -52.077  12.541  1.00  0.00    -0.342 N 
HETATM   11  S   UNL     1     -40.364 -52.023  12.338  1.00  0.00    -0.038 SA
HETATM   12  H   UNL     1     -42.219 -54.005  12.359  1.00  0.00     0.172 HD
HETATM   13  H   UNL     1     -44.298 -51.225  12.304  1.00  0.00     0.164 HD
ENDROOT
BRANCH  10  14
HETATM   14  C   UNL     1     -46.234 -52.016  12.693  1.00  0.00     0.131 C 
BRANCH  14  15
HETATM   15  C   UNL     1     -46.681 -51.673  14.112  1.00  0.00     0.029 C 
HETATM   16  C   UNL     1     -45.639 -50.980  14.977  1.00  0.00     0.034 C 
HETATM   17  C   UNL     1     -45.907 -51.493  16.382  1.00  0.00     0.168 C 
HETATM   18  O   UNL     1     -47.018 -52.394  16.310  1.00  0.00    -0.391 OA
HETATM   19  C   UNL     1     -47.094 -52.862  14.958  1.00  0.00     0.173 C 
ENDBRANCH  14  15
ENDBRANCH  10  14
BRANCH   1  20
HETATM   20  C   UNL     1     -39.139 -49.482  12.312  1.00  0.00     0.066 C 
BRANCH  20  21
HETATM   21  C   UNL     1     -37.895 -50.367  12.176  1.00  0.00     0.002 C 
HETATM   22  C   UNL     1     -37.152 -50.097  10.879  1.00  0.00     0.005 C 
ENDBRANCH  20  21
ENDBRANCH   1  20
TORSDOF 4
ENDMDL
MODEL 4
REMARK VINA RESULT:      -6.1      1.480      2.109
REMARK  4 active torsions:
REMARK  status: ('A' for Active; 'I' for Inactive)
REMARK    1  A    between atoms: C_2  and  C_3 
REMARK    2  A    between atoms: C_3  and  C_4 
REMARK       I    between atoms: N_10  and  C_11 
REMARK       I    between atoms: C_11  and  N_13 
REMARK    3  A    between atoms: N_13  and  C_14 
REMARK    4  A    between atoms: C_14  and  C_15 
ROOT
HETATM    1  C   UNL     1     -42.969 -47.394   9.377  1.00  0.00     0.069 A 
HETATM    2  N   UNL     1     -42.257 -48.428   9.782  1.00  0.00    -0.296 N 
ATOM      3  HN  UNL     1     -42.392 -49.381   9.445  1.00  0.00     0.187 HD
HETATM    4  N   UNL     1     -41.314 -48.069  10.711  1.00  0.00    -0.279 N 
ATOM      5  HN  UNL     1     -40.678 -48.727  11.163  1.00  0.00     0.189 HD
HETATM    6  C   UNL     1     -41.326 -46.778  10.949  1.00  0.00     0.169 A 
HETATM    7  N   UNL     1     -40.553 -46.087  11.837  1.00  0.00    -0.288 N 
HETATM    8  C   UNL     1     -39.724 -46.667  12.755  1.00  0.00     0.322 C 
HETATM    9  O   UNL     1     -39.037 -45.964  13.491  1.00  0.00    -0.247 OA
HETATM   10  N   UNL     1     -39.751 -48.028  12.836  1.00  0.00    -0.342 N 
HETATM   11  S   UNL     1     -42.465 -45.889  10.051  1.00  0.00    -0.038 SA
HETATM   12  H   UNL     1     -40.606 -45.078  11.855  1.00  0.00     0.172 HD
HETATM   13  H   UNL     1     -40.203 -48.519  12.070  1.00  0.00     0.164 HD
ENDROOT
BRANCH  10  14
HETATM   14  C   UNL     1     -38.958 -48.791  13.774  1.00  0.00     0.131 C 
BRANCH  14  15
HETATM   15  C   UNL     1     -37.784 -49.520  13.125  1.00  0.00     0.029 C 
HETATM   16  C   UNL     1     -37.735 -49.460  11.606  1.00  0.00     0.034 C 
HETATM   17  C   UNL     1     -37.143 -50.797  11.190  1.00  0.00     0.168 C 
HETATM   18  O   UNL     1     -36.874 -51.542  12.384  1.00  0.00    -0.391 OA
HETATM   19  C   UNL     1     -37.716 -51.008  13.413  1.00  0.00     0.173 C 
ENDBRANCH  14  15
ENDBRANCH  10  14
BRANCH   1  20
HETATM   20  C   UNL     1     -44.111 -47.497   8.419  1.00  0.00     0.066 C 
BRANCH  20  21
HETATM   21  C   UNL     1     -45.444 -47.256   9.136  1.00  0.00     0.002 C 
HETATM   22  C   UNL     1     -46.476 -48.310   8.773  1.00  0.00     0.005 C 
ENDBRANCH  20  21
ENDBRANCH   1  20
TORSDOF 4
ENDMDL
MODEL 5
REMARK VINA RESULT:      -6.1      2.097      2.793
REMARK  4 active torsions:
REMARK  status: ('A' for Active; 'I' for Inactive)
REMARK    1  A    between atoms: C_2  and  C_3 
REMARK    2  A    between atoms: C_3  and  C_4 
REMARK       I    between atoms: N_10  and  C_11 
REMARK       I    between atoms: C_11  and  N_13 
REMARK    3  A    between atoms: N_13  and  C_14 
REMARK    4  A    between atoms: C_14  and  C_15 
ROOT
HETATM    1  C   UNL     1     -43.012 -47.037   9.468  1.00  0.00     0.069 A 
HETATM    2  N   UNL     1     -42.511 -48.248   9.324  1.00  0.00    -0.296 N 
ATOM      3  HN  UNL     1     -42.874 -48.941   8.670  1.00  0.00     0.187 HD
HETATM    4  N   UNL     1     -41.443 -48.464  10.157  1.00  0.00    -0.279 N 
ATOM      5  HN  UNL     1     -40.931 -49.345  10.213  1.00  0.00     0.189 HD
HETATM    6  C   UNL     1     -41.158 -47.402  10.875  1.00  0.00     0.169 A 
HETATM    7  N   UNL     1     -40.187 -47.276  11.826  1.00  0.00    -0.288 N 
HETATM    8  C   UNL     1     -39.434 -48.311  12.305  1.00  0.00     0.322 C 
HETATM    9  O   UNL     1     -38.556 -48.097  13.136  1.00  0.00    -0.247 OA
HETATM   10  N   UNL     1     -39.748 -49.560  11.856  1.00  0.00    -0.342 N 
HETATM   11  S   UNL     1     -42.144 -46.048  10.583  1.00  0.00    -0.038 SA
HETATM   12  H   UNL     1     -40.020 -46.370  12.241  1.00  0.00     0.172 HD
HETATM   13  H   UNL     1     -40.353 -49.610  11.042  1.00  0.00     0.164 HD
ENDROOT
BRANCH  10  14
HETATM   14  C   UNL     1     -39.068 -50.761  12.287  1.00  0.00     0.131 C 
BRANCH  14  15
HETATM   15  C   UNL     1     -39.971 -51.733  13.042  1.00  0.00     0.029 C 
HETATM   16  C   UNL     1     -39.253 -52.753  13.912  1.00  0.00     0.034 C 
HETATM   17  C   UNL     1     -40.121 -53.998  13.837  1.00  0.00     0.168 C 
HETATM   18  O   UNL     1     -41.242 -53.694  12.999  1.00  0.00    -0.391 OA
HETATM   19  C   UNL     1     -40.859 -52.595  12.165  1.00  0.00     0.173 C 
ENDBRANCH  14  15
ENDBRANCH  10  14
BRANCH   1  20
HETATM   20  C   UNL     1     -44.220 -46.546   8.739  1.00  0.00     0.066 C 
BRANCH  20  21
HETATM   21  C   UNL     1     -45.322 -47.611   8.734  1.00  0.00     0.002 C 
HETATM   22  C   UNL     1     -46.674 -47.023   9.097  1.00  0.00     0.005 C 
ENDBRANCH  20  21
ENDBRANCH   1  20
TORSDOF 4
ENDMDL
MODEL 6
REMARK VINA RESULT:      -6.0      4.578      6.445
REMARK  4 active torsions:
REMARK  status: ('A' for Active; 'I' for Inactive)
REMARK    1  A    between atoms: C_2  and  C_3 
REMARK    2  A    between atoms: C_3  and  C_4 
REMARK       I    between atoms: N_10  and  C_11 
REMARK       I    between atoms: C_11  and  N_13 
REMARK    3  A    between atoms: N_13  and  C_14 
REMARK    4  A    between atoms: C_14  and  C_15 
ROOT
HETATM    1  C   UNL     1     -41.087 -48.320  11.125  1.00  0.00     0.069 A 
HETATM    2  N   UNL     1     -41.960 -49.304  11.036  1.00  0.00    -0.296 N 
ATOM      3  HN  UNL     1     -42.881 -49.212  10.609  1.00  0.00     0.187 HD
HETATM    4  N   UNL     1     -41.482 -50.467  11.586  1.00  0.00    -0.279 N 
ATOM      5  HN  UNL     1     -42.014 -51.335  11.636  1.00  0.00     0.189 HD
HETATM    6  C   UNL     1     -40.258 -50.327  12.041  1.00  0.00     0.169 A 
HETATM    7  N   UNL     1     -39.495 -51.262  12.678  1.00  0.00    -0.288 N 
HETATM    8  C   UNL     1     -39.951 -52.481  13.092  1.00  0.00     0.322 C 
HETATM    9  O   UNL     1     -39.181 -53.275  13.626  1.00  0.00    -0.247 OA
HETATM   10  N   UNL     1     -41.282 -52.728  12.929  1.00  0.00    -0.342 N 
HETATM   11  S   UNL     1     -39.577 -48.784  11.819  1.00  0.00    -0.038 SA
HETATM   12  H   UNL     1     -38.532 -51.044  12.898  1.00  0.00     0.172 HD
HETATM   13  H   UNL     1     -41.789 -52.096  12.317  1.00  0.00     0.164 HD
ENDROOT
BRANCH  10  14
HETATM   14  C   UNL     1     -41.926 -53.956  13.341  1.00  0.00     0.131 C 
BRANCH  14  15
HETATM   15  C   UNL     1     -43.409 -53.787  13.660  1.00  0.00     0.029 C 
HETATM   16  C   UNL     1     -44.063 -54.961  14.371  1.00  0.00     0.034 C 
HETATM   17  C   UNL     1     -45.487 -54.985  13.839  1.00  0.00     0.168 C 
HETATM   18  O   UNL     1     -45.620 -53.903  12.910  1.00  0.00    -0.391 OA
HETATM   19  C   UNL     1     -44.303 -53.575  12.452  1.00  0.00     0.173 C 
ENDBRANCH  14  15
ENDBRANCH  10  14
BRANCH   1  20
HETATM   20  C   UNL     1     -41.361 -46.924  10.671  1.00  0.00     0.066 C 
BRANCH  20  21
HETATM   21  C   UNL     1     -40.339 -45.949  11.267  1.00  0.00     0.002 C 
HETATM   22  C   UNL     1     -39.704 -45.077  10.198  1.00  0.00     0.005 C 
ENDBRANCH  20  21
ENDBRANCH   1  20
TORSDOF 4
ENDMDL
MODEL 7
REMARK VINA RESULT:      -5.9      2.049      3.002
REMARK  4 active torsions:
REMARK  status: ('A' for Active; 'I' for Inactive)
REMARK    1  A    between atoms: C_2  and  C_3 
REMARK    2  A    between atoms: C_3  and  C_4 
REMARK       I    between atoms: N_10  and  C_11 
REMARK       I    between atoms: C_11  and  N_13 
REMARK    3  A    between atoms: N_13  and  C_14 
REMARK    4  A    between atoms: C_14  and  C_15 
ROOT
HETATM    1  C   UNL     1     -45.034 -47.176   9.519  1.00  0.00     0.069 A 
HETATM    2  N   UNL     1     -44.395 -47.990  10.336  1.00  0.00    -0.296 N 
ATOM      3  HN  UNL     1     -44.823 -48.801  10.782  1.00  0.00     0.187 HD
HETATM    4  N   UNL     1     -43.087 -47.618  10.514  1.00  0.00    -0.279 N 
ATOM      5  HN  UNL     1     -42.433 -48.105  11.126  1.00  0.00     0.189 HD
HETATM    6  C   UNL     1     -42.778 -46.558   9.803  1.00  0.00     0.169 A 
HETATM    7  N   UNL     1     -41.583 -45.899   9.767  1.00  0.00    -0.288 N 
HETATM    8  C   UNL     1     -40.534 -46.154  10.603  1.00  0.00     0.322 C 
HETATM    9  O   UNL     1     -39.481 -45.534  10.473  1.00  0.00    -0.247 OA
HETATM   10  N   UNL     1     -40.743 -47.069  11.592  1.00  0.00    -0.342 N 
HETATM   11  S   UNL     1     -44.039 -45.940   8.842  1.00  0.00    -0.038 SA
HETATM   12  H   UNL     1     -41.456 -45.146   9.105  1.00  0.00     0.172 HD
HETATM   13  H   UNL     1     -41.568 -47.653  11.502  1.00  0.00     0.164 HD
ENDROOT
BRANCH  10  14
HETATM   14  C   UNL     1     -39.746 -47.428  12.576  1.00  0.00     0.131 C 
BRANCH  14  15
HETATM   15  C   UNL     1     -39.813 -46.583  13.846  1.00  0.00     0.029 C 
HETATM   16  C   UNL     1     -41.150 -45.910  14.114  1.00  0.00     0.034 C 
HETATM   17  C   UNL     1     -40.788 -44.594  14.785  1.00  0.00     0.168 C 
HETATM   18  O   UNL     1     -39.360 -44.541  14.891  1.00  0.00    -0.391 OA
HETATM   19  C   UNL     1     -38.830 -45.428  13.899  1.00  0.00     0.173 C 
ENDBRANCH  14  15
ENDBRANCH  10  14
BRANCH   1  20
HETATM   20  C   UNL     1     -46.487 -47.298   9.193  1.00  0.00     0.066 C 
BRANCH  20  21
HETATM   21  C   UNL     1     -46.857 -48.755   8.896  1.00  0.00     0.002 C 
HETATM   22  C   UNL     1     -46.467 -49.157   7.484  1.00  0.00     0.005 C 
ENDBRANCH  20  21
ENDBRANCH   1  20
TORSDOF 4
ENDMDL
MODEL 8
REMARK VINA RESULT:      -5.7      4.528      6.438
REMARK  4 active torsions:
REMARK  status: ('A' for Active; 'I' for Inactive)
REMARK    1  A    between atoms: C_2  and  C_3 
REMARK    2  A    between atoms: C_3  and  C_4 
REMARK       I    between atoms: N_10  and  C_11 
REMARK       I    between atoms: C_11  and  N_13 
REMARK    3  A    between atoms: N_13  and  C_14 
REMARK    4  A    between atoms: C_14  and  C_15 
ROOT
HETATM    1  C   UNL     1     -41.560 -47.559  11.232  1.00  0.00     0.069 A 
HETATM    2  N   UNL     1     -42.665 -48.275  11.178  1.00  0.00    -0.296 N 
ATOM      3  HN  UNL     1     -43.591 -47.882  11.009  1.00  0.00     0.187 HD
HETATM    4  N   UNL     1     -42.422 -49.610  11.377  1.00  0.00    -0.279 N 
ATOM      5  HN  UNL     1     -43.149 -50.326  11.395  1.00  0.00     0.189 HD
HETATM    6  C   UNL     1     -41.143 -49.857  11.542  1.00  0.00     0.169 A 
HETATM    7  N   UNL     1     -40.554 -51.061  11.796  1.00  0.00    -0.288 N 
HETATM    8  C   UNL     1     -41.234 -52.211  12.079  1.00  0.00     0.322 C 
HETATM    9  O   UNL     1     -40.619 -53.259  12.259  1.00  0.00    -0.247 OA
HETATM   10  N   UNL     1     -42.589 -52.112  12.199  1.00  0.00    -0.342 N 
HETATM   11  S   UNL     1     -40.127 -48.496  11.445  1.00  0.00    -0.038 SA
HETATM   12  H   UNL     1     -39.545 -51.121  11.813  1.00  0.00     0.172 HD
HETATM   13  H   UNL     1     -43.013 -51.256  11.852  1.00  0.00     0.164 HD
ENDROOT
BRANCH  10  14
HETATM   14  C   UNL     1     -43.449 -53.227  12.524  1.00  0.00     0.131 C 
BRANCH  14  15
HETATM   15  C   UNL     1     -44.911 -52.832  12.714  1.00  0.00     0.029 C 
HETATM   16  C   UNL     1     -45.147 -51.413  13.208  1.00  0.00     0.034 C 
HETATM   17  C   UNL     1     -46.387 -51.513  14.082  1.00  0.00     0.168 C 
HETATM   18  O   UNL     1     -46.815 -52.880  14.070  1.00  0.00    -0.391 OA
HETATM   19  C   UNL     1     -45.678 -53.675  13.715  1.00  0.00     0.173 C 
ENDBRANCH  14  15
ENDBRANCH  10  14
BRANCH   1  20
HETATM   20  C   UNL     1     -41.528 -46.069  11.118  1.00  0.00     0.066 C 
BRANCH  20  21
HETATM   21  C   UNL     1     -40.143 -45.588  10.675  1.00  0.00     0.002 C 
HETATM   22  C   UNL     1     -39.561 -44.577  11.648  1.00  0.00     0.005 C 
ENDBRANCH  20  21
ENDBRANCH   1  20
TORSDOF 4
ENDMDL
MODEL 9
REMARK VINA RESULT:      -5.4      4.409      5.667
REMARK  4 active torsions:
REMARK  status: ('A' for Active; 'I' for Inactive)
REMARK    1  A    between atoms: C_2  and  C_3 
REMARK    2  A    between atoms: C_3  and  C_4 
REMARK       I    between atoms: N_10  and  C_11 
REMARK       I    between atoms: C_11  and  N_13 
REMARK    3  A    between atoms: N_13  and  C_14 
REMARK    4  A    between atoms: C_14  and  C_15 
ROOT
HETATM    1  C   UNL     1     -44.845 -51.970  13.296  1.00  0.00     0.069 A 
HETATM    2  N   UNL     1     -43.966 -51.310  14.024  1.00  0.00    -0.296 N 
ATOM      3  HN  UNL     1     -44.168 -50.435  14.507  1.00  0.00     0.187 HD
HETATM    4  N   UNL     1     -42.748 -51.941  14.055  1.00  0.00    -0.279 N 
ATOM      5  HN  UNL     1     -41.930 -51.579  14.545  1.00  0.00     0.189 HD
HETATM    6  C   UNL     1     -42.761 -53.065  13.377  1.00  0.00     0.169 A 
HETATM    7  N   UNL     1     -41.720 -53.923  13.168  1.00  0.00    -0.288 N 
HETATM    8  C   UNL     1     -40.423 -53.665  13.512  1.00  0.00     0.322 C 
HETATM    9  O   UNL     1     -39.557 -54.513  13.318  1.00  0.00    -0.247 OA
HETATM   10  N   UNL     1     -40.155 -52.427  14.016  1.00  0.00    -0.342 N 
HETATM   11  S   UNL     1     -44.254 -53.464  12.668  1.00  0.00    -0.038 SA
HETATM   12  H   UNL     1     -41.893 -54.801  12.698  1.00  0.00     0.172 HD
HETATM   13  H   UNL     1     -40.955 -51.873  14.309  1.00  0.00     0.164 HD
ENDROOT
BRANCH  10  14
HETATM   14  C   UNL     1     -38.833 -51.986  14.400  1.00  0.00     0.131 C 
BRANCH  14  15
HETATM   15  C   UNL     1     -38.352 -50.760  13.629  1.00  0.00     0.029 C 
HETATM   16  C   UNL     1     -39.419 -50.034  12.824  1.00  0.00     0.034 C 
HETATM   17  C   UNL     1     -38.685 -49.511  11.600  1.00  0.00     0.168 C 
HETATM   18  O   UNL     1     -37.313 -49.907  11.716  1.00  0.00    -0.391 OA
HETATM   19  C   UNL     1     -37.273 -51.034  12.598  1.00  0.00     0.173 C 
ENDBRANCH  14  15
ENDBRANCH  10  14
BRANCH   1  20
HETATM   20  C   UNL     1     -46.233 -51.486  13.030  1.00  0.00     0.066 C 
BRANCH  20  21
HETATM   21  C   UNL     1     -46.804 -52.141  11.767  1.00  0.00     0.002 C 
HETATM   22  C   UNL     1     -47.576 -51.147  10.918  1.00  0.00     0.005 C 
ENDBRANCH  20  21
ENDBRANCH   1  20
TORSDOF 4
ENDMDL
