MODEL 1
REMARK VINA RESULT:      -6.0      0.000      0.000
REMARK  4 active torsions:
REMARK  status: ('A' for Active; 'I' for Inactive)
REMARK    1  A    between atoms: C_2  and  C_3 
REMARK       I    between atoms: C_2  and  N_16 
REMARK    2  A    between atoms: C_3  and  C_4 
REMARK    3  A    between atoms: C_7  and  N_10 
REMARK    4  A    between atoms: N_16  and  C_17 
ROOT
HETATM    1  C   UNL     1     -41.148 -50.803  12.061  1.00  0.00     0.026 A 
HETATM    2  C   UNL     1     -40.514 -51.860  12.689  1.00  0.00     0.078 A 
HETATM    3  S   UNL     1     -41.633 -52.720  13.649  1.00  0.00    -0.064 SA
HETATM    4  C   UNL     1     -42.882 -51.666  13.157  1.00  0.00     0.153 A 
HETATM    5  N   UNL     1     -42.500 -50.682  12.365  1.00  0.00    -0.339 N 
ATOM      6  HN  UNL     1     -43.109 -49.938  12.024  1.00  0.00     0.168 HD
ENDROOT
BRANCH   1   7
HETATM    7  C   UNL     1     -40.523 -49.821  11.131  1.00  0.00     0.160 C 
BRANCH   7   8
HETATM    8  C   UNL     1     -41.384 -48.585  10.939  1.00  0.00     0.223 C 
HETATM    9  O   UNL     1     -41.568 -47.784  11.858  1.00  0.00    -0.273 OA
HETATM   10  N   UNL     1     -41.959 -48.462   9.692  1.00  0.00    -0.356 N 
HETATM   11  H   UNL     1     -41.702 -49.126   8.969  1.00  0.00     0.162 HD
BRANCH  10  12
HETATM   12  C   UNL     1     -42.828 -47.376   9.357  1.00  0.00     0.084 A 
HETATM   13  C   UNL     1     -44.307 -47.459   9.614  1.00  0.00     0.027 A 
HETATM   14  C   UNL     1     -43.789 -47.488   8.206  1.00  0.00     0.027 A 
ENDBRANCH  10  12
ENDBRANCH   7   8
ENDBRANCH   1   7
BRANCH   4  15
HETATM   15  N   UNL     1     -44.204 -51.871  13.527  1.00  0.00    -0.298 N 
HETATM   16  C   UNL     1     -44.909 -50.975  14.411  1.00  0.00     0.134 C 
HETATM   17  C   UNL     1     -46.354 -51.430  14.389  1.00  0.00     0.029 C 
HETATM   18  C   UNL     1     -46.471 -52.292  13.149  1.00  0.00     0.105 C 
HETATM   19  C   UNL     1     -45.064 -52.756  12.879  1.00  0.00     0.225 C 
HETATM   20  O   UNL     1     -44.819 -53.689  12.130  1.00  0.00    -0.273 OA
ENDBRANCH   4  15
TORSDOF 4
ENDMDL
MODEL 2
REMARK VINA RESULT:      -5.8      2.561      3.404
REMARK  4 active torsions:
REMARK  status: ('A' for Active; 'I' for Inactive)
REMARK    1  A    between atoms: C_2  and  C_3 
REMARK       I    between atoms: C_2  and  N_16 
REMARK    2  A    between atoms: C_3  and  C_4 
REMARK    3  A    between atoms: C_7  and  N_10 
REMARK    4  A    between atoms: N_16  and  C_17 
ROOT
HETATM    1  C   UNL     1     -42.201 -48.652  11.503  1.00  0.00     0.026 A 
HETATM    2  C   UNL     1     -42.955 -48.227  12.581  1.00  0.00     0.078 A 
HETATM    3  S   UNL     1     -43.185 -49.520  13.673  1.00  0.00    -0.064 SA
HETATM    4  C   UNL     1     -42.257 -50.545  12.671  1.00  0.00     0.153 A 
HETATM    5  N   UNL     1     -41.834 -49.994  11.549  1.00  0.00    -0.339 N 
ATOM      6  HN  UNL     1     -41.314 -50.481  10.820  1.00  0.00     0.168 HD
ENDROOT
BRANCH   1   7
HETATM    7  C   UNL     1     -41.774 -47.824  10.340  1.00  0.00     0.160 C 
BRANCH   7   8
HETATM    8  C   UNL     1     -42.952 -47.182   9.629  1.00  0.00     0.223 C 
HETATM    9  O   UNL     1     -43.062 -45.957   9.548  1.00  0.00    -0.273 OA
HETATM   10  N   UNL     1     -43.886 -48.066   9.130  1.00  0.00    -0.356 N 
HETATM   11  H   UNL     1     -43.688 -49.060   9.174  1.00  0.00     0.162 HD
BRANCH  10  12
HETATM   12  C   UNL     1     -45.074 -47.626   8.466  1.00  0.00     0.084 A 
HETATM   13  C   UNL     1     -46.267 -47.149   9.246  1.00  0.00     0.027 A 
HETATM   14  C   UNL     1     -46.328 -48.453   8.507  1.00  0.00     0.027 A 
ENDBRANCH  10  12
ENDBRANCH   7   8
ENDBRANCH   1   7
BRANCH   4  15
HETATM   15  N   UNL     1     -41.933 -51.841  13.048  1.00  0.00    -0.298 N 
HETATM   16  C   UNL     1     -42.933 -52.809  13.428  1.00  0.00     0.134 C 
HETATM   17  C   UNL     1     -42.199 -54.128  13.556  1.00  0.00     0.029 C 
HETATM   18  C   UNL     1     -40.896 -53.922  12.810  1.00  0.00     0.105 C 
HETATM   19  C   UNL     1     -40.691 -52.429  12.819  1.00  0.00     0.225 C 
HETATM   20  O   UNL     1     -39.612 -51.920  12.559  1.00  0.00    -0.273 OA
ENDBRANCH   4  15
TORSDOF 4
ENDMDL
MODEL 3
REMARK VINA RESULT:      -5.7      1.822      2.289
REMARK  4 active torsions:
REMARK  status: ('A' for Active; 'I' for Inactive)
REMARK    1  A    between atoms: C_2  and  C_3 
REMARK       I    between atoms: C_2  and  N_16 
REMARK    2  A    between atoms: C_3  and  C_4 
REMARK    3  A    between atoms: C_7  and  N_10 
REMARK    4  A    between atoms: N_16  and  C_17 
ROOT
HETATM    1  C   UNL     1     -42.594 -49.548  12.241  1.00  0.00     0.026 A 
HETATM    2  C   UNL     1     -41.400 -50.196  11.984  1.00  0.00     0.078 A 
HETATM    3  S   UNL     1     -41.572 -51.869  12.279  1.00  0.00    -0.064 SA
HETATM    4  C   UNL     1     -43.210 -51.636  12.700  1.00  0.00     0.153 A 
HETATM    5  N   UNL     1     -43.617 -50.381  12.684  1.00  0.00    -0.339 N 
ATOM      6  HN  UNL     1     -44.547 -50.066  12.958  1.00  0.00     0.168 HD
ENDROOT
BRANCH   1   7
HETATM    7  C   UNL     1     -42.860 -48.089  12.095  1.00  0.00     0.160 C 
BRANCH   7   8
HETATM    8  C   UNL     1     -43.298 -47.725  10.687  1.00  0.00     0.223 C 
HETATM    9  O   UNL     1     -42.507 -47.242   9.875  1.00  0.00    -0.273 OA
HETATM   10  N   UNL     1     -44.633 -47.941  10.417  1.00  0.00    -0.356 N 
HETATM   11  H   UNL     1     -45.202 -48.407  11.115  1.00  0.00     0.162 HD
BRANCH  10  12
HETATM   12  C   UNL     1     -45.216 -47.617   9.151  1.00  0.00     0.084 A 
HETATM   13  C   UNL     1     -46.563 -46.954   9.064  1.00  0.00     0.027 A 
HETATM   14  C   UNL     1     -46.402 -48.382   8.634  1.00  0.00     0.027 A 
ENDBRANCH  10  12
ENDBRANCH   7   8
ENDBRANCH   1   7
BRANCH   4  15
HETATM   15  N   UNL     1     -44.053 -52.702  12.983  1.00  0.00    -0.298 N 
HETATM   16  C   UNL     1     -43.563 -53.968  13.471  1.00  0.00     0.134 C 
HETATM   17  C   UNL     1     -44.795 -54.767  13.847  1.00  0.00     0.029 C 
HETATM   18  C   UNL     1     -45.903 -53.741  13.962  1.00  0.00     0.105 C 
HETATM   19  C   UNL     1     -45.435 -52.586  13.116  1.00  0.00     0.225 C 
HETATM   20  O   UNL     1     -46.192 -51.701  12.747  1.00  0.00    -0.273 OA
ENDBRANCH   4  15
TORSDOF 4
ENDMDL
MODEL 4
REMARK VINA RESULT:      -5.4      3.607      4.329
REMARK  4 active torsions:
REMARK  status: ('A' for Active; 'I' for Inactive)
REMARK    1  A    between atoms: C_2  and  C_3 
REMARK       I    between atoms: C_2  and  N_16 
REMARK    2  A    between atoms: C_3  and  C_4 
REMARK    3  A    between atoms: C_7  and  N_10 
REMARK    4  A    between atoms: N_16  and  C_17 
ROOT
HETATM    1  C   UNL     1     -41.523 -53.765  14.867  1.00  0.00     0.026 A 
HETATM    2  C   UNL     1     -41.883 -54.305  16.087  1.00  0.00     0.078 A 
HETATM    3  S   UNL     1     -43.531 -53.985  16.399  1.00  0.00    -0.064 SA
HETATM    4  C   UNL     1     -43.670 -53.182  14.900  1.00  0.00     0.153 A 
HETATM    5  N   UNL     1     -42.549 -53.093  14.209  1.00  0.00    -0.339 N 
ATOM      6  HN  UNL     1     -42.449 -52.602  13.321  1.00  0.00     0.168 HD
ENDROOT
BRANCH   1   7
HETATM    7  C   UNL     1     -40.178 -53.836  14.229  1.00  0.00     0.160 C 
BRANCH   7   8
HETATM    8  C   UNL     1     -40.007 -52.795  13.137  1.00  0.00     0.223 C 
HETATM    9  O   UNL     1     -40.551 -52.923  12.038  1.00  0.00    -0.273 OA
HETATM   10  N   UNL     1     -39.178 -51.741  13.460  1.00  0.00    -0.356 N 
HETATM   11  H   UNL     1     -38.825 -51.671  14.408  1.00  0.00     0.162 HD
BRANCH  10  12
HETATM   12  C   UNL     1     -38.880 -50.694  12.531  1.00  0.00     0.084 A 
HETATM   13  C   UNL     1     -37.524 -50.585  11.893  1.00  0.00     0.027 A 
HETATM   14  C   UNL     1     -37.956 -49.571  12.911  1.00  0.00     0.027 A 
ENDBRANCH  10  12
ENDBRANCH   7   8
ENDBRANCH   1   7
BRANCH   4  15
HETATM   15  N   UNL     1     -44.889 -52.710  14.430  1.00  0.00    -0.298 N 
HETATM   16  C   UNL     1     -45.691 -51.768  15.171  1.00  0.00     0.134 C 
HETATM   17  C   UNL     1     -46.811 -51.358  14.236  1.00  0.00     0.029 C 
HETATM   18  C   UNL     1     -46.330 -51.759  12.856  1.00  0.00     0.105 C 
HETATM   19  C   UNL     1     -45.318 -52.846  13.112  1.00  0.00     0.225 C 
HETATM   20  O   UNL     1     -44.933 -53.596  12.229  1.00  0.00    -0.273 OA
ENDBRANCH   4  15
TORSDOF 4
ENDMDL
MODEL 5
REMARK VINA RESULT:      -5.4      2.514      5.770
REMARK  4 active torsions:
REMARK  status: ('A' for Active; 'I' for Inactive)
REMARK    1  A    between atoms: C_2  and  C_3 
REMARK       I    between atoms: C_2  and  N_16 
REMARK    2  A    between atoms: C_3  and  C_4 
REMARK    3  A    between atoms: C_7  and  N_10 
REMARK    4  A    between atoms: N_16  and  C_17 
ROOT
HETATM    1  C   UNL     1     -42.059 -54.132  14.299  1.00  0.00     0.026 A 
HETATM    2  C   UNL     1     -40.873 -54.416  14.951  1.00  0.00     0.078 A 
HETATM    3  S   UNL     1     -39.684 -53.270  14.516  1.00  0.00    -0.064 SA
HETATM    4  C   UNL     1     -40.812 -52.461  13.523  1.00  0.00     0.153 A 
HETATM    5  N   UNL     1     -42.002 -53.026  13.456  1.00  0.00    -0.339 N 
ATOM      6  HN  UNL     1     -42.770 -52.701  12.869  1.00  0.00     0.168 HD
ENDROOT
BRANCH   1   7
HETATM    7  C   UNL     1     -43.338 -54.887  14.418  1.00  0.00     0.160 C 
BRANCH   7   8
HETATM    8  C   UNL     1     -44.476 -54.206  13.680  1.00  0.00     0.223 C 
HETATM    9  O   UNL     1     -44.594 -54.299  12.457  1.00  0.00    -0.273 OA
HETATM   10  N   UNL     1     -45.324 -53.461  14.474  1.00  0.00    -0.356 N 
HETATM   11  H   UNL     1     -45.202 -53.492  15.480  1.00  0.00     0.162 HD
BRANCH  10  12
HETATM   12  C   UNL     1     -46.425 -52.726  13.932  1.00  0.00     0.084 A 
HETATM   13  C   UNL     1     -46.206 -51.447  13.172  1.00  0.00     0.027 A 
HETATM   14  C   UNL     1     -46.840 -51.411  14.532  1.00  0.00     0.027 A 
ENDBRANCH  10  12
ENDBRANCH   7   8
ENDBRANCH   1   7
BRANCH   4  15
HETATM   15  N   UNL     1     -40.502 -51.269  12.882  1.00  0.00    -0.298 N 
HETATM   16  C   UNL     1     -39.161 -50.940  12.465  1.00  0.00     0.134 C 
HETATM   17  C   UNL     1     -39.287 -49.678  11.634  1.00  0.00     0.029 C 
HETATM   18  C   UNL     1     -40.753 -49.606  11.259  1.00  0.00     0.105 C 
HETATM   19  C   UNL     1     -41.453 -50.422  12.315  1.00  0.00     0.225 C 
HETATM   20  O   UNL     1     -42.658 -50.354  12.496  1.00  0.00    -0.273 OA
ENDBRANCH   4  15
TORSDOF 4
ENDMDL
MODEL 6
REMARK VINA RESULT:      -5.4      1.650      1.847
REMARK  4 active torsions:
REMARK  status: ('A' for Active; 'I' for Inactive)
REMARK    1  A    between atoms: C_2  and  C_3 
REMARK       I    between atoms: C_2  and  N_16 
REMARK    2  A    between atoms: C_3  and  C_4 
REMARK    3  A    between atoms: C_7  and  N_10 
REMARK    4  A    between atoms: N_16  and  C_17 
ROOT
HETATM    1  C   UNL     1     -41.293 -51.277  12.022  1.00  0.00     0.026 A 
HETATM    2  C   UNL     1     -40.889 -52.558  12.351  1.00  0.00     0.078 A 
HETATM    3  S   UNL     1     -42.091 -53.321  13.293  1.00  0.00    -0.064 SA
HETATM    4  C   UNL     1     -43.074 -51.930  13.184  1.00  0.00     0.153 A 
HETATM    5  N   UNL     1     -42.535 -50.916  12.535  1.00  0.00    -0.339 N 
ATOM      6  HN  UNL     1     -42.966 -49.998  12.425  1.00  0.00     0.168 HD
ENDROOT
BRANCH   1   7
HETATM    7  C   UNL     1     -40.533 -50.291  11.203  1.00  0.00     0.160 C 
BRANCH   7   8
HETATM    8  C   UNL     1     -40.562 -48.899  11.809  1.00  0.00     0.223 C 
HETATM    9  O   UNL     1     -40.640 -48.732  13.028  1.00  0.00    -0.273 OA
HETATM   10  N   UNL     1     -40.534 -47.865  10.897  1.00  0.00    -0.356 N 
HETATM   11  H   UNL     1     -40.398 -48.083   9.917  1.00  0.00     0.162 HD
BRANCH  10  12
HETATM   12  C   UNL     1     -40.593 -46.493  11.299  1.00  0.00     0.084 A 
HETATM   13  C   UNL     1     -41.357 -45.480  10.493  1.00  0.00     0.027 A 
HETATM   14  C   UNL     1     -39.858 -45.434  10.526  1.00  0.00     0.027 A 
ENDBRANCH  10  12
ENDBRANCH   7   8
ENDBRANCH   1   7
BRANCH   4  15
HETATM   15  N   UNL     1     -44.363 -51.901  13.699  1.00  0.00    -0.298 N 
HETATM   16  C   UNL     1     -44.711 -51.138  14.873  1.00  0.00     0.134 C 
HETATM   17  C   UNL     1     -46.222 -51.204  14.972  1.00  0.00     0.029 C 
HETATM   18  C   UNL     1     -46.682 -51.637  13.595  1.00  0.00     0.105 C 
HETATM   19  C   UNL     1     -45.488 -52.337  13.002  1.00  0.00     0.225 C 
HETATM   20  O   UNL     1     -45.578 -53.060  12.022  1.00  0.00    -0.273 OA
ENDBRANCH   4  15
TORSDOF 4
ENDMDL
MODEL 7
REMARK VINA RESULT:      -5.3      2.287      2.826
REMARK  4 active torsions:
REMARK  status: ('A' for Active; 'I' for Inactive)
REMARK    1  A    between atoms: C_2  and  C_3 
REMARK       I    between atoms: C_2  and  N_16 
REMARK    2  A    between atoms: C_3  and  C_4 
REMARK    3  A    between atoms: C_7  and  N_10 
REMARK    4  A    between atoms: N_16  and  C_17 
ROOT
HETATM    1  C   UNL     1     -41.925 -49.964  12.194  1.00  0.00     0.026 A 
HETATM    2  C   UNL     1     -42.589 -49.249  13.174  1.00  0.00     0.078 A 
HETATM    3  S   UNL     1     -43.652 -50.280  14.024  1.00  0.00    -0.064 SA
HETATM    4  C   UNL     1     -43.151 -51.603  13.068  1.00  0.00     0.153 A 
HETATM    5  N   UNL     1     -42.281 -51.307  12.121  1.00  0.00    -0.339 N 
ATOM      6  HN  UNL     1     -41.922 -51.968  11.433  1.00  0.00     0.168 HD
ENDROOT
BRANCH   1   7
HETATM    7  C   UNL     1     -40.907 -49.431  11.245  1.00  0.00     0.160 C 
BRANCH   7   8
HETATM    8  C   UNL     1     -41.308 -48.083  10.673  1.00  0.00     0.223 C 
HETATM    9  O   UNL     1     -42.337 -47.949  10.007  1.00  0.00    -0.273 OA
HETATM   10  N   UNL     1     -40.422 -47.056  10.924  1.00  0.00    -0.356 N 
HETATM   11  H   UNL     1     -39.635 -47.230  11.539  1.00  0.00     0.162 HD
BRANCH  10  12
HETATM   12  C   UNL     1     -40.631 -45.731  10.425  1.00  0.00     0.084 A 
HETATM   13  C   UNL     1     -39.473 -44.870  10.001  1.00  0.00     0.027 A 
HETATM   14  C   UNL     1     -40.242 -44.532  11.244  1.00  0.00     0.027 A 
ENDBRANCH  10  12
ENDBRANCH   7   8
ENDBRANCH   1   7
BRANCH   4  15
HETATM   15  N   UNL     1     -43.593 -52.895  13.315  1.00  0.00    -0.298 N 
HETATM   16  C   UNL     1     -42.970 -53.752  14.294  1.00  0.00     0.134 C 
HETATM   17  C   UNL     1     -43.866 -54.970  14.402  1.00  0.00     0.029 C 
HETATM   18  C   UNL     1     -45.185 -54.536  13.797  1.00  0.00     0.105 C 
HETATM   19  C   UNL     1     -44.823 -53.390  12.888  1.00  0.00     0.225 C 
HETATM   20  O   UNL     1     -45.584 -52.978  12.027  1.00  0.00    -0.273 OA
ENDBRANCH   4  15
TORSDOF 4
ENDMDL
MODEL 8
REMARK VINA RESULT:      -5.1      2.288      3.796
REMARK  4 active torsions:
REMARK  status: ('A' for Active; 'I' for Inactive)
REMARK    1  A    between atoms: C_2  and  C_3 
REMARK       I    between atoms: C_2  and  N_16 
REMARK    2  A    between atoms: C_3  and  C_4 
REMARK    3  A    between atoms: C_7  and  N_10 
REMARK    4  A    between atoms: N_16  and  C_17 
ROOT
HETATM    1  C   UNL     1     -42.436 -49.623  12.224  1.00  0.00     0.026 A 
HETATM    2  C   UNL     1     -43.080 -49.051  13.306  1.00  0.00     0.078 A 
HETATM    3  S   UNL     1     -43.808 -50.268  14.257  1.00  0.00    -0.064 SA
HETATM    4  C   UNL     1     -43.207 -51.467  13.202  1.00  0.00     0.153 A 
HETATM    5  N   UNL     1     -42.544 -51.008  12.157  1.00  0.00    -0.339 N 
ATOM      6  HN  UNL     1     -42.166 -51.586  11.407  1.00  0.00     0.168 HD
ENDROOT
BRANCH   1   7
HETATM    7  C   UNL     1     -41.672 -48.903  11.166  1.00  0.00     0.160 C 
BRANCH   7   8
HETATM    8  C   UNL     1     -40.224 -48.675  11.560  1.00  0.00     0.223 C 
HETATM    9  O   UNL     1     -39.867 -47.633  12.114  1.00  0.00    -0.273 OA
HETATM   10  N   UNL     1     -39.358 -49.691  11.216  1.00  0.00    -0.356 N 
HETATM   11  H   UNL     1     -39.740 -50.546  10.827  1.00  0.00     0.162 HD
BRANCH  10  12
HETATM   12  C   UNL     1     -37.954 -49.619  11.482  1.00  0.00     0.084 A 
HETATM   13  C   UNL     1     -36.957 -50.285  10.574  1.00  0.00     0.027 A 
HETATM   14  C   UNL     1     -37.197 -50.830  11.951  1.00  0.00     0.027 A 
ENDBRANCH  10  12
ENDBRANCH   7   8
ENDBRANCH   1   7
BRANCH   4  15
HETATM   15  N   UNL     1     -43.365 -52.821  13.464  1.00  0.00    -0.298 N 
HETATM   16  C   UNL     1     -42.555 -53.522  14.431  1.00  0.00     0.134 C 
HETATM   17  C   UNL     1     -43.176 -54.898  14.565  1.00  0.00     0.029 C 
HETATM   18  C   UNL     1     -44.570 -54.752  13.991  1.00  0.00     0.105 C 
HETATM   19  C   UNL     1     -44.476 -53.564  13.070  1.00  0.00     0.225 C 
HETATM   20  O   UNL     1     -45.325 -53.327  12.226  1.00  0.00    -0.273 OA
ENDBRANCH   4  15
TORSDOF 4
ENDMDL
MODEL 9
REMARK VINA RESULT:      -5.1      1.951      5.665
REMARK  4 active torsions:
REMARK  status: ('A' for Active; 'I' for Inactive)
REMARK    1  A    between atoms: C_2  and  C_3 
REMARK       I    between atoms: C_2  and  N_16 
REMARK    2  A    between atoms: C_3  and  C_4 
REMARK    3  A    between atoms: C_7  and  N_10 
REMARK    4  A    between atoms: N_16  and  C_17 
ROOT
HETATM    1  C   UNL     1     -40.989 -51.083  11.937  1.00  0.00     0.026 A 
HETATM    2  C   UNL     1     -39.677 -50.904  12.333  1.00  0.00     0.078 A 
HETATM    3  S   UNL     1     -39.216 -49.277  12.092  1.00  0.00    -0.064 SA
HETATM    4  C   UNL     1     -40.778 -48.910  11.510  1.00  0.00     0.153 A 
HETATM    5  N   UNL     1     -41.600 -49.938  11.434  1.00  0.00    -0.339 N 
ATOM      6  HN  UNL     1     -42.548 -49.900  11.061  1.00  0.00     0.168 HD
ENDROOT
BRANCH   1   7
HETATM    7  C   UNL     1     -41.766 -52.353  11.996  1.00  0.00     0.160 C 
BRANCH   7   8
HETATM    8  C   UNL     1     -42.830 -52.323  13.079  1.00  0.00     0.223 C 
HETATM    9  O   UNL     1     -42.595 -52.727  14.219  1.00  0.00    -0.273 OA
HETATM   10  N   UNL     1     -44.062 -51.854  12.674  1.00  0.00    -0.356 N 
HETATM   11  H   UNL     1     -44.156 -51.474  11.739  1.00  0.00     0.162 HD
BRANCH  10  12
HETATM   12  C   UNL     1     -45.184 -51.795  13.560  1.00  0.00     0.084 A 
HETATM   13  C   UNL     1     -46.178 -52.921  13.629  1.00  0.00     0.027 A 
HETATM   14  C   UNL     1     -46.576 -51.607  13.025  1.00  0.00     0.027 A 
ENDBRANCH  10  12
ENDBRANCH   7   8
ENDBRANCH   1   7
BRANCH   4  15
HETATM   15  N   UNL     1     -41.156 -47.612  11.194  1.00  0.00    -0.298 N 
HETATM   16  C   UNL     1     -40.196 -46.558  10.971  1.00  0.00     0.134 C 
HETATM   17  C   UNL     1     -40.995 -45.379  10.454  1.00  0.00     0.029 C 
HETATM   18  C   UNL     1     -42.311 -45.972   9.995  1.00  0.00     0.105 C 
HETATM   19  C   UNL     1     -42.436 -47.257  10.771  1.00  0.00     0.225 C 
HETATM   20  O   UNL     1     -43.494 -47.857  10.870  1.00  0.00    -0.273 OA
ENDBRANCH   4  15
TORSDOF 4
ENDMDL
