MODEL 1
REMARK VINA RESULT:      -6.2      0.000      0.000
REMARK  6 active torsions:
REMARK  status: ('A' for Active; 'I' for Inactive)
REMARK    1  A    between atoms: C_2  and  CA_3 
REMARK    2  A    between atoms: CA_3  and  C_4 
REMARK    3  A    between atoms: CA_3  and  N_6 
REMARK    4  A    between atoms: C_4  and  O_5 
REMARK       I    between atoms: N_6  and  C_7 
REMARK       I    between atoms: C_7  and  N_9 
REMARK    5  A    between atoms: N_9  and  C_10 
REMARK    6  A    between atoms: C_13  and  N_17 
ROOT
HETATM    1  C   UNL     1     -39.868 -47.429  11.630  1.00  0.00     0.051 A 
HETATM    2  C   UNL     1     -39.704 -46.572  12.705  1.00  0.00     0.035 A 
HETATM    3  C   UNL     1     -38.982 -46.977  13.825  1.00  0.00     0.051 A 
HETATM    4  C   UNL     1     -38.371 -48.224  13.871  1.00  0.00     0.103 A 
HETATM    5  N   UNL     1     -38.481 -49.055  12.806  1.00  0.00    -0.350 N 
ATOM      6  HN  UNL     1     -38.026 -49.968  12.812  1.00  0.00     0.166 HD
HETATM    7  C   UNL     1     -39.211 -48.649  11.726  1.00  0.00     0.119 A 
ENDROOT
BRANCH   1   8
HETATM    8  N   UNL     1     -40.674 -47.106  10.505  1.00  0.00    -0.308 N 
HETATM    9  C   UNL     1     -41.979 -47.522  10.352  1.00  0.00     0.321 C 
HETATM   10  N   UNL     1     -42.541 -47.141   9.160  1.00  0.00    -0.336 N 
HETATM   11  O   UNL     1     -42.604 -48.231  11.135  1.00  0.00    -0.247 OA
HETATM   12  H   UNL     1     -42.215 -46.299   8.707  1.00  0.00     0.164 HD
HETATM   13  H   UNL     1     -40.210 -46.771   9.678  1.00  0.00     0.170 HD
BRANCH  10  14
HETATM   14  CA  UNL     1     -43.892 -47.609   8.820  1.00  0.00     0.109 C 
BRANCH  14  15
HETATM   15  C   UNL     1     -44.934 -46.499   9.068  1.00  0.00     0.023 C 
HETATM   16  C   UNL     1     -46.367 -47.018   9.091  1.00  0.00     0.007 C 
ENDBRANCH  14  15
BRANCH  14  17
HETATM   17  C   UNL     1     -43.902 -48.171   7.392  1.00  0.00     0.189 C 
BRANCH  17  18
HETATM   18  O   UNL     1     -42.639 -48.731   7.045  1.00  0.00    -0.399 OA
HETATM   19  H   UNL     1     -42.244 -49.082   7.862  1.00  0.00     0.209 HD
ENDBRANCH  17  18
ENDBRANCH  14  17
ENDBRANCH  10  14
ENDBRANCH   1   8
BRANCH   4  20
HETATM   20  N   UNL     1     -37.652 -48.619  14.969  1.00  0.00    -0.367 N 
HETATM   21  C   UNL     1     -37.111 -49.964  15.095  1.00  0.00     0.124 C 
HETATM   22  C   UNL     1     -36.011 -49.836  16.161  1.00  0.00     0.021 C 
HETATM   23  C   UNL     1     -35.826 -48.341  16.372  1.00  0.00     0.021 C 
HETATM   24  C   UNL     1     -37.189 -47.757  16.041  1.00  0.00     0.124 C 
ENDBRANCH   4  20
TORSDOF 6
ENDMDL
MODEL 2
REMARK VINA RESULT:      -5.9      4.408      6.538
REMARK  6 active torsions:
REMARK  status: ('A' for Active; 'I' for Inactive)
REMARK    1  A    between atoms: C_2  and  CA_3 
REMARK    2  A    between atoms: CA_3  and  C_4 
REMARK    3  A    between atoms: CA_3  and  N_6 
REMARK    4  A    between atoms: C_4  and  O_5 
REMARK       I    between atoms: N_6  and  C_7 
REMARK       I    between atoms: C_7  and  N_9 
REMARK    5  A    between atoms: N_9  and  C_10 
REMARK    6  A    between atoms: C_13  and  N_17 
ROOT
HETATM    1  C   UNL     1     -42.133 -48.124  11.309  1.00  0.00     0.051 A 
HETATM    2  C   UNL     1     -40.910 -47.564  10.979  1.00  0.00     0.035 A 
HETATM    3  C   UNL     1     -40.763 -46.182  10.911  1.00  0.00     0.051 A 
HETATM    4  C   UNL     1     -41.818 -45.333  11.220  1.00  0.00     0.103 A 
HETATM    5  N   UNL     1     -43.008 -45.864  11.594  1.00  0.00    -0.350 N 
ATOM      6  HN  UNL     1     -43.791 -45.260  11.841  1.00  0.00     0.166 HD
HETATM    7  C   UNL     1     -43.139 -47.223  11.633  1.00  0.00     0.119 A 
ENDROOT
BRANCH   1   8
HETATM    8  N   UNL     1     -42.366 -49.525  11.298  1.00  0.00    -0.308 N 
HETATM    9  C   UNL     1     -42.122 -50.352  12.373  1.00  0.00     0.321 C 
HETATM   10  N   UNL     1     -42.366 -51.677  12.114  1.00  0.00    -0.336 N 
HETATM   11  O   UNL     1     -41.660 -50.006  13.456  1.00  0.00    -0.247 OA
HETATM   12  H   UNL     1     -43.059 -51.926  11.422  1.00  0.00     0.164 HD
HETATM   13  H   UNL     1     -42.480 -49.973  10.404  1.00  0.00     0.170 HD
BRANCH  10  14
HETATM   14  CA  UNL     1     -42.046 -52.681  13.138  1.00  0.00     0.109 C 
BRANCH  14  15
HETATM   15  C   UNL     1     -43.237 -53.634  13.362  1.00  0.00     0.023 C 
HETATM   16  C   UNL     1     -44.431 -53.319  12.468  1.00  0.00     0.007 C 
ENDBRANCH  14  15
BRANCH  14  17
HETATM   17  C   UNL     1     -40.734 -53.392  12.776  1.00  0.00     0.189 C 
BRANCH  17  18
HETATM   18  O   UNL     1     -40.519 -53.401  11.367  1.00  0.00    -0.399 OA
HETATM   19  H   UNL     1     -40.714 -54.301  11.051  1.00  0.00     0.209 HD
ENDBRANCH  17  18
ENDBRANCH  14  17
ENDBRANCH  10  14
ENDBRANCH   1   8
BRANCH   4  20
HETATM   20  N   UNL     1     -41.671 -43.971  11.164  1.00  0.00    -0.367 N 
HETATM   21  C   UNL     1     -42.801 -43.066  11.299  1.00  0.00     0.124 C 
HETATM   22  C   UNL     1     -42.169 -41.716  11.672  1.00  0.00     0.021 C 
HETATM   23  C   UNL     1     -40.714 -42.026  11.989  1.00  0.00     0.021 C 
HETATM   24  C   UNL     1     -40.412 -43.250  11.141  1.00  0.00     0.124 C 
ENDBRANCH   4  20
TORSDOF 6
ENDMDL
MODEL 3
REMARK VINA RESULT:      -5.8      3.947      4.827
REMARK  6 active torsions:
REMARK  status: ('A' for Active; 'I' for Inactive)
REMARK    1  A    between atoms: C_2  and  CA_3 
REMARK    2  A    between atoms: CA_3  and  C_4 
REMARK    3  A    between atoms: CA_3  and  N_6 
REMARK    4  A    between atoms: C_4  and  O_5 
REMARK       I    between atoms: N_6  and  C_7 
REMARK       I    between atoms: C_7  and  N_9 
REMARK    5  A    between atoms: N_9  and  C_10 
REMARK    6  A    between atoms: C_13  and  N_17 
ROOT
HETATM    1  C   UNL     1     -40.456 -51.238  11.879  1.00  0.00     0.051 A 
HETATM    2  C   UNL     1     -39.524 -51.193  12.902  1.00  0.00     0.035 A 
HETATM    3  C   UNL     1     -39.460 -52.217  13.843  1.00  0.00     0.051 A 
HETATM    4  C   UNL     1     -40.290 -53.326  13.752  1.00  0.00     0.103 A 
HETATM    5  N   UNL     1     -41.175 -53.410  12.729  1.00  0.00    -0.350 N 
ATOM      6  HN  UNL     1     -41.782 -54.223  12.633  1.00  0.00     0.166 HD
HETATM    7  C   UNL     1     -41.238 -52.385  11.828  1.00  0.00     0.119 A 
ENDROOT
BRANCH   1   8
HETATM    8  N   UNL     1     -40.632 -50.178  10.950  1.00  0.00    -0.308 N 
HETATM    9  C   UNL     1     -41.550 -49.163  11.109  1.00  0.00     0.321 C 
HETATM   10  N   UNL     1     -41.584 -48.282  10.059  1.00  0.00    -0.336 N 
HETATM   11  O   UNL     1     -42.341 -49.048  12.042  1.00  0.00    -0.247 OA
HETATM   12  H   UNL     1     -40.749 -48.136   9.509  1.00  0.00     0.164 HD
HETATM   13  H   UNL     1     -40.250 -50.297  10.026  1.00  0.00     0.170 HD
BRANCH  10  14
HETATM   14  CA  UNL     1     -42.592 -47.212  10.048  1.00  0.00     0.109 C 
BRANCH  14  15
HETATM   15  C   UNL     1     -41.968 -45.868  10.475  1.00  0.00     0.023 C 
HETATM   16  C   UNL     1     -40.447 -45.915  10.563  1.00  0.00     0.007 C 
ENDBRANCH  14  15
BRANCH  14  17
HETATM   17  C   UNL     1     -43.293 -47.173   8.683  1.00  0.00     0.189 C 
BRANCH  17  18
HETATM   18  O   UNL     1     -42.732 -46.172   7.839  1.00  0.00    -0.399 OA
HETATM   19  H   UNL     1     -43.419 -45.497   7.697  1.00  0.00     0.209 HD
ENDBRANCH  17  18
ENDBRANCH  14  17
ENDBRANCH  10  14
ENDBRANCH   1   8
BRANCH   4  20
HETATM   20  N   UNL     1     -40.220 -54.340  14.673  1.00  0.00    -0.367 N 
HETATM   21  C   UNL     1     -38.970 -55.015  14.984  1.00  0.00     0.124 C 
HETATM   22  C   UNL     1     -39.223 -55.682  16.344  1.00  0.00     0.021 C 
HETATM   23  C   UNL     1     -40.539 -55.101  16.840  1.00  0.00     0.021 C 
HETATM   24  C   UNL     1     -41.287 -54.759  15.563  1.00  0.00     0.124 C 
ENDBRANCH   4  20
TORSDOF 6
ENDMDL
MODEL 4
REMARK VINA RESULT:      -5.2      3.849      6.693
REMARK  6 active torsions:
REMARK  status: ('A' for Active; 'I' for Inactive)
REMARK    1  A    between atoms: C_2  and  CA_3 
REMARK    2  A    between atoms: CA_3  and  C_4 
REMARK    3  A    between atoms: CA_3  and  N_6 
REMARK    4  A    between atoms: C_4  and  O_5 
REMARK       I    between atoms: N_6  and  C_7 
REMARK       I    between atoms: C_7  and  N_9 
REMARK    5  A    between atoms: N_9  and  C_10 
REMARK    6  A    between atoms: C_13  and  N_17 
ROOT
HETATM    1  C   UNL     1     -40.795 -49.178  11.041  1.00  0.00     0.051 A 
HETATM    2  C   UNL     1     -39.919 -48.394  11.773  1.00  0.00     0.035 A 
HETATM    3  C   UNL     1     -39.983 -47.005  11.697  1.00  0.00     0.051 A 
HETATM    4  C   UNL     1     -40.953 -46.374  10.928  1.00  0.00     0.103 A 
HETATM    5  N   UNL     1     -41.850 -47.126  10.244  1.00  0.00    -0.350 N 
ATOM      6  HN  UNL     1     -42.580 -46.684   9.688  1.00  0.00     0.166 HD
HETATM    7  C   UNL     1     -41.757 -48.487  10.314  1.00  0.00     0.119 A 
ENDROOT
BRANCH   1   8
HETATM    8  N   UNL     1     -40.712 -50.595  11.004  1.00  0.00    -0.308 N 
HETATM    9  C   UNL     1     -41.175 -51.417  12.008  1.00  0.00     0.321 C 
HETATM   10  N   UNL     1     -40.936 -52.749  11.783  1.00  0.00    -0.336 N 
HETATM   11  O   UNL     1     -41.692 -51.048  13.059  1.00  0.00    -0.247 OA
HETATM   12  H   UNL     1     -40.872 -53.086  10.833  1.00  0.00     0.164 HD
HETATM   13  H   UNL     1     -40.077 -51.009  10.342  1.00  0.00     0.170 HD
BRANCH  10  14
HETATM   14  CA  UNL     1     -41.282 -53.728  12.823  1.00  0.00     0.109 C 
BRANCH  14  15
HETATM   15  C   UNL     1     -40.338 -53.595  14.036  1.00  0.00     0.023 C 
HETATM   16  C   UNL     1     -39.184 -54.590  14.007  1.00  0.00     0.007 C 
ENDBRANCH  14  15
BRANCH  14  17
HETATM   17  C   UNL     1     -42.772 -53.608  13.173  1.00  0.00     0.189 C 
BRANCH  17  18
HETATM   18  O   UNL     1     -43.595 -53.897  12.046  1.00  0.00    -0.399 OA
HETATM   19  H   UNL     1     -44.484 -54.104  12.384  1.00  0.00     0.209 HD
ENDBRANCH  17  18
ENDBRANCH  14  17
ENDBRANCH  10  14
ENDBRANCH   1   8
BRANCH   4  20
HETATM   20  N   UNL     1     -41.024 -45.007  10.862  1.00  0.00    -0.367 N 
HETATM   21  C   UNL     1     -42.266 -44.285  11.095  1.00  0.00     0.124 C 
HETATM   22  C   UNL     1     -41.821 -42.850  11.413  1.00  0.00     0.021 C 
HETATM   23  C   UNL     1     -40.314 -42.927  11.603  1.00  0.00     0.021 C 
HETATM   24  C   UNL     1     -39.899 -44.100  10.730  1.00  0.00     0.124 C 
ENDBRANCH   4  20
TORSDOF 6
ENDMDL
MODEL 5
REMARK VINA RESULT:      -5.1      4.867      6.643
REMARK  6 active torsions:
REMARK  status: ('A' for Active; 'I' for Inactive)
REMARK    1  A    between atoms: C_2  and  CA_3 
REMARK    2  A    between atoms: CA_3  and  C_4 
REMARK    3  A    between atoms: CA_3  and  N_6 
REMARK    4  A    between atoms: C_4  and  O_5 
REMARK       I    between atoms: N_6  and  C_7 
REMARK       I    between atoms: C_7  and  N_9 
REMARK    5  A    between atoms: N_9  and  C_10 
REMARK    6  A    between atoms: C_13  and  N_17 
ROOT
HETATM    1  C   UNL     1     -41.537 -49.695  13.080  1.00  0.00     0.051 A 
HETATM    2  C   UNL     1     -42.404 -49.780  14.156  1.00  0.00     0.035 A 
HETATM    3  C   UNL     1     -43.388 -50.764  14.194  1.00  0.00     0.051 A 
HETATM    4  C   UNL     1     -43.494 -51.711  13.183  1.00  0.00     0.103 A 
HETATM    5  N   UNL     1     -42.621 -51.672  12.146  1.00  0.00    -0.350 N 
ATOM      6  HN  UNL     1     -42.669 -52.367  11.402  1.00  0.00     0.166 HD
HETATM    7  C   UNL     1     -41.676 -50.686  12.116  1.00  0.00     0.119 A 
ENDROOT
BRANCH   1   8
HETATM    8  N   UNL     1     -40.580 -48.655  12.942  1.00  0.00    -0.308 N 
HETATM    9  C   UNL     1     -40.886 -47.384  12.508  1.00  0.00     0.321 C 
HETATM   10  N   UNL     1     -39.793 -46.563  12.396  1.00  0.00    -0.336 N 
HETATM   11  O   UNL     1     -41.997 -46.989  12.165  1.00  0.00    -0.247 OA
HETATM   12  H   UNL     1     -38.992 -46.722  12.992  1.00  0.00     0.164 HD
HETATM   13  H   UNL     1     -39.607 -48.913  12.925  1.00  0.00     0.170 HD
BRANCH  10  14
HETATM   14  CA  UNL     1     -39.961 -45.212  11.841  1.00  0.00     0.109 C 
BRANCH  14  15
HETATM   15  C   UNL     1     -39.050 -44.204  12.570  1.00  0.00     0.023 C 
HETATM   16  C   UNL     1     -39.795 -42.969  13.061  1.00  0.00     0.007 C 
ENDBRANCH  14  15
BRANCH  14  17
HETATM   17  C   UNL     1     -39.764 -45.249  10.319  1.00  0.00     0.189 C 
BRANCH  17  18
HETATM   18  O   UNL     1     -41.004 -45.426   9.639  1.00  0.00    -0.399 OA
HETATM   19  H   UNL     1     -40.827 -45.327   8.687  1.00  0.00     0.209 HD
ENDBRANCH  17  18
ENDBRANCH  14  17
ENDBRANCH  10  14
ENDBRANCH   1   8
BRANCH   4  20
HETATM   20  N   UNL     1     -44.455 -52.686  13.224  1.00  0.00    -0.367 N 
HETATM   21  C   UNL     1     -44.164 -54.073  12.895  1.00  0.00     0.124 C 
HETATM   22  C   UNL     1     -45.316 -54.867  13.528  1.00  0.00     0.021 C 
HETATM   23  C   UNL     1     -46.051 -53.875  14.416  1.00  0.00     0.021 C 
HETATM   24  C   UNL     1     -45.802 -52.535  13.744  1.00  0.00     0.124 C 
ENDBRANCH   4  20
TORSDOF 6
ENDMDL
MODEL 6
REMARK VINA RESULT:      -5.1      3.596      4.888
REMARK  6 active torsions:
REMARK  status: ('A' for Active; 'I' for Inactive)
REMARK    1  A    between atoms: C_2  and  CA_3 
REMARK    2  A    between atoms: CA_3  and  C_4 
REMARK    3  A    between atoms: CA_3  and  N_6 
REMARK    4  A    between atoms: C_4  and  O_5 
REMARK       I    between atoms: N_6  and  C_7 
REMARK       I    between atoms: C_7  and  N_9 
REMARK    5  A    between atoms: N_9  and  C_10 
REMARK    6  A    between atoms: C_13  and  N_17 
ROOT
HETATM    1  C   UNL     1     -39.845 -48.977  11.727  1.00  0.00     0.051 A 
HETATM    2  C   UNL     1     -39.174 -49.320  12.889  1.00  0.00     0.035 A 
HETATM    3  C   UNL     1     -39.281 -50.607  13.411  1.00  0.00     0.051 A 
HETATM    4  C   UNL     1     -40.018 -51.586  12.758  1.00  0.00     0.103 A 
HETATM    5  N   UNL     1     -40.641 -51.280  11.593  1.00  0.00    -0.350 N 
ATOM      6  HN  UNL     1     -41.173 -51.988  11.088  1.00  0.00     0.166 HD
HETATM    7  C   UNL     1     -40.542 -50.007  11.108  1.00  0.00     0.119 A 
ENDROOT
BRANCH   1   8
HETATM    8  N   UNL     1     -39.850 -47.657  11.203  1.00  0.00    -0.308 N 
HETATM    9  C   UNL     1     -40.690 -46.659  11.648  1.00  0.00     0.321 C 
HETATM   10  N   UNL     1     -40.560 -45.482  10.956  1.00  0.00    -0.336 N 
HETATM   11  O   UNL     1     -41.544 -46.774  12.522  1.00  0.00    -0.247 OA
HETATM   12  H   UNL     1     -39.672 -45.253  10.532  1.00  0.00     0.164 HD
HETATM   13  H   UNL     1     -39.404 -47.504  10.315  1.00  0.00     0.170 HD
BRANCH  10  14
HETATM   14  CA  UNL     1     -41.470 -44.367  11.256  1.00  0.00     0.109 C 
BRANCH  14  15
HETATM   15  C   UNL     1     -40.753 -43.013  11.079  1.00  0.00     0.023 C 
HETATM   16  C   UNL     1     -40.431 -42.328  12.402  1.00  0.00     0.007 C 
ENDBRANCH  14  15
BRANCH  14  17
HETATM   17  C   UNL     1     -42.755 -44.509  10.428  1.00  0.00     0.189 C 
BRANCH  17  18
HETATM   18  O   UNL     1     -43.464 -43.276  10.354  1.00  0.00    -0.399 OA
HETATM   19  H   UNL     1     -43.563 -42.943  11.263  1.00  0.00     0.209 HD
ENDBRANCH  17  18
ENDBRANCH  14  17
ENDBRANCH  10  14
ENDBRANCH   1   8
BRANCH   4  20
HETATM   20  N   UNL     1     -40.115 -52.855  13.266  1.00  0.00    -0.367 N 
HETATM   21  C   UNL     1     -39.107 -53.410  14.156  1.00  0.00     0.124 C 
HETATM   22  C   UNL     1     -39.815 -54.582  14.853  1.00  0.00     0.021 C 
HETATM   23  C   UNL     1     -41.286 -54.435  14.496  1.00  0.00     0.021 C 
HETATM   24  C   UNL     1     -41.262 -53.736  13.147  1.00  0.00     0.124 C 
ENDBRANCH   4  20
TORSDOF 6
ENDMDL
MODEL 7
REMARK VINA RESULT:      -4.8     13.522     15.364
REMARK  6 active torsions:
REMARK  status: ('A' for Active; 'I' for Inactive)
REMARK    1  A    between atoms: C_2  and  CA_3 
REMARK    2  A    between atoms: CA_3  and  C_4 
REMARK    3  A    between atoms: CA_3  and  N_6 
REMARK    4  A    between atoms: C_4  and  O_5 
REMARK       I    between atoms: N_6  and  C_7 
REMARK       I    between atoms: C_7  and  N_9 
REMARK    5  A    between atoms: N_9  and  C_10 
REMARK    6  A    between atoms: C_13  and  N_17 
ROOT
HETATM    1  C   UNL     1     -50.776 -47.360   1.074  1.00  0.00     0.051 A 
HETATM    2  C   UNL     1     -49.530 -46.799   1.299  1.00  0.00     0.035 A 
HETATM    3  C   UNL     1     -49.408 -45.627   2.039  1.00  0.00     0.051 A 
HETATM    4  C   UNL     1     -50.520 -45.020   2.609  1.00  0.00     0.103 A 
HETATM    5  N   UNL     1     -51.742 -45.583   2.440  1.00  0.00    -0.350 N 
ATOM      6  HN  UNL     1     -52.569 -45.164   2.863  1.00  0.00     0.166 HD
HETATM    7  C   UNL     1     -51.844 -46.721   1.692  1.00  0.00     0.119 A 
ENDROOT
BRANCH   1   8
HETATM    8  N   UNL     1     -50.970 -48.498   0.246  1.00  0.00    -0.308 N 
HETATM    9  C   UNL     1     -50.507 -49.759   0.555  1.00  0.00     0.321 C 
HETATM   10  N   UNL     1     -50.759 -50.691  -0.419  1.00  0.00    -0.336 N 
HETATM   11  O   UNL     1     -49.860 -50.063   1.553  1.00  0.00    -0.247 OA
HETATM   12  H   UNL     1     -51.563 -50.573  -1.021  1.00  0.00     0.164 HD
HETATM   13  H   UNL     1     -51.237 -48.340  -0.711  1.00  0.00     0.170 HD
BRANCH  10  14
HETATM   14  CA  UNL     1     -50.227 -52.052  -0.268  1.00  0.00     0.109 C 
BRANCH  14  15
HETATM   15  C   UNL     1     -51.299 -53.102  -0.622  1.00  0.00     0.023 C 
HETATM   16  C   UNL     1     -52.659 -52.488  -0.931  1.00  0.00     0.007 C 
ENDBRANCH  14  15
BRANCH  14  17
HETATM   17  C   UNL     1     -48.924 -52.192  -1.068  1.00  0.00     0.189 C 
BRANCH  17  18
HETATM   18  O   UNL     1     -47.867 -51.442  -0.475  1.00  0.00    -0.399 OA
HETATM   19  H   UNL     1     -48.212 -51.060   0.351  1.00  0.00     0.209 HD
ENDBRANCH  17  18
ENDBRANCH  14  17
ENDBRANCH  10  14
ENDBRANCH   1   8
BRANCH   4  20
HETATM   20  N   UNL     1     -50.399 -43.872   3.348  1.00  0.00    -0.367 N 
HETATM   21  C   UNL     1     -51.557 -43.097   3.766  1.00  0.00     0.124 C 
HETATM   22  C   UNL     1     -51.042 -42.236   4.929  1.00  0.00     0.021 C 
HETATM   23  C   UNL     1     -49.667 -42.793   5.266  1.00  0.00     0.021 C 
HETATM   24  C   UNL     1     -49.178 -43.368   3.947  1.00  0.00     0.124 C 
ENDBRANCH   4  20
TORSDOF 6
ENDMDL
MODEL 8
REMARK VINA RESULT:      -4.8      4.949      8.527
REMARK  6 active torsions:
REMARK  status: ('A' for Active; 'I' for Inactive)
REMARK    1  A    between atoms: C_2  and  CA_3 
REMARK    2  A    between atoms: CA_3  and  C_4 
REMARK    3  A    between atoms: CA_3  and  N_6 
REMARK    4  A    between atoms: C_4  and  O_5 
REMARK       I    between atoms: N_6  and  C_7 
REMARK       I    between atoms: C_7  and  N_9 
REMARK    5  A    between atoms: N_9  and  C_10 
REMARK    6  A    between atoms: C_13  and  N_17 
ROOT
HETATM    1  C   UNL     1     -41.900 -51.780  12.888  1.00  0.00     0.051 A 
HETATM    2  C   UNL     1     -42.950 -50.986  13.317  1.00  0.00     0.035 A 
HETATM    3  C   UNL     1     -43.110 -49.696  12.818  1.00  0.00     0.051 A 
HETATM    4  C   UNL     1     -42.254 -49.194  11.846  1.00  0.00     0.103 A 
HETATM    5  N   UNL     1     -41.250 -49.976  11.378  1.00  0.00    -0.350 N 
ATOM      6  HN  UNL     1     -40.621 -49.634  10.653  1.00  0.00     0.166 HD
HETATM    7  C   UNL     1     -41.097 -51.230  11.896  1.00  0.00     0.119 A 
ENDROOT
BRANCH   1   8
HETATM    8  N   UNL     1     -41.632 -53.064  13.434  1.00  0.00    -0.308 N 
HETATM    9  C   UNL     1     -41.000 -53.267  14.641  1.00  0.00     0.321 C 
HETATM   10  N   UNL     1     -40.795 -54.590  14.939  1.00  0.00    -0.336 N 
HETATM   11  O   UNL     1     -40.571 -52.390  15.385  1.00  0.00    -0.247 OA
HETATM   12  H   UNL     1     -41.430 -55.284  14.569  1.00  0.00     0.164 HD
HETATM   13  H   UNL     1     -41.681 -53.855  12.814  1.00  0.00     0.170 HD
BRANCH  10  14
HETATM   14  CA  UNL     1     -40.036 -54.947  16.145  1.00  0.00     0.109 C 
BRANCH  14  15
HETATM   15  C   UNL     1     -40.769 -56.041  16.949  1.00  0.00     0.023 C 
HETATM   16  C   UNL     1     -39.891 -57.249  17.253  1.00  0.00     0.007 C 
ENDBRANCH  14  15
BRANCH  14  17
HETATM   17  C   UNL     1     -38.595 -55.310  15.763  1.00  0.00     0.189 C 
BRANCH  17  18
HETATM   18  O   UNL     1     -38.477 -55.574  14.368  1.00  0.00    -0.399 OA
HETATM   19  H   UNL     1     -37.570 -55.889  14.209  1.00  0.00     0.209 HD
ENDBRANCH  17  18
ENDBRANCH  14  17
ENDBRANCH  10  14
ENDBRANCH   1   8
BRANCH   4  20
HETATM   20  N   UNL     1     -42.417 -47.928  11.345  1.00  0.00    -0.367 N 
HETATM   21  C   UNL     1     -41.332 -46.959  11.326  1.00  0.00     0.124 C 
HETATM   22  C   UNL     1     -41.766 -45.919  10.283  1.00  0.00     0.021 C 
HETATM   23  C   UNL     1     -42.968 -46.529   9.579  1.00  0.00     0.021 C 
HETATM   24  C   UNL     1     -43.582 -47.436  10.633  1.00  0.00     0.124 C 
ENDBRANCH   4  20
TORSDOF 6
ENDMDL
MODEL 9
REMARK VINA RESULT:      -4.7      3.921      7.043
REMARK  6 active torsions:
REMARK  status: ('A' for Active; 'I' for Inactive)
REMARK    1  A    between atoms: C_2  and  CA_3 
REMARK    2  A    between atoms: CA_3  and  C_4 
REMARK    3  A    between atoms: CA_3  and  N_6 
REMARK    4  A    between atoms: C_4  and  O_5 
REMARK       I    between atoms: N_6  and  C_7 
REMARK       I    between atoms: C_7  and  N_9 
REMARK    5  A    between atoms: N_9  and  C_10 
REMARK    6  A    between atoms: C_13  and  N_17 
ROOT
HETATM    1  C   UNL     1     -41.206 -46.105  10.799  1.00  0.00     0.051 A 
HETATM    2  C   UNL     1     -40.219 -45.134  10.841  1.00  0.00     0.035 A 
HETATM    3  C   UNL     1     -40.540 -43.815  11.151  1.00  0.00     0.051 A 
HETATM    4  C   UNL     1     -41.842 -43.452  11.473  1.00  0.00     0.103 A 
HETATM    5  N   UNL     1     -42.811 -44.399  11.485  1.00  0.00    -0.350 N 
ATOM      6  HN  UNL     1     -43.769 -44.158  11.735  1.00  0.00     0.166 HD
HETATM    7  C   UNL     1     -42.480 -45.683  11.157  1.00  0.00     0.119 A 
ENDROOT
BRANCH   1   8
HETATM    8  N   UNL     1     -40.953 -47.443  10.395  1.00  0.00    -0.308 N 
HETATM    9  C   UNL     1     -40.769 -48.489  11.273  1.00  0.00     0.321 C 
HETATM   10  N   UNL     1     -40.479 -49.680  10.658  1.00  0.00    -0.336 N 
HETATM   11  O   UNL     1     -40.775 -48.408  12.498  1.00  0.00    -0.247 OA
HETATM   12  H   UNL     1     -40.823 -49.850   9.724  1.00  0.00     0.164 HD
HETATM   13  H   UNL     1     -40.653 -47.596   9.446  1.00  0.00     0.170 HD
BRANCH  10  14
HETATM   14  CA  UNL     1     -40.154 -50.854  11.480  1.00  0.00     0.109 C 
BRANCH  14  15
HETATM   15  C   UNL     1     -39.001 -50.537  12.455  1.00  0.00     0.023 C 
HETATM   16  C   UNL     1     -37.640 -50.480  11.774  1.00  0.00     0.007 C 
ENDBRANCH  14  15
BRANCH  14  17
HETATM   17  C   UNL     1     -41.425 -51.378  12.161  1.00  0.00     0.189 C 
BRANCH  17  18
HETATM   18  O   UNL     1     -42.014 -52.441  11.417  1.00  0.00    -0.399 OA
HETATM   19  H   UNL     1     -41.289 -52.934  10.994  1.00  0.00     0.209 HD
ENDBRANCH  17  18
ENDBRANCH  14  17
ENDBRANCH  10  14
ENDBRANCH   1   8
BRANCH   4  20
HETATM   20  N   UNL     1     -42.157 -42.156  11.789  1.00  0.00    -0.367 N 
HETATM   21  C   UNL     1     -41.157 -41.099  11.800  1.00  0.00     0.124 C 
HETATM   22  C   UNL     1     -41.972 -39.800  11.706  1.00  0.00     0.021 C 
HETATM   23  C   UNL     1     -43.390 -40.236  11.371  1.00  0.00     0.021 C 
HETATM   24  C   UNL     1     -43.494 -41.625  11.979  1.00  0.00     0.124 C 
ENDBRANCH   4  20
TORSDOF 6
ENDMDL
