MODEL 1
REMARK VINA RESULT:      -6.3      0.000      0.000
REMARK  4 active torsions:
REMARK  status: ('A' for Active; 'I' for Inactive)
REMARK       I    between atoms: C_2  and  N_3 
REMARK       I    between atoms: C_2  and  N_16 
REMARK    1  A    between atoms: N_3  and  C_4 
REMARK    2  A    between atoms: C_4  and  C_5 
REMARK    3  A    between atoms: C_5  and  N_10 
REMARK    4  A    between atoms: N_16  and  C_17 
ROOT
HETATM    1  O   UNL     1     -41.971 -52.878  13.413  1.00  0.00    -0.247 OA
HETATM    2  C   UNL     1     -42.641 -52.251  12.609  1.00  0.00     0.320 C 
HETATM    3  N   UNL     1     -42.094 -51.256  11.814  1.00  0.00    -0.340 N 
HETATM    4  N   UNL     1     -44.006 -52.364  12.403  1.00  0.00    -0.309 N 
HETATM    5  H   UNL     1     -42.615 -50.982  10.996  1.00  0.00     0.164 HD
HETATM    6  H   UNL     1     -44.399 -51.803  11.664  1.00  0.00     0.170 HD
ENDROOT
BRANCH   3   7
HETATM    7  C   UNL     1     -40.660 -50.897  11.852  1.00  0.00     0.167 C 
BRANCH   7   8
HETATM    8  C   UNL     1     -40.291 -49.477  12.428  1.00  0.00     0.184 C 
HETATM    9  C   UNL     1     -41.278 -49.160  13.587  1.00  0.00     0.054 C 
HETATM   10  C   UNL     1     -41.254 -47.669  13.893  1.00  0.00     0.076 C 
HETATM   11  S   UNL     1     -40.919 -46.835  12.319  1.00  0.00    -0.166 SA
HETATM   12  C   UNL     1     -40.664 -48.377  11.390  1.00  0.00     0.117 C 
BRANCH   8  13
HETATM   13  N   UNL     1     -38.873 -49.271  12.911  1.00  0.00     0.104 N 
HETATM   14  C   UNL     1     -37.783 -49.213  11.916  1.00  0.00     0.299 C 
HETATM   15  C   UNL     1     -37.290 -50.587  11.441  1.00  0.00     0.198 C 
HETATM   16  O   UNL     1     -36.989 -51.491  12.510  1.00  0.00    -0.388 OA
HETATM   17  C   UNL     1     -37.953 -51.510  13.569  1.00  0.00     0.198 C 
HETATM   18  C   UNL     1     -38.372 -50.106  14.016  1.00  0.00     0.299 C 
ENDBRANCH   8  13
ENDBRANCH   7   8
ENDBRANCH   3   7
BRANCH   4  19
HETATM   19  C   UNL     1     -44.937 -53.069  13.206  1.00  0.00     0.038 A 
HETATM   20  C   UNL     1     -45.977 -52.469  13.911  1.00  0.00     0.046 A 
HETATM   21  C   UNL     1     -46.885 -53.282  14.575  1.00  0.00     0.090 A 
HETATM   22  N   UNL     1     -46.821 -54.630  14.596  1.00  0.00    -0.375 N 
HETATM   23  C   UNL     1     -45.792 -55.192  13.933  1.00  0.00     0.090 A 
ATOM     24  HN  UNL     1     -47.515 -55.193  15.088  1.00  0.00     0.164 HD
HETATM   25  C   UNL     1     -44.828 -54.463  13.247  1.00  0.00     0.046 A 
ENDBRANCH   4  19
TORSDOF 4
ENDMDL
MODEL 2
REMARK VINA RESULT:      -5.9      2.641      3.877
REMARK  4 active torsions:
REMARK  status: ('A' for Active; 'I' for Inactive)
REMARK       I    between atoms: C_2  and  N_3 
REMARK       I    between atoms: C_2  and  N_16 
REMARK    1  A    between atoms: N_3  and  C_4 
REMARK    2  A    between atoms: C_4  and  C_5 
REMARK    3  A    between atoms: C_5  and  N_10 
REMARK    4  A    between atoms: N_16  and  C_17 
ROOT
HETATM    1  O   UNL     1     -43.716 -50.124  14.413  1.00  0.00    -0.247 OA
HETATM    2  C   UNL     1     -43.715 -50.441  13.235  1.00  0.00     0.320 C 
HETATM    3  N   UNL     1     -43.245 -49.592  12.245  1.00  0.00    -0.340 N 
HETATM    4  N   UNL     1     -44.219 -51.614  12.695  1.00  0.00    -0.309 N 
HETATM    5  H   UNL     1     -43.013 -50.007  11.356  1.00  0.00     0.164 HD
HETATM    6  H   UNL     1     -44.097 -51.741  11.702  1.00  0.00     0.170 HD
ENDROOT
BRANCH   3   7
HETATM    7  C   UNL     1     -42.682 -48.258  12.536  1.00  0.00     0.167 C 
BRANCH   7   8
HETATM    8  C   UNL     1     -41.113 -48.113  12.477  1.00  0.00     0.184 C 
HETATM    9  C   UNL     1     -40.570 -49.191  11.497  1.00  0.00     0.054 C 
HETATM   10  C   UNL     1     -39.076 -49.384  11.716  1.00  0.00     0.076 C 
HETATM   11  S   UNL     1     -38.782 -49.086  13.480  1.00  0.00    -0.166 SA
HETATM   12  C   UNL     1     -40.492 -48.578  13.828  1.00  0.00     0.117 C 
BRANCH   8  13
HETATM   13  N   UNL     1     -40.554 -46.762  12.091  1.00  0.00     0.104 N 
HETATM   14  C   UNL     1     -40.882 -45.590  12.926  1.00  0.00     0.299 C 
HETATM   15  C   UNL     1     -42.254 -44.969  12.630  1.00  0.00     0.198 C 
HETATM   16  O   UNL     1     -42.481 -44.713  11.239  1.00  0.00    -0.388 OA
HETATM   17  C   UNL     1     -42.075 -45.768  10.360  1.00  0.00     0.198 C 
HETATM   18  C   UNL     1     -40.683 -46.315  10.692  1.00  0.00     0.299 C 
ENDBRANCH   8  13
ENDBRANCH   7   8
ENDBRANCH   3   7
BRANCH   4  19
HETATM   19  C   UNL     1     -45.012 -52.588  13.350  1.00  0.00     0.038 A 
HETATM   20  C   UNL     1     -46.168 -52.302  14.071  1.00  0.00     0.046 A 
HETATM   21  C   UNL     1     -46.913 -53.358  14.577  1.00  0.00     0.090 A 
HETATM   22  N   UNL     1     -46.583 -54.659  14.429  1.00  0.00    -0.375 N 
HETATM   23  C   UNL     1     -45.445 -54.915  13.755  1.00  0.00     0.090 A 
ATOM     24  HN  UNL     1     -47.163 -55.407  14.807  1.00  0.00     0.164 HD
HETATM   25  C   UNL     1     -44.628 -53.927  13.219  1.00  0.00     0.046 A 
ENDBRANCH   4  19
TORSDOF 4
ENDMDL
MODEL 3
REMARK VINA RESULT:      -5.9      3.050      4.113
REMARK  4 active torsions:
REMARK  status: ('A' for Active; 'I' for Inactive)
REMARK       I    between atoms: C_2  and  N_3 
REMARK       I    between atoms: C_2  and  N_16 
REMARK    1  A    between atoms: N_3  and  C_4 
REMARK    2  A    between atoms: C_4  and  C_5 
REMARK    3  A    between atoms: C_5  and  N_10 
REMARK    4  A    between atoms: N_16  and  C_17 
ROOT
HETATM    1  O   UNL     1     -42.457 -50.327  13.662  1.00  0.00    -0.247 OA
HETATM    2  C   UNL     1     -42.250 -50.759  12.540  1.00  0.00     0.320 C 
HETATM    3  N   UNL     1     -41.861 -49.936  11.495  1.00  0.00    -0.340 N 
HETATM    4  N   UNL     1     -42.424 -52.066  12.112  1.00  0.00    -0.309 N 
HETATM    5  H   UNL     1     -41.442 -50.379  10.692  1.00  0.00     0.164 HD
HETATM    6  H   UNL     1     -42.162 -52.266  11.159  1.00  0.00     0.170 HD
ENDROOT
BRANCH   3   7
HETATM    7  C   UNL     1     -41.635 -48.484  11.660  1.00  0.00     0.167 C 
BRANCH   7   8
HETATM    8  C   UNL     1     -42.513 -47.517  10.779  1.00  0.00     0.184 C 
HETATM    9  C   UNL     1     -44.006 -47.887  11.005  1.00  0.00     0.054 C 
HETATM   10  C   UNL     1     -44.860 -47.297   9.891  1.00  0.00     0.076 C 
HETATM   11  S   UNL     1     -43.821 -47.291   8.407  1.00  0.00    -0.166 SA
HETATM   12  C   UNL     1     -42.329 -47.867   9.272  1.00  0.00     0.117 C 
BRANCH   8  13
HETATM   13  N   UNL     1     -42.332 -46.030  10.988  1.00  0.00     0.104 N 
HETATM   14  C   UNL     1     -41.191 -45.353  10.339  1.00  0.00     0.299 C 
HETATM   15  C   UNL     1     -39.861 -45.496  11.093  1.00  0.00     0.198 C 
HETATM   16  O   UNL     1     -39.953 -45.172  12.485  1.00  0.00    -0.388 OA
HETATM   17  C   UNL     1     -41.104 -45.703  13.151  1.00  0.00     0.198 C 
HETATM   18  C   UNL     1     -42.398 -45.494  12.359  1.00  0.00     0.299 C 
ENDBRANCH   8  13
ENDBRANCH   7   8
ENDBRANCH   3   7
BRANCH   4  19
HETATM   19  C   UNL     1     -43.061 -53.119  12.813  1.00  0.00     0.038 A 
HETATM   20  C   UNL     1     -42.448 -53.889  13.797  1.00  0.00     0.046 A 
HETATM   21  C   UNL     1     -43.212 -54.821  14.484  1.00  0.00     0.090 A 
HETATM   22  N   UNL     1     -44.523 -55.045  14.252  1.00  0.00    -0.375 N 
HETATM   23  C   UNL     1     -45.093 -54.312  13.276  1.00  0.00     0.090 A 
ATOM     24  HN  UNL     1     -45.054 -55.733  14.787  1.00  0.00     0.164 HD
HETATM   25  C   UNL     1     -44.408 -53.362  12.527  1.00  0.00     0.046 A 
ENDBRANCH   4  19
TORSDOF 4
ENDMDL
MODEL 4
REMARK VINA RESULT:      -5.8      1.500      1.975
REMARK  4 active torsions:
REMARK  status: ('A' for Active; 'I' for Inactive)
REMARK       I    between atoms: C_2  and  N_3 
REMARK       I    between atoms: C_2  and  N_16 
REMARK    1  A    between atoms: N_3  and  C_4 
REMARK    2  A    between atoms: C_4  and  C_5 
REMARK    3  A    between atoms: C_5  and  N_10 
REMARK    4  A    between atoms: N_16  and  C_17 
ROOT
HETATM    1  O   UNL     1     -42.249 -51.803  13.944  1.00  0.00    -0.247 OA
HETATM    2  C   UNL     1     -42.628 -51.764  12.785  1.00  0.00     0.320 C 
HETATM    3  N   UNL     1     -42.019 -50.953  11.840  1.00  0.00    -0.340 N 
HETATM    4  N   UNL     1     -43.716 -52.432  12.248  1.00  0.00    -0.309 N 
HETATM    5  H   UNL     1     -42.187 -51.171  10.870  1.00  0.00     0.164 HD
HETATM    6  H   UNL     1     -43.865 -52.327  11.256  1.00  0.00     0.170 HD
ENDROOT
BRANCH   3   7
HETATM    7  C   UNL     1     -40.852 -50.100  12.148  1.00  0.00     0.167 C 
BRANCH   7   8
HETATM    8  C   UNL     1     -41.135 -48.580  12.454  1.00  0.00     0.184 C 
HETATM    9  C   UNL     1     -42.675 -48.394  12.570  1.00  0.00     0.054 C 
HETATM   10  C   UNL     1     -43.029 -46.919  12.441  1.00  0.00     0.076 C 
HETATM   11  S   UNL     1     -41.799 -46.201  11.320  1.00  0.00    -0.166 SA
HETATM   12  C   UNL     1     -40.811 -47.722  11.194  1.00  0.00     0.117 C 
BRANCH   8  13
HETATM   13  N   UNL     1     -40.467 -47.980  13.671  1.00  0.00     0.104 N 
HETATM   14  C   UNL     1     -39.082 -47.483  13.551  1.00  0.00     0.299 C 
HETATM   15  C   UNL     1     -38.009 -48.575  13.654  1.00  0.00     0.198 C 
HETATM   16  O   UNL     1     -38.171 -49.435  14.787  1.00  0.00    -0.388 OA
HETATM   17  C   UNL     1     -39.516 -49.863  15.030  1.00  0.00     0.198 C 
HETATM   18  C   UNL     1     -40.527 -48.716  14.947  1.00  0.00     0.299 C 
ENDBRANCH   8  13
ENDBRANCH   7   8
ENDBRANCH   3   7
BRANCH   4  19
HETATM   19  C   UNL     1     -44.727 -53.129  12.954  1.00  0.00     0.038 A 
HETATM   20  C   UNL     1     -44.712 -54.500  13.196  1.00  0.00     0.046 A 
HETATM   21  C   UNL     1     -45.709 -55.045  13.992  1.00  0.00     0.090 A 
HETATM   22  N   UNL     1     -46.713 -54.331  14.545  1.00  0.00    -0.375 N 
HETATM   23  C   UNL     1     -46.729 -53.012  14.276  1.00  0.00     0.090 A 
ATOM     24  HN  UNL     1     -47.422 -54.768  15.134  1.00  0.00     0.164 HD
HETATM   25  C   UNL     1     -45.781 -52.376  13.483  1.00  0.00     0.046 A 
ENDBRANCH   4  19
TORSDOF 4
ENDMDL
MODEL 5
REMARK VINA RESULT:      -5.8      3.811      5.723
REMARK  4 active torsions:
REMARK  status: ('A' for Active; 'I' for Inactive)
REMARK       I    between atoms: C_2  and  N_3 
REMARK       I    between atoms: C_2  and  N_16 
REMARK    1  A    between atoms: N_3  and  C_4 
REMARK    2  A    between atoms: C_4  and  C_5 
REMARK    3  A    between atoms: C_5  and  N_10 
REMARK    4  A    between atoms: N_16  and  C_17 
ROOT
HETATM    1  O   UNL     1     -43.114 -48.027  12.977  1.00  0.00    -0.247 OA
HETATM    2  C   UNL     1     -42.658 -48.672  12.047  1.00  0.00     0.320 C 
HETATM    3  N   UNL     1     -41.657 -49.614  12.226  1.00  0.00    -0.340 N 
HETATM    4  N   UNL     1     -42.989 -48.539  10.708  1.00  0.00    -0.309 N 
HETATM    5  H   UNL     1     -41.529 -50.293  11.492  1.00  0.00     0.164 HD
HETATM    6  H   UNL     1     -42.552 -49.184  10.069  1.00  0.00     0.170 HD
ENDROOT
BRANCH   3   7
HETATM    7  C   UNL     1     -41.088 -49.936  13.551  1.00  0.00     0.167 C 
BRANCH   7   8
HETATM    8  C   UNL     1     -40.406 -51.348  13.715  1.00  0.00     0.184 C 
HETATM    9  C   UNL     1     -40.928 -52.266  12.573  1.00  0.00     0.054 C 
HETATM   10  C   UNL     1     -40.650 -53.723  12.914  1.00  0.00     0.076 C 
HETATM   11  S   UNL     1     -40.756 -53.849  14.719  1.00  0.00    -0.166 SA
HETATM   12  C   UNL     1     -40.976 -52.063  14.976  1.00  0.00     0.117 C 
BRANCH   8  13
HETATM   13  N   UNL     1     -38.895 -51.391  13.737  1.00  0.00     0.104 N 
HETATM   14  C   UNL     1     -38.187 -50.941  14.953  1.00  0.00     0.299 C 
HETATM   15  C   UNL     1     -38.022 -49.418  15.059  1.00  0.00     0.198 C 
HETATM   16  O   UNL     1     -37.487 -48.815  13.876  1.00  0.00    -0.388 OA
HETATM   17  C   UNL     1     -38.051 -49.293  12.649  1.00  0.00     0.198 C 
HETATM   18  C   UNL     1     -38.152 -50.821  12.599  1.00  0.00     0.299 C 
ENDBRANCH   8  13
ENDBRANCH   7   8
ENDBRANCH   3   7
BRANCH   4  19
HETATM   19  C   UNL     1     -43.761 -47.509  10.114  1.00  0.00     0.038 A 
HETATM   20  C   UNL     1     -43.258 -46.262   9.751  1.00  0.00     0.046 A 
HETATM   21  C   UNL     1     -44.093 -45.379   9.082  1.00  0.00     0.090 A 
HETATM   22  N   UNL     1     -45.379 -45.643   8.765  1.00  0.00    -0.375 N 
HETATM   23  C   UNL     1     -45.856 -46.841   9.150  1.00  0.00     0.090 A 
ATOM     24  HN  UNL     1     -45.957 -44.970   8.262  1.00  0.00     0.164 HD
HETATM   25  C   UNL     1     -45.102 -47.788   9.833  1.00  0.00     0.046 A 
ENDBRANCH   4  19
TORSDOF 4
ENDMDL
MODEL 6
REMARK VINA RESULT:      -5.8      3.395      7.238
REMARK  4 active torsions:
REMARK  status: ('A' for Active; 'I' for Inactive)
REMARK       I    between atoms: C_2  and  N_3 
REMARK       I    between atoms: C_2  and  N_16 
REMARK    1  A    between atoms: N_3  and  C_4 
REMARK    2  A    between atoms: C_4  and  C_5 
REMARK    3  A    between atoms: C_5  and  N_10 
REMARK    4  A    between atoms: N_16  and  C_17 
ROOT
HETATM    1  O   UNL     1     -42.877 -49.130  13.982  1.00  0.00    -0.247 OA
HETATM    2  C   UNL     1     -43.330 -49.635  12.968  1.00  0.00     0.320 C 
HETATM    3  N   UNL     1     -43.906 -50.896  12.969  1.00  0.00    -0.340 N 
HETATM    4  N   UNL     1     -43.290 -49.102  11.690  1.00  0.00    -0.309 N 
HETATM    5  H   UNL     1     -44.498 -51.131  12.188  1.00  0.00     0.164 HD
HETATM    6  H   UNL     1     -43.753 -49.630  10.967  1.00  0.00     0.170 HD
ENDROOT
BRANCH   3   7
HETATM    7  C   UNL     1     -44.048 -51.711  14.194  1.00  0.00     0.167 C 
BRANCH   7   8
HETATM    8  C   UNL     1     -42.992 -52.860  14.418  1.00  0.00     0.184 C 
HETATM    9  C   UNL     1     -41.782 -52.254  15.184  1.00  0.00     0.054 C 
HETATM   10  C   UNL     1     -40.576 -53.175  15.057  1.00  0.00     0.076 C 
HETATM   11  S   UNL     1     -40.714 -53.967  13.433  1.00  0.00    -0.166 SA
HETATM   12  C   UNL     1     -42.339 -53.245  13.056  1.00  0.00     0.117 C 
BRANCH   8  13
HETATM   13  N   UNL     1     -43.462 -54.105  15.134  1.00  0.00     0.104 N 
HETATM   14  C   UNL     1     -44.066 -55.197  14.344  1.00  0.00     0.299 C 
HETATM   15  C   UNL     1     -45.547 -54.984  14.003  1.00  0.00     0.198 C 
HETATM   16  O   UNL     1     -46.353 -54.635  15.134  1.00  0.00    -0.388 OA
HETATM   17  C   UNL     1     -45.772 -53.662  16.009  1.00  0.00     0.198 C 
HETATM   18  C   UNL     1     -44.305 -53.958  16.335  1.00  0.00     0.299 C 
ENDBRANCH   8  13
ENDBRANCH   7   8
ENDBRANCH   3   7
BRANCH   4  19
HETATM   19  C   UNL     1     -42.551 -47.974  11.255  1.00  0.00     0.038 A 
HETATM   20  C   UNL     1     -41.177 -47.825  11.420  1.00  0.00     0.046 A 
HETATM   21  C   UNL     1     -40.556 -46.721  10.855  1.00  0.00     0.090 A 
HETATM   22  N   UNL     1     -41.202 -45.760  10.159  1.00  0.00    -0.375 N 
HETATM   23  C   UNL     1     -42.535 -45.905  10.035  1.00  0.00     0.090 A 
ATOM     24  HN  UNL     1     -40.707 -44.968   9.750  1.00  0.00     0.164 HD
HETATM   25  C   UNL     1     -43.248 -46.970  10.573  1.00  0.00     0.046 A 
ENDBRANCH   4  19
TORSDOF 4
ENDMDL
MODEL 7
REMARK VINA RESULT:      -5.6      1.880      3.380
REMARK  4 active torsions:
REMARK  status: ('A' for Active; 'I' for Inactive)
REMARK       I    between atoms: C_2  and  N_3 
REMARK       I    between atoms: C_2  and  N_16 
REMARK    1  A    between atoms: N_3  and  C_4 
REMARK    2  A    between atoms: C_4  and  C_5 
REMARK    3  A    between atoms: C_5  and  N_10 
REMARK    4  A    between atoms: N_16  and  C_17 
ROOT
HETATM    1  O   UNL     1     -41.864 -52.625  13.340  1.00  0.00    -0.247 OA
HETATM    2  C   UNL     1     -42.560 -51.944  12.604  1.00  0.00     0.320 C 
HETATM    3  N   UNL     1     -42.069 -50.819  11.962  1.00  0.00    -0.340 N 
HETATM    4  N   UNL     1     -43.909 -52.122  12.345  1.00  0.00    -0.309 N 
HETATM    5  H   UNL     1     -42.592 -50.476  11.171  1.00  0.00     0.164 HD
HETATM    6  H   UNL     1     -44.325 -51.497  11.673  1.00  0.00     0.170 HD
ENDROOT
BRANCH   3   7
HETATM    7  C   UNL     1     -40.666 -50.372  12.089  1.00  0.00     0.167 C 
BRANCH   7   8
HETATM    8  C   UNL     1     -40.391 -49.125  13.015  1.00  0.00     0.184 C 
HETATM    9  C   UNL     1     -38.855 -49.021  13.233  1.00  0.00     0.054 C 
HETATM   10  C   UNL     1     -38.561 -48.126  14.428  1.00  0.00     0.076 C 
HETATM   11  S   UNL     1     -39.940 -48.357  15.582  1.00  0.00    -0.166 SA
HETATM   12  C   UNL     1     -40.892 -49.424  14.460  1.00  0.00     0.117 C 
BRANCH   8  13
HETATM   13  N   UNL     1     -40.920 -47.786  12.552  1.00  0.00     0.104 N 
HETATM   14  C   UNL     1     -42.293 -47.395  12.929  1.00  0.00     0.299 C 
HETATM   15  C   UNL     1     -43.388 -47.996  12.037  1.00  0.00     0.198 C 
HETATM   16  O   UNL     1     -43.149 -47.821  10.637  1.00  0.00    -0.388 OA
HETATM   17  C   UNL     1     -41.802 -48.073  10.221  1.00  0.00     0.198 C 
HETATM   18  C   UNL     1     -40.765 -47.414  11.135  1.00  0.00     0.299 C 
ENDBRANCH   8  13
ENDBRANCH   7   8
ENDBRANCH   3   7
BRANCH   4  19
HETATM   19  C   UNL     1     -44.804 -52.989  13.020  1.00  0.00     0.038 A 
HETATM   20  C   UNL     1     -44.677 -54.374  13.058  1.00  0.00     0.046 A 
HETATM   21  C   UNL     1     -45.560 -55.101  13.843  1.00  0.00     0.090 A 
HETATM   22  N   UNL     1     -46.555 -54.553  14.572  1.00  0.00    -0.375 N 
HETATM   23  C   UNL     1     -46.682 -53.214  14.500  1.00  0.00     0.090 A 
ATOM     24  HN  UNL     1     -47.178 -55.122  15.145  1.00  0.00     0.164 HD
HETATM   25  C   UNL     1     -45.854 -52.402  13.735  1.00  0.00     0.046 A 
ENDBRANCH   4  19
TORSDOF 4
ENDMDL
MODEL 8
REMARK VINA RESULT:      -5.5      1.624      2.253
REMARK  4 active torsions:
REMARK  status: ('A' for Active; 'I' for Inactive)
REMARK       I    between atoms: C_2  and  N_3 
REMARK       I    between atoms: C_2  and  N_16 
REMARK    1  A    between atoms: N_3  and  C_4 
REMARK    2  A    between atoms: C_4  and  C_5 
REMARK    3  A    between atoms: C_5  and  N_10 
REMARK    4  A    between atoms: N_16  and  C_17 
ROOT
HETATM    1  O   UNL     1     -42.501 -50.840  14.546  1.00  0.00    -0.247 OA
HETATM    2  C   UNL     1     -43.075 -50.313  13.607  1.00  0.00     0.320 C 
HETATM    3  N   UNL     1     -42.754 -49.037  13.171  1.00  0.00    -0.340 N 
HETATM    4  N   UNL     1     -44.138 -50.837  12.889  1.00  0.00    -0.309 N 
HETATM    5  H   UNL     1     -43.054 -48.779  12.244  1.00  0.00     0.164 HD
HETATM    6  H   UNL     1     -44.468 -50.290  12.109  1.00  0.00     0.170 HD
ENDROOT
BRANCH   3   7
HETATM    7  C   UNL     1     -41.679 -48.228  13.782  1.00  0.00     0.167 C 
BRANCH   7   8
HETATM    8  C   UNL     1     -40.655 -47.538  12.802  1.00  0.00     0.184 C 
HETATM    9  C   UNL     1     -40.417 -46.085  13.304  1.00  0.00     0.054 C 
HETATM   10  C   UNL     1     -39.793 -45.250  12.195  1.00  0.00     0.076 C 
HETATM   11  S   UNL     1     -40.449 -45.906  10.638  1.00  0.00    -0.166 SA
HETATM   12  C   UNL     1     -41.336 -47.285  11.424  1.00  0.00     0.117 C 
BRANCH   8  13
HETATM   13  N   UNL     1     -39.320 -48.219  12.599  1.00  0.00     0.104 N 
HETATM   14  C   UNL     1     -39.233 -49.347  11.650  1.00  0.00     0.299 C 
HETATM   15  C   UNL     1     -39.693 -50.693  12.227  1.00  0.00     0.198 C 
HETATM   16  O   UNL     1     -39.096 -51.011  13.490  1.00  0.00    -0.388 OA
HETATM   17  C   UNL     1     -39.043 -49.924  14.420  1.00  0.00     0.198 C 
HETATM   18  C   UNL     1     -38.543 -48.623  13.784  1.00  0.00     0.299 C 
ENDBRANCH   8  13
ENDBRANCH   7   8
ENDBRANCH   3   7
BRANCH   4  19
HETATM   19  C   UNL     1     -44.908 -51.982  13.211  1.00  0.00     0.038 A 
HETATM   20  C   UNL     1     -44.539 -53.288  12.901  1.00  0.00     0.046 A 
HETATM   21  C   UNL     1     -45.329 -54.329  13.366  1.00  0.00     0.090 A 
HETATM   22  N   UNL     1     -46.453 -54.162  14.096  1.00  0.00    -0.375 N 
HETATM   23  C   UNL     1     -46.810 -52.891  14.361  1.00  0.00     0.090 A 
ATOM     24  HN  UNL     1     -47.001 -54.955  14.428  1.00  0.00     0.164 HD
HETATM   25  C   UNL     1     -46.090 -51.782  13.932  1.00  0.00     0.046 A 
ENDBRANCH   4  19
TORSDOF 4
ENDMDL
MODEL 9
REMARK VINA RESULT:      -5.5      3.489      5.866
REMARK  4 active torsions:
REMARK  status: ('A' for Active; 'I' for Inactive)
REMARK       I    between atoms: C_2  and  N_3 
REMARK       I    between atoms: C_2  and  N_16 
REMARK    1  A    between atoms: N_3  and  C_4 
REMARK    2  A    between atoms: C_4  and  C_5 
REMARK    3  A    between atoms: C_5  and  N_10 
REMARK    4  A    between atoms: N_16  and  C_17 
ROOT
HETATM    1  O   UNL     1     -42.322 -49.783  11.921  1.00  0.00    -0.247 OA
HETATM    2  C   UNL     1     -41.346 -49.535  11.233  1.00  0.00     0.320 C 
HETATM    3  N   UNL     1     -40.159 -50.241  11.357  1.00  0.00    -0.340 N 
HETATM    4  N   UNL     1     -41.228 -48.513  10.303  1.00  0.00    -0.309 N 
HETATM    5  H   UNL     1     -39.507 -50.181  10.590  1.00  0.00     0.164 HD
HETATM    6  H   UNL     1     -40.365 -48.474   9.784  1.00  0.00     0.170 HD
ENDROOT
BRANCH   3   7
HETATM    7  C   UNL     1     -39.991 -51.365  12.301  1.00  0.00     0.167 C 
BRANCH   7   8
HETATM    8  C   UNL     1     -39.340 -51.036  13.699  1.00  0.00     0.184 C 
HETATM    9  C   UNL     1     -39.645 -49.547  14.030  1.00  0.00     0.054 C 
HETATM   10  C   UNL     1     -38.710 -49.059  15.127  1.00  0.00     0.076 C 
HETATM   11  S   UNL     1     -37.153 -49.959  14.901  1.00  0.00    -0.166 SA
HETATM   12  C   UNL     1     -37.788 -51.014  13.564  1.00  0.00     0.117 C 
BRANCH   8  13
HETATM   13  N   UNL     1     -39.743 -51.899  14.873  1.00  0.00     0.104 N 
HETATM   14  C   UNL     1     -39.122 -53.231  15.024  1.00  0.00     0.299 C 
HETATM   15  C   UNL     1     -39.761 -54.326  14.158  1.00  0.00     0.198 C 
HETATM   16  O   UNL     1     -41.188 -54.386  14.268  1.00  0.00    -0.388 OA
HETATM   17  C   UNL     1     -41.846 -53.115  14.246  1.00  0.00     0.198 C 
HETATM   18  C   UNL     1     -41.177 -52.083  15.159  1.00  0.00     0.299 C 
ENDBRANCH   8  13
ENDBRANCH   7   8
ENDBRANCH   3   7
BRANCH   4  19
HETATM   19  C   UNL     1     -42.122 -47.433  10.100  1.00  0.00     0.038 A 
HETATM   20  C   UNL     1     -42.005 -46.192  10.719  1.00  0.00     0.046 A 
HETATM   21  C   UNL     1     -42.884 -45.182  10.355  1.00  0.00     0.090 A 
HETATM   22  N   UNL     1     -43.867 -45.326   9.440  1.00  0.00    -0.375 N 
HETATM   23  C   UNL     1     -43.984 -46.542   8.873  1.00  0.00     0.090 A 
ATOM     24  HN  UNL     1     -44.487 -44.556   9.192  1.00  0.00     0.164 HD
HETATM   25  C   UNL     1     -43.158 -47.618   9.179  1.00  0.00     0.046 A 
ENDBRANCH   4  19
TORSDOF 4
ENDMDL
