MODEL 1
REMARK VINA RESULT:      -6.0      0.000      0.000
REMARK  4 active torsions:
REMARK  status: ('A' for Active; 'I' for Inactive)
REMARK    1  A    between atoms: N_2  and  C_4 
REMARK    2  A    between atoms: C_4  and  C_5 
REMARK    3  A    between atoms: C_5  and  N_6 
REMARK       I    between atoms: N_6  and  C_7 
REMARK       I    between atoms: C_7  and  N_9 
REMARK    4  A    between atoms: N_9  and  C_10 
ROOT
HETATM    1  N   UNL     1     -42.690 -50.879  12.124  1.00  0.00    -0.340 N 
HETATM    2  C   UNL     1     -42.075 -49.643  12.181  1.00  0.00     0.322 C 
HETATM    3  O   UNL     1     -41.579 -49.226  13.218  1.00  0.00    -0.247 OA
HETATM    4  N   UNL     1     -42.118 -48.979  10.983  1.00  0.00    -0.288 N 
HETATM    5  H   UNL     1     -42.760 -51.310  11.218  1.00  0.00     0.164 HD
HETATM    6  H   UNL     1     -42.815 -49.247  10.307  1.00  0.00     0.172 HD
ENDROOT
BRANCH   1   7
HETATM    7  C   UNL     1     -42.554 -51.730  13.296  1.00  0.00     0.166 C 
BRANCH   7   8
HETATM    8  C   UNL     1     -43.855 -52.203  14.033  1.00  0.00     0.174 C 
HETATM    9  C   UNL     1     -44.353 -50.938  14.822  1.00  0.00     0.043 C 
HETATM   10  C   UNL     1     -45.737 -51.106  15.442  1.00  0.00     0.003 C 
HETATM   11  C   UNL     1     -46.768 -51.377  14.358  1.00  0.00     0.000 C 
HETATM   12  C   UNL     1     -46.384 -52.589  13.516  1.00  0.00     0.003 C 
HETATM   13  C   UNL     1     -44.957 -52.497  12.964  1.00  0.00     0.043 C 
BRANCH   8  14
HETATM   14  N   UNL     1     -43.670 -53.355  14.980  1.00  0.00     0.091 N 
HETATM   15  C   UNL     1     -43.409 -54.664  14.386  1.00  0.00     0.310 C 
HETATM   16  C   UNL     1     -42.666 -53.127  16.031  1.00  0.00     0.310 C 
ENDBRANCH   8  14
ENDBRANCH   7   8
ENDBRANCH   1   7
BRANCH   4  17
HETATM   17  C   UNL     1     -41.556 -47.744  10.755  1.00  0.00     0.168 A 
HETATM   18  N   UNL     1     -40.256 -47.546  10.714  1.00  0.00    -0.279 N 
HETATM   19  N   UNL     1     -39.938 -46.230  10.426  1.00  0.00    -0.303 N 
ATOM     20  HN  UNL     1     -39.563 -48.278  10.874  1.00  0.00     0.189 HD
HETATM   21  C   UNL     1     -41.017 -45.488  10.304  1.00  0.00     0.160 A 
ATOM     22  HN  UNL     1     -38.986 -45.880  10.322  1.00  0.00     0.186 HD
HETATM   23  S   UNL     1     -42.485 -46.320  10.573  1.00  0.00    -0.046 SA
ENDBRANCH   4  17
TORSDOF 4
ENDMDL
MODEL 2
REMARK VINA RESULT:      -5.9      0.960      2.010
REMARK  4 active torsions:
REMARK  status: ('A' for Active; 'I' for Inactive)
REMARK    1  A    between atoms: N_2  and  C_4 
REMARK    2  A    between atoms: C_4  and  C_5 
REMARK    3  A    between atoms: C_5  and  N_6 
REMARK       I    between atoms: N_6  and  C_7 
REMARK       I    between atoms: C_7  and  N_9 
REMARK    4  A    between atoms: N_9  and  C_10 
ROOT
HETATM    1  N   UNL     1     -42.342 -51.116  12.006  1.00  0.00    -0.340 N 
HETATM    2  C   UNL     1     -41.802 -49.846  12.075  1.00  0.00     0.322 C 
HETATM    3  O   UNL     1     -41.211 -49.459  13.073  1.00  0.00    -0.247 OA
HETATM    4  N   UNL     1     -42.030 -49.115  10.938  1.00  0.00    -0.288 N 
HETATM    5  H   UNL     1     -42.493 -51.496  11.087  1.00  0.00     0.164 HD
HETATM    6  H   UNL     1     -42.785 -49.391  10.330  1.00  0.00     0.172 HD
ENDROOT
BRANCH   1   7
HETATM    7  C   UNL     1     -42.014 -52.024  13.094  1.00  0.00     0.166 C 
BRANCH   7   8
HETATM    8  C   UNL     1     -43.186 -52.683  13.899  1.00  0.00     0.174 C 
HETATM    9  C   UNL     1     -44.415 -52.653  12.919  1.00  0.00     0.043 C 
HETATM   10  C   UNL     1     -45.618 -53.447  13.417  1.00  0.00     0.003 C 
HETATM   11  C   UNL     1     -45.243 -54.909  13.599  1.00  0.00     0.000 C 
HETATM   12  C   UNL     1     -44.048 -55.064  14.535  1.00  0.00     0.003 C 
HETATM   13  C   UNL     1     -42.855 -54.196  14.117  1.00  0.00     0.043 C 
BRANCH   8  14
HETATM   14  N   UNL     1     -43.544 -51.995  15.187  1.00  0.00     0.091 N 
HETATM   15  C   UNL     1     -42.550 -52.038  16.257  1.00  0.00     0.310 C 
HETATM   16  C   UNL     1     -43.983 -50.600  15.032  1.00  0.00     0.310 C 
ENDBRANCH   8  14
ENDBRANCH   7   8
ENDBRANCH   1   7
BRANCH   4  17
HETATM   17  C   UNL     1     -41.576 -47.833  10.730  1.00  0.00     0.168 A 
HETATM   18  N   UNL     1     -40.299 -47.530  10.649  1.00  0.00    -0.279 N 
HETATM   19  N   UNL     1     -40.098 -46.185  10.394  1.00  0.00    -0.303 N 
ATOM     20  HN  UNL     1     -39.544 -48.208  10.760  1.00  0.00     0.189 HD
HETATM   21  C   UNL     1     -41.236 -45.528  10.335  1.00  0.00     0.160 A 
ATOM     22  HN  UNL     1     -39.181 -45.756  10.267  1.00  0.00     0.186 HD
HETATM   23  S   UNL     1     -42.622 -46.484  10.629  1.00  0.00    -0.046 SA
ENDBRANCH   4  17
TORSDOF 4
ENDMDL
MODEL 3
REMARK VINA RESULT:      -5.7      2.515      2.819
REMARK  4 active torsions:
REMARK  status: ('A' for Active; 'I' for Inactive)
REMARK    1  A    between atoms: N_2  and  C_4 
REMARK    2  A    between atoms: C_4  and  C_5 
REMARK    3  A    between atoms: C_5  and  N_6 
REMARK       I    between atoms: N_6  and  C_7 
REMARK       I    between atoms: C_7  and  N_9 
REMARK    4  A    between atoms: N_9  and  C_10 
ROOT
HETATM    1  N   UNL     1     -43.170 -50.462  13.196  1.00  0.00    -0.340 N 
HETATM    2  C   UNL     1     -41.968 -50.809  12.611  1.00  0.00     0.322 C 
HETATM    3  O   UNL     1     -41.792 -51.919  12.129  1.00  0.00    -0.247 OA
HETATM    4  N   UNL     1     -41.045 -49.797  12.665  1.00  0.00    -0.288 N 
HETATM    5  H   UNL     1     -43.381 -49.480  13.252  1.00  0.00     0.164 HD
HETATM    6  H   UNL     1     -41.165 -49.070  13.354  1.00  0.00     0.172 HD
ENDROOT
BRANCH   1   7
HETATM    7  C   UNL     1     -44.266 -51.406  13.044  1.00  0.00     0.166 C 
BRANCH   7   8
HETATM    8  C   UNL     1     -44.976 -51.943  14.335  1.00  0.00     0.174 C 
HETATM    9  C   UNL     1     -44.409 -51.059  15.504  1.00  0.00     0.043 C 
HETATM   10  C   UNL     1     -45.130 -51.261  16.833  1.00  0.00     0.003 C 
HETATM   11  C   UNL     1     -46.602 -50.904  16.691  1.00  0.00     0.000 C 
HETATM   12  C   UNL     1     -47.263 -51.702  15.572  1.00  0.00     0.003 C 
HETATM   13  C   UNL     1     -46.500 -51.602  14.246  1.00  0.00     0.043 C 
BRANCH   8  14
HETATM   14  N   UNL     1     -44.743 -53.397  14.635  1.00  0.00     0.091 N 
HETATM   15  C   UNL     1     -45.366 -54.366  13.735  1.00  0.00     0.310 C 
HETATM   16  C   UNL     1     -43.329 -53.769  14.792  1.00  0.00     0.310 C 
ENDBRANCH   8  14
ENDBRANCH   7   8
ENDBRANCH   1   7
BRANCH   4  17
HETATM   17  C   UNL     1     -39.779 -49.866  12.132  1.00  0.00     0.168 A 
HETATM   18  N   UNL     1     -39.551 -50.027  10.846  1.00  0.00    -0.279 N 
HETATM   19  N   UNL     1     -38.199 -50.022  10.552  1.00  0.00    -0.303 N 
ATOM     20  HN  UNL     1     -40.286 -50.142  10.148  1.00  0.00     0.189 HD
HETATM   21  C   UNL     1     -37.468 -49.897  11.638  1.00  0.00     0.160 A 
ATOM     22  HN  UNL     1     -37.817 -50.105   9.610  1.00  0.00     0.186 HD
HETATM   23  S   UNL     1     -38.363 -49.823  13.092  1.00  0.00    -0.046 SA
ENDBRANCH   4  17
TORSDOF 4
ENDMDL
MODEL 4
REMARK VINA RESULT:      -5.6      3.442      7.120
REMARK  4 active torsions:
REMARK  status: ('A' for Active; 'I' for Inactive)
REMARK    1  A    between atoms: N_2  and  C_4 
REMARK    2  A    between atoms: C_4  and  C_5 
REMARK    3  A    between atoms: C_5  and  N_6 
REMARK       I    between atoms: N_6  and  C_7 
REMARK       I    between atoms: C_7  and  N_9 
REMARK    4  A    between atoms: N_9  and  C_10 
ROOT
HETATM    1  N   UNL     1     -41.578 -48.291  11.139  1.00  0.00    -0.340 N 
HETATM    2  C   UNL     1     -41.030 -49.526  11.428  1.00  0.00     0.322 C 
HETATM    3  O   UNL     1     -39.824 -49.715  11.373  1.00  0.00    -0.247 OA
HETATM    4  N   UNL     1     -41.980 -50.461  11.747  1.00  0.00    -0.288 N 
HETATM    5  H   UNL     1     -42.486 -48.095  11.525  1.00  0.00     0.164 HD
HETATM    6  H   UNL     1     -42.930 -50.306  11.448  1.00  0.00     0.172 HD
ENDROOT
BRANCH   1   7
HETATM    7  C   UNL     1     -40.646 -47.191  10.949  1.00  0.00     0.166 C 
BRANCH   7   8
HETATM    8  C   UNL     1     -40.827 -45.898  11.816  1.00  0.00     0.174 C 
HETATM    9  C   UNL     1     -39.912 -44.820  11.127  1.00  0.00     0.043 C 
HETATM   10  C   UNL     1     -40.101 -43.411  11.677  1.00  0.00     0.003 C 
HETATM   11  C   UNL     1     -41.539 -42.957  11.473  1.00  0.00     0.000 C 
HETATM   12  C   UNL     1     -42.526 -43.936  12.099  1.00  0.00     0.003 C 
HETATM   13  C   UNL     1     -42.293 -45.382  11.644  1.00  0.00     0.043 C 
BRANCH   8  14
HETATM   14  N   UNL     1     -40.448 -46.039  13.263  1.00  0.00     0.091 N 
HETATM   15  C   UNL     1     -41.443 -46.634  14.152  1.00  0.00     0.310 C 
HETATM   16  C   UNL     1     -39.166 -46.724  13.495  1.00  0.00     0.310 C 
ENDBRANCH   8  14
ENDBRANCH   7   8
ENDBRANCH   1   7
BRANCH   4  17
HETATM   17  C   UNL     1     -41.706 -51.761  12.105  1.00  0.00     0.168 A 
HETATM   18  N   UNL     1     -41.125 -52.619  11.294  1.00  0.00    -0.279 N 
HETATM   19  N   UNL     1     -40.917 -53.847  11.898  1.00  0.00    -0.303 N 
ATOM     20  HN  UNL     1     -40.858 -52.404  10.333  1.00  0.00     0.189 HD
HETATM   21  C   UNL     1     -41.389 -53.869  13.126  1.00  0.00     0.160 A 
ATOM     22  HN  UNL     1     -40.455 -54.637  11.447  1.00  0.00     0.186 HD
HETATM   23  S   UNL     1     -42.155 -52.423  13.617  1.00  0.00    -0.046 SA
ENDBRANCH   4  17
TORSDOF 4
ENDMDL
MODEL 5
REMARK VINA RESULT:      -5.6      3.449      6.848
REMARK  4 active torsions:
REMARK  status: ('A' for Active; 'I' for Inactive)
REMARK    1  A    between atoms: N_2  and  C_4 
REMARK    2  A    between atoms: C_4  and  C_5 
REMARK    3  A    between atoms: C_5  and  N_6 
REMARK       I    between atoms: N_6  and  C_7 
REMARK       I    between atoms: C_7  and  N_9 
REMARK    4  A    between atoms: N_9  and  C_10 
ROOT
HETATM    1  N   UNL     1     -41.972 -49.003  11.076  1.00  0.00    -0.340 N 
HETATM    2  C   UNL     1     -41.287 -50.112  11.534  1.00  0.00     0.322 C 
HETATM    3  O   UNL     1     -40.072 -50.098  11.667  1.00  0.00    -0.247 OA
HETATM    4  N   UNL     1     -42.115 -51.176  11.783  1.00  0.00    -0.288 N 
HETATM    5  H   UNL     1     -42.948 -48.943  11.312  1.00  0.00     0.164 HD
HETATM    6  H   UNL     1     -43.020 -51.198  11.341  1.00  0.00     0.172 HD
ENDROOT
BRANCH   1   7
HETATM    7  C   UNL     1     -41.208 -47.773  10.939  1.00  0.00     0.166 C 
BRANCH   7   8
HETATM    8  C   UNL     1     -41.448 -46.622  11.976  1.00  0.00     0.174 C 
HETATM    9  C   UNL     1     -42.830 -46.963  12.643  1.00  0.00     0.043 C 
HETATM   10  C   UNL     1     -43.163 -46.090  13.848  1.00  0.00     0.003 C 
HETATM   11  C   UNL     1     -42.105 -46.259  14.928  1.00  0.00     0.000 C 
HETATM   12  C   UNL     1     -40.709 -45.958  14.391  1.00  0.00     0.003 C 
HETATM   13  C   UNL     1     -40.385 -46.747  13.116  1.00  0.00     0.043 C 
BRANCH   8  14
HETATM   14  N   UNL     1     -41.489 -45.237  11.396  1.00  0.00     0.091 N 
HETATM   15  C   UNL     1     -40.266 -44.749  10.763  1.00  0.00     0.310 C 
HETATM   16  C   UNL     1     -42.606 -44.996  10.469  1.00  0.00     0.310 C 
ENDBRANCH   8  14
ENDBRANCH   7   8
ENDBRANCH   1   7
BRANCH   4  17
HETATM   17  C   UNL     1     -41.696 -52.391  12.274  1.00  0.00     0.168 A 
HETATM   18  N   UNL     1     -40.973 -53.236  11.572  1.00  0.00    -0.279 N 
HETATM   19  N   UNL     1     -40.642 -54.367  12.298  1.00  0.00    -0.303 N 
ATOM     20  HN  UNL     1     -40.689 -53.076  10.605  1.00  0.00     0.189 HD
HETATM   21  C   UNL     1     -41.166 -54.338  13.504  1.00  0.00     0.160 A 
ATOM     22  HN  UNL     1     -40.063 -55.127  11.942  1.00  0.00     0.186 HD
HETATM   23  S   UNL     1     -42.131 -52.965  13.825  1.00  0.00    -0.046 SA
ENDBRANCH   4  17
TORSDOF 4
ENDMDL
MODEL 6
REMARK VINA RESULT:      -5.2      2.129      2.601
REMARK  4 active torsions:
REMARK  status: ('A' for Active; 'I' for Inactive)
REMARK    1  A    between atoms: N_2  and  C_4 
REMARK    2  A    between atoms: C_4  and  C_5 
REMARK    3  A    between atoms: C_5  and  N_6 
REMARK       I    between atoms: N_6  and  C_7 
REMARK       I    between atoms: C_7  and  N_9 
REMARK    4  A    between atoms: N_9  and  C_10 
ROOT
HETATM    1  N   UNL     1     -43.377 -49.989  13.420  1.00  0.00    -0.340 N 
HETATM    2  C   UNL     1     -42.800 -49.201  12.443  1.00  0.00     0.322 C 
HETATM    3  O   UNL     1     -41.587 -49.155  12.297  1.00  0.00    -0.247 OA
HETATM    4  N   UNL     1     -43.728 -48.500  11.717  1.00  0.00    -0.288 N 
HETATM    5  H   UNL     1     -44.336 -50.260  13.277  1.00  0.00     0.164 HD
HETATM    6  H   UNL     1     -44.640 -48.350  12.116  1.00  0.00     0.172 HD
ENDROOT
BRANCH   1   7
HETATM    7  C   UNL     1     -42.492 -50.895  14.135  1.00  0.00     0.166 C 
BRANCH   7   8
HETATM    8  C   UNL     1     -42.567 -52.427  13.809  1.00  0.00     0.174 C 
HETATM    9  C   UNL     1     -42.843 -53.119  15.193  1.00  0.00     0.043 C 
HETATM   10  C   UNL     1     -43.174 -54.604  15.083  1.00  0.00     0.003 C 
HETATM   11  C   UNL     1     -44.424 -54.802  14.238  1.00  0.00     0.000 C 
HETATM   12  C   UNL     1     -44.273 -54.161  12.863  1.00  0.00     0.003 C 
HETATM   13  C   UNL     1     -43.839 -52.692  12.940  1.00  0.00     0.043 C 
BRANCH   8  14
HETATM   14  N   UNL     1     -41.329 -53.009  13.186  1.00  0.00     0.091 N 
HETATM   15  C   UNL     1     -41.013 -52.584  11.824  1.00  0.00     0.310 C 
HETATM   16  C   UNL     1     -40.111 -52.868  13.999  1.00  0.00     0.310 C 
ENDBRANCH   8  14
ENDBRANCH   7   8
ENDBRANCH   1   7
BRANCH   4  17
HETATM   17  C   UNL     1     -43.426 -47.664  10.666  1.00  0.00     0.168 A 
HETATM   18  N   UNL     1     -42.287 -47.013  10.573  1.00  0.00    -0.279 N 
HETATM   19  N   UNL     1     -42.203 -46.274   9.406  1.00  0.00    -0.303 N 
ATOM     20  HN  UNL     1     -41.551 -47.050  11.279  1.00  0.00     0.189 HD
HETATM   21  C   UNL     1     -43.303 -46.371   8.692  1.00  0.00     0.160 A 
ATOM     22  HN  UNL     1     -41.389 -45.722   9.135  1.00  0.00     0.186 HD
HETATM   23  S   UNL     1     -44.529 -47.325   9.403  1.00  0.00    -0.046 SA
ENDBRANCH   4  17
TORSDOF 4
ENDMDL
MODEL 7
REMARK VINA RESULT:      -5.2      3.254      6.823
REMARK  4 active torsions:
REMARK  status: ('A' for Active; 'I' for Inactive)
REMARK    1  A    between atoms: N_2  and  C_4 
REMARK    2  A    between atoms: C_4  and  C_5 
REMARK    3  A    between atoms: C_5  and  N_6 
REMARK       I    between atoms: N_6  and  C_7 
REMARK       I    between atoms: C_7  and  N_9 
REMARK    4  A    between atoms: N_9  and  C_10 
ROOT
HETATM    1  N   UNL     1     -41.927 -51.178  11.899  1.00  0.00    -0.340 N 
HETATM    2  C   UNL     1     -42.533 -52.233  12.554  1.00  0.00     0.322 C 
HETATM    3  O   UNL     1     -41.875 -53.146  13.034  1.00  0.00    -0.247 OA
HETATM    4  N   UNL     1     -43.900 -52.129  12.569  1.00  0.00    -0.288 N 
HETATM    5  H   UNL     1     -42.450 -50.321  11.841  1.00  0.00     0.164 HD
HETATM    6  H   UNL     1     -44.346 -51.541  11.883  1.00  0.00     0.172 HD
ENDROOT
BRANCH   1   7
HETATM    7  C   UNL     1     -40.476 -51.112  11.971  1.00  0.00     0.166 C 
BRANCH   7   8
HETATM    8  C   UNL     1     -39.813 -49.804  12.526  1.00  0.00     0.174 C 
HETATM    9  C   UNL     1     -40.263 -48.671  11.534  1.00  0.00     0.043 C 
HETATM   10  C   UNL     1     -39.911 -47.264  12.006  1.00  0.00     0.003 C 
HETATM   11  C   UNL     1     -40.589 -46.973  13.337  1.00  0.00     0.000 C 
HETATM   12  C   UNL     1     -40.228 -48.019  14.386  1.00  0.00     0.003 C 
HETATM   13  C   UNL     1     -40.474 -49.452  13.899  1.00  0.00     0.043 C 
BRANCH   8  14
HETATM   14  N   UNL     1     -38.313 -49.837  12.617  1.00  0.00     0.091 N 
HETATM   15  C   UNL     1     -37.730 -50.771  13.578  1.00  0.00     0.310 C 
HETATM   16  C   UNL     1     -37.627 -50.024  11.329  1.00  0.00     0.310 C 
ENDBRANCH   8  14
ENDBRANCH   7   8
ENDBRANCH   1   7
BRANCH   4  17
HETATM   17  C   UNL     1     -44.744 -53.027  13.180  1.00  0.00     0.168 A 
HETATM   18  N   UNL     1     -44.725 -54.317  12.922  1.00  0.00    -0.279 N 
HETATM   19  N   UNL     1     -45.637 -55.016  13.694  1.00  0.00    -0.303 N 
ATOM     20  HN  UNL     1     -44.109 -54.751  12.234  1.00  0.00     0.189 HD
HETATM   21  C   UNL     1     -46.330 -54.212  14.470  1.00  0.00     0.160 A 
ATOM     22  HN  UNL     1     -45.756 -56.028  13.664  1.00  0.00     0.186 HD
HETATM   23  S   UNL     1     -45.959 -52.554  14.287  1.00  0.00    -0.046 SA
ENDBRANCH   4  17
TORSDOF 4
ENDMDL
MODEL 8
REMARK VINA RESULT:      -5.1      4.379      5.549
REMARK  4 active torsions:
REMARK  status: ('A' for Active; 'I' for Inactive)
REMARK    1  A    between atoms: N_2  and  C_4 
REMARK    2  A    between atoms: C_4  and  C_5 
REMARK    3  A    between atoms: C_5  and  N_6 
REMARK       I    between atoms: N_6  and  C_7 
REMARK       I    between atoms: C_7  and  N_9 
REMARK    4  A    between atoms: N_9  and  C_10 
ROOT
HETATM    1  N   UNL     1     -40.894 -49.025  10.599  1.00  0.00    -0.340 N 
HETATM    2  C   UNL     1     -42.138 -48.426  10.626  1.00  0.00     0.322 C 
HETATM    3  O   UNL     1     -42.933 -48.649  11.528  1.00  0.00    -0.247 OA
HETATM    4  N   UNL     1     -42.352 -47.608   9.546  1.00  0.00    -0.288 N 
HETATM    5  H   UNL     1     -40.178 -48.562  10.065  1.00  0.00     0.164 HD
HETATM    6  H   UNL     1     -41.794 -47.746   8.718  1.00  0.00     0.172 HD
ENDROOT
BRANCH   1   7
HETATM    7  C   UNL     1     -40.508 -49.780  11.781  1.00  0.00     0.166 C 
BRANCH   7   8
HETATM    8  C   UNL     1     -39.550 -49.105  12.822  1.00  0.00     0.174 C 
HETATM    9  C   UNL     1     -39.556 -47.579  12.444  1.00  0.00     0.043 C 
HETATM   10  C   UNL     1     -38.858 -46.690  13.468  1.00  0.00     0.003 C 
HETATM   11  C   UNL     1     -39.545 -46.807  14.820  1.00  0.00     0.000 C 
HETATM   12  C   UNL     1     -39.604 -48.257  15.290  1.00  0.00     0.003 C 
HETATM   13  C   UNL     1     -40.207 -49.195  14.238  1.00  0.00     0.043 C 
BRANCH   8  14
HETATM   14  N   UNL     1     -38.140 -49.624  12.824  1.00  0.00     0.091 N 
HETATM   15  C   UNL     1     -37.887 -50.848  13.581  1.00  0.00     0.310 C 
HETATM   16  C   UNL     1     -37.547 -49.789  11.487  1.00  0.00     0.310 C 
ENDBRANCH   8  14
ENDBRANCH   7   8
ENDBRANCH   1   7
BRANCH   4  17
HETATM   17  C   UNL     1     -43.494 -46.869   9.341  1.00  0.00     0.168 A 
HETATM   18  N   UNL     1     -43.555 -45.572   9.557  1.00  0.00    -0.279 N 
HETATM   19  N   UNL     1     -44.796 -45.049   9.237  1.00  0.00    -0.303 N 
ATOM     20  HN  UNL     1     -42.779 -45.018   9.918  1.00  0.00     0.189 HD
HETATM   21  C   UNL     1     -45.626 -45.986   8.831  1.00  0.00     0.160 A 
ATOM     22  HN  UNL     1     -45.037 -44.061   9.306  1.00  0.00     0.186 HD
HETATM   23  S   UNL     1     -44.977 -47.567   8.853  1.00  0.00    -0.046 SA
ENDBRANCH   4  17
TORSDOF 4
ENDMDL
MODEL 9
REMARK VINA RESULT:      -5.0      3.789      6.826
REMARK  4 active torsions:
REMARK  status: ('A' for Active; 'I' for Inactive)
REMARK    1  A    between atoms: N_2  and  C_4 
REMARK    2  A    between atoms: C_4  and  C_5 
REMARK    3  A    between atoms: C_5  and  N_6 
REMARK       I    between atoms: N_6  and  C_7 
REMARK       I    between atoms: C_7  and  N_9 
REMARK    4  A    between atoms: N_9  and  C_10 
ROOT
HETATM    1  N   UNL     1     -40.879 -51.215  11.589  1.00  0.00    -0.340 N 
HETATM    2  C   UNL     1     -40.086 -51.894  12.494  1.00  0.00     0.322 C 
HETATM    3  O   UNL     1     -39.007 -51.447  12.855  1.00  0.00    -0.247 OA
HETATM    4  N   UNL     1     -40.639 -53.085  12.888  1.00  0.00    -0.288 N 
HETATM    5  H   UNL     1     -41.862 -51.430  11.595  1.00  0.00     0.164 HD
HETATM    6  H   UNL     1     -41.341 -53.509  12.302  1.00  0.00     0.172 HD
ENDROOT
BRANCH   1   7
HETATM    7  C   UNL     1     -40.460 -49.868  11.236  1.00  0.00     0.166 C 
BRANCH   7   8
HETATM    8  C   UNL     1     -41.077 -48.660  12.023  1.00  0.00     0.174 C 
HETATM    9  C   UNL     1     -42.321 -49.262  12.772  1.00  0.00     0.043 C 
HETATM   10  C   UNL     1     -42.952 -48.308  13.781  1.00  0.00     0.003 C 
HETATM   11  C   UNL     1     -41.938 -47.932  14.851  1.00  0.00     0.000 C 
HETATM   12  C   UNL     1     -40.675 -47.337  14.237  1.00  0.00     0.003 C 
HETATM   13  C   UNL     1     -40.075 -48.229  13.143  1.00  0.00     0.043 C 
BRANCH   8  14
HETATM   14  N   UNL     1     -41.506 -47.497  11.174  1.00  0.00     0.091 N 
HETATM   15  C   UNL     1     -40.467 -46.549  10.778  1.00  0.00     0.310 C 
HETATM   16  C   UNL     1     -42.265 -47.866   9.969  1.00  0.00     0.310 C 
ENDBRANCH   8  14
ENDBRANCH   7   8
ENDBRANCH   1   7
BRANCH   4  17
HETATM   17  C   UNL     1     -40.073 -53.943  13.802  1.00  0.00     0.168 A 
HETATM   18  N   UNL     1     -38.906 -54.521  13.615  1.00  0.00    -0.279 N 
HETATM   19  N   UNL     1     -38.532 -55.302  14.694  1.00  0.00    -0.303 N 
ATOM     20  HN  UNL     1     -38.342 -54.406  12.772  1.00  0.00     0.189 HD
HETATM   21  C   UNL     1     -39.457 -55.308  15.630  1.00  0.00     0.160 A 
ATOM     22  HN  UNL     1     -37.650 -55.810  14.756  1.00  0.00     0.186 HD
HETATM   23  S   UNL     1     -40.858 -54.407  15.249  1.00  0.00    -0.046 SA
ENDBRANCH   4  17
TORSDOF 4
ENDMDL
