MODEL 1
REMARK VINA RESULT:      -6.2      0.000      0.000
REMARK  5 active torsions:
REMARK  status: ('A' for Active; 'I' for Inactive)
REMARK    1  A    between atoms: O_2  and  C_3 
REMARK    2  A    between atoms: C_9  and  N_10 
REMARK       I    between atoms: N_10  and  C_11 
REMARK       I    between atoms: C_11  and  N_13 
REMARK    3  A    between atoms: N_13  and  C_14 
REMARK    4  A    between atoms: C_14  and  C_16 
REMARK    5  A    between atoms: C_16  and  N_17 
ROOT
HETATM    1  N   UNL     1     -42.920 -52.606  12.030  1.00  0.00    -0.305 N 
HETATM    2  C   UNL     1     -42.529 -51.329  12.363  1.00  0.00     0.321 C 
HETATM    3  O   UNL     1     -42.886 -50.724  13.365  1.00  0.00    -0.247 OA
HETATM    4  N   UNL     1     -41.643 -50.782  11.457  1.00  0.00    -0.337 N 
HETATM    5  H   UNL     1     -43.019 -52.811  11.042  1.00  0.00     0.171 HD
HETATM    6  H   UNL     1     -41.173 -51.413  10.828  1.00  0.00     0.164 HD
ENDROOT
BRANCH   1   7
HETATM    7  C   UNL     1     -43.647 -53.454  12.907  1.00  0.00     0.087 A 
HETATM    8  C   UNL     1     -45.044 -53.522  12.850  1.00  0.00     0.169 A 
HETATM    9  N   UNL     1     -45.804 -54.284  13.675  1.00  0.00    -0.345 N 
HETATM   10  C   UNL     1     -45.149 -55.018  14.600  1.00  0.00     0.090 A 
ATOM     11  HN  UNL     1     -46.821 -54.302  13.600  1.00  0.00     0.167 HD
HETATM   12  C   UNL     1     -43.775 -55.047  14.722  1.00  0.00     0.019 A 
HETATM   13  C   UNL     1     -43.016 -54.261  13.858  1.00  0.00     0.035 A 
BRANCH   8  14
HETATM   14  O   UNL     1     -45.678 -52.755  11.885  1.00  0.00    -0.339 OA
HETATM   15  C   UNL     1     -46.510 -51.752  12.462  1.00  0.00     0.211 C 
ENDBRANCH   8  14
ENDBRANCH   1   7
BRANCH   4  16
HETATM   16  C   UNL     1     -40.967 -49.529  11.802  1.00  0.00     0.110 C 
HETATM   17  C   UNL     1     -39.445 -49.678  11.659  1.00  0.00     0.034 C 
BRANCH  16  18
HETATM   18  C   UNL     1     -41.428 -48.313  10.947  1.00  0.00     0.297 C 
BRANCH  18  19
HETATM   19  N   UNL     1     -42.647 -47.596  11.376  1.00  0.00     0.094 N 
HETATM   20  C   UNL     1     -43.619 -47.497  10.255  1.00  0.00     0.298 C 
HETATM   21  C   UNL     1     -43.234 -46.480   9.159  1.00  0.00     0.198 C 
HETATM   22  O   UNL     1     -42.971 -45.181   9.703  1.00  0.00    -0.388 OA
HETATM   23  C   UNL     1     -41.970 -45.244  10.726  1.00  0.00     0.198 C 
HETATM   24  C   UNL     1     -42.385 -46.214  11.845  1.00  0.00     0.298 C 
ENDBRANCH  18  19
ENDBRANCH  16  18
ENDBRANCH   4  16
TORSDOF 5
ENDMDL
MODEL 2
REMARK VINA RESULT:      -5.8      1.389      2.182
REMARK  5 active torsions:
REMARK  status: ('A' for Active; 'I' for Inactive)
REMARK    1  A    between atoms: O_2  and  C_3 
REMARK    2  A    between atoms: C_9  and  N_10 
REMARK       I    between atoms: N_10  and  C_11 
REMARK       I    between atoms: C_11  and  N_13 
REMARK    3  A    between atoms: N_13  and  C_14 
REMARK    4  A    between atoms: C_14  and  C_16 
REMARK    5  A    between atoms: C_16  and  N_17 
ROOT
HETATM    1  N   UNL     1     -42.266 -52.562  11.832  1.00  0.00    -0.305 N 
HETATM    2  C   UNL     1     -41.843 -51.295  12.165  1.00  0.00     0.321 C 
HETATM    3  O   UNL     1     -42.276 -50.633  13.099  1.00  0.00    -0.247 OA
HETATM    4  N   UNL     1     -40.833 -50.831  11.348  1.00  0.00    -0.337 N 
HETATM    5  H   UNL     1     -42.266 -52.801  10.847  1.00  0.00     0.171 HD
HETATM    6  H   UNL     1     -40.332 -51.511  10.797  1.00  0.00     0.164 HD
ENDROOT
BRANCH   1   7
HETATM    7  C   UNL     1     -43.133 -53.336  12.650  1.00  0.00     0.087 A 
HETATM    8  C   UNL     1     -42.623 -54.179  13.644  1.00  0.00     0.169 A 
HETATM    9  N   UNL     1     -43.387 -54.968  14.439  1.00  0.00    -0.345 N 
HETATM   10  C   UNL     1     -44.722 -54.918  14.243  1.00  0.00     0.090 A 
ATOM     11  HN  UNL     1     -42.973 -55.571  15.150  1.00  0.00     0.167 HD
HETATM   12  C   UNL     1     -45.329 -54.100  13.313  1.00  0.00     0.019 A 
HETATM   13  C   UNL     1     -44.523 -53.293  12.513  1.00  0.00     0.035 A 
BRANCH   8  14
HETATM   14  O   UNL     1     -41.247 -54.200  13.814  1.00  0.00    -0.339 OA
HETATM   15  C   UNL     1     -40.855 -53.626  15.059  1.00  0.00     0.211 C 
ENDBRANCH   8  14
ENDBRANCH   1   7
BRANCH   4  16
HETATM   16  C   UNL     1     -40.130 -49.603  11.724  1.00  0.00     0.110 C 
HETATM   17  C   UNL     1     -38.625 -49.732  11.444  1.00  0.00     0.034 C 
BRANCH  16  18
HETATM   18  C   UNL     1     -40.661 -48.331  11.002  1.00  0.00     0.297 C 
BRANCH  18  19
HETATM   19  N   UNL     1     -41.765 -47.588  11.644  1.00  0.00     0.094 N 
HETATM   20  C   UNL     1     -42.979 -47.608  10.786  1.00  0.00     0.298 C 
HETATM   21  C   UNL     1     -42.901 -46.698   9.542  1.00  0.00     0.198 C 
HETATM   22  O   UNL     1     -42.560 -45.350   9.885  1.00  0.00    -0.388 OA
HETATM   23  C   UNL     1     -41.342 -45.304  10.638  1.00  0.00     0.198 C 
HETATM   24  C   UNL     1     -41.445 -46.165  11.908  1.00  0.00     0.298 C 
ENDBRANCH  18  19
ENDBRANCH  16  18
ENDBRANCH   4  16
TORSDOF 5
ENDMDL
MODEL 3
REMARK VINA RESULT:      -5.8      1.683      2.515
REMARK  5 active torsions:
REMARK  status: ('A' for Active; 'I' for Inactive)
REMARK    1  A    between atoms: O_2  and  C_3 
REMARK    2  A    between atoms: C_9  and  N_10 
REMARK       I    between atoms: N_10  and  C_11 
REMARK       I    between atoms: C_11  and  N_13 
REMARK    3  A    between atoms: N_13  and  C_14 
REMARK    4  A    between atoms: C_14  and  C_16 
REMARK    5  A    between atoms: C_16  and  N_17 
ROOT
HETATM    1  N   UNL     1     -44.813 -50.714  12.732  1.00  0.00    -0.305 N 
HETATM    2  C   UNL     1     -43.603 -50.200  13.138  1.00  0.00     0.321 C 
HETATM    3  O   UNL     1     -43.099 -50.377  14.240  1.00  0.00    -0.247 OA
HETATM    4  N   UNL     1     -42.966 -49.472  12.154  1.00  0.00    -0.337 N 
HETATM    5  H   UNL     1     -45.359 -50.147  12.092  1.00  0.00     0.171 HD
HETATM    6  H   UNL     1     -43.280 -49.601  11.205  1.00  0.00     0.164 HD
ENDROOT
BRANCH   1   7
HETATM    7  C   UNL     1     -45.547 -51.671  13.482  1.00  0.00     0.087 A 
HETATM    8  C   UNL     1     -45.431 -53.040  13.213  1.00  0.00     0.169 A 
HETATM    9  N   UNL     1     -46.123 -54.005  13.866  1.00  0.00    -0.345 N 
HETATM   10  C   UNL     1     -46.969 -53.598  14.837  1.00  0.00     0.090 A 
ATOM     11  HN  UNL     1     -46.010 -54.993  13.636  1.00  0.00     0.167 HD
HETATM   12  C   UNL     1     -47.135 -52.278  15.202  1.00  0.00     0.019 A 
HETATM   13  C   UNL     1     -46.408 -51.305  14.520  1.00  0.00     0.035 A 
BRANCH   8  14
HETATM   14  O   UNL     1     -44.551 -53.418  12.211  1.00  0.00    -0.339 OA
HETATM   15  C   UNL     1     -43.321 -53.908  12.739  1.00  0.00     0.211 C 
ENDBRANCH   8  14
ENDBRANCH   1   7
BRANCH   4  16
HETATM   16  C   UNL     1     -41.576 -49.065  12.366  1.00  0.00     0.110 C 
HETATM   17  C   UNL     1     -40.635 -49.846  11.436  1.00  0.00     0.034 C 
BRANCH  16  18
HETATM   18  C   UNL     1     -41.329 -47.543  12.154  1.00  0.00     0.297 C 
BRANCH  18  19
HETATM   19  N   UNL     1     -41.037 -47.080  10.781  1.00  0.00     0.094 N 
HETATM   20  C   UNL     1     -39.939 -46.077  10.789  1.00  0.00     0.298 C 
HETATM   21  C   UNL     1     -40.343 -44.687  11.325  1.00  0.00     0.198 C 
HETATM   22  O   UNL     1     -41.488 -44.162  10.642  1.00  0.00    -0.388 OA
HETATM   23  C   UNL     1     -42.587 -45.080  10.701  1.00  0.00     0.198 C 
HETATM   24  C   UNL     1     -42.197 -46.446  10.112  1.00  0.00     0.298 C 
ENDBRANCH  18  19
ENDBRANCH  16  18
ENDBRANCH   4  16
TORSDOF 5
ENDMDL
MODEL 4
REMARK VINA RESULT:      -5.7      2.134      7.758
REMARK  5 active torsions:
REMARK  status: ('A' for Active; 'I' for Inactive)
REMARK    1  A    between atoms: O_2  and  C_3 
REMARK    2  A    between atoms: C_9  and  N_10 
REMARK       I    between atoms: N_10  and  C_11 
REMARK       I    between atoms: C_11  and  N_13 
REMARK    3  A    between atoms: N_13  and  C_14 
REMARK    4  A    between atoms: C_14  and  C_16 
REMARK    5  A    between atoms: C_16  and  N_17 
ROOT
HETATM    1  N   UNL     1     -42.306 -49.385  11.431  1.00  0.00    -0.305 N 
HETATM    2  C   UNL     1     -43.030 -49.594  12.582  1.00  0.00     0.321 C 
HETATM    3  O   UNL     1     -43.119 -48.801  13.510  1.00  0.00    -0.247 OA
HETATM    4  N   UNL     1     -43.698 -50.802  12.587  1.00  0.00    -0.337 N 
HETATM    5  H   UNL     1     -41.877 -50.199  11.005  1.00  0.00     0.171 HD
HETATM    6  H   UNL     1     -43.820 -51.269  11.703  1.00  0.00     0.164 HD
ENDROOT
BRANCH   1   7
HETATM    7  C   UNL     1     -41.716 -48.137  11.096  1.00  0.00     0.087 A 
HETATM    8  C   UNL     1     -42.346 -47.258  10.206  1.00  0.00     0.169 A 
HETATM    9  N   UNL     1     -41.828 -46.067   9.817  1.00  0.00    -0.345 N 
HETATM   10  C   UNL     1     -40.629 -45.726  10.336  1.00  0.00     0.090 A 
ATOM     11  HN  UNL     1     -42.321 -45.458   9.164  1.00  0.00     0.167 HD
HETATM   12  C   UNL     1     -39.939 -46.503  11.242  1.00  0.00     0.019 A 
HETATM   13  C   UNL     1     -40.495 -47.720  11.632  1.00  0.00     0.035 A 
BRANCH   8  14
HETATM   14  O   UNL     1     -43.577 -47.644   9.697  1.00  0.00    -0.339 OA
HETATM   15  C   UNL     1     -43.588 -47.645   8.272  1.00  0.00     0.211 C 
ENDBRANCH   8  14
ENDBRANCH   1   7
BRANCH   4  16
HETATM   16  C   UNL     1     -44.687 -51.055  13.638  1.00  0.00     0.110 C 
HETATM   17  C   UNL     1     -46.023 -51.503  13.027  1.00  0.00     0.034 C 
BRANCH  16  18
HETATM   18  C   UNL     1     -44.236 -52.121  14.678  1.00  0.00     0.297 C 
BRANCH  18  19
HETATM   19  N   UNL     1     -45.004 -53.382  14.745  1.00  0.00     0.094 N 
HETATM   20  C   UNL     1     -45.391 -53.686  16.149  1.00  0.00     0.298 C 
HETATM   21  C   UNL     1     -44.233 -54.177  17.042  1.00  0.00     0.198 C 
HETATM   22  O   UNL     1     -43.548 -55.295  16.465  1.00  0.00    -0.388 OA
HETATM   23  C   UNL     1     -43.089 -54.989  15.142  1.00  0.00     0.198 C 
HETATM   24  C   UNL     1     -44.256 -54.557  14.239  1.00  0.00     0.298 C 
ENDBRANCH  18  19
ENDBRANCH  16  18
ENDBRANCH   4  16
TORSDOF 5
ENDMDL
MODEL 5
REMARK VINA RESULT:      -5.4      3.313      4.851
REMARK  5 active torsions:
REMARK  status: ('A' for Active; 'I' for Inactive)
REMARK    1  A    between atoms: O_2  and  C_3 
REMARK    2  A    between atoms: C_9  and  N_10 
REMARK       I    between atoms: N_10  and  C_11 
REMARK       I    between atoms: C_11  and  N_13 
REMARK    3  A    between atoms: N_13  and  C_14 
REMARK    4  A    between atoms: C_14  and  C_16 
REMARK    5  A    between atoms: C_16  and  N_17 
ROOT
HETATM    1  N   UNL     1     -40.641 -50.445  11.197  1.00  0.00    -0.305 N 
HETATM    2  C   UNL     1     -41.611 -49.505  11.458  1.00  0.00     0.321 C 
HETATM    3  O   UNL     1     -42.341 -49.504  12.441  1.00  0.00    -0.247 OA
HETATM    4  N   UNL     1     -41.672 -48.511  10.503  1.00  0.00    -0.337 N 
HETATM    5  H   UNL     1     -40.474 -50.673  10.223  1.00  0.00     0.171 HD
HETATM    6  H   UNL     1     -40.879 -48.407   9.890  1.00  0.00     0.164 HD
ENDROOT
BRANCH   1   7
HETATM    7  C   UNL     1     -40.239 -51.434  12.134  1.00  0.00     0.087 A 
HETATM    8  C   UNL     1     -39.113 -51.243  12.944  1.00  0.00     0.169 A 
HETATM    9  N   UNL     1     -38.654 -52.155  13.836  1.00  0.00    -0.345 N 
HETATM   10  C   UNL     1     -39.344 -53.311  13.935  1.00  0.00     0.090 A 
ATOM     11  HN  UNL     1     -37.826 -51.976  14.406  1.00  0.00     0.167 HD
HETATM   12  C   UNL     1     -40.482 -53.588  13.207  1.00  0.00     0.019 A 
HETATM   13  C   UNL     1     -40.938 -52.632  12.302  1.00  0.00     0.035 A 
BRANCH   8  14
HETATM   14  O   UNL     1     -38.433 -50.042  12.814  1.00  0.00    -0.339 OA
HETATM   15  C   UNL     1     -37.385 -50.124  11.851  1.00  0.00     0.211 C 
ENDBRANCH   8  14
ENDBRANCH   1   7
BRANCH   4  16
HETATM   16  C   UNL     1     -42.493 -47.328  10.768  1.00  0.00     0.110 C 
HETATM   17  C   UNL     1     -41.865 -46.079  10.131  1.00  0.00     0.034 C 
BRANCH  16  18
HETATM   18  C   UNL     1     -43.960 -47.457  10.264  1.00  0.00     0.297 C 
BRANCH  18  19
HETATM   19  N   UNL     1     -44.262 -46.968   8.903  1.00  0.00     0.094 N 
HETATM   20  C   UNL     1     -45.405 -46.017   8.929  1.00  0.00     0.298 C 
HETATM   21  C   UNL     1     -46.783 -46.675   9.153  1.00  0.00     0.198 C 
HETATM   22  O   UNL     1     -47.035 -47.724   8.211  1.00  0.00    -0.388 OA
HETATM   23  C   UNL     1     -45.984 -48.699   8.235  1.00  0.00     0.198 C 
HETATM   24  C   UNL     1     -44.620 -48.048   7.953  1.00  0.00     0.298 C 
ENDBRANCH  18  19
ENDBRANCH  16  18
ENDBRANCH   4  16
TORSDOF 5
ENDMDL
MODEL 6
REMARK VINA RESULT:      -5.1      2.660      8.074
REMARK  5 active torsions:
REMARK  status: ('A' for Active; 'I' for Inactive)
REMARK    1  A    between atoms: O_2  and  C_3 
REMARK    2  A    between atoms: C_9  and  N_10 
REMARK       I    between atoms: N_10  and  C_11 
REMARK       I    between atoms: C_11  and  N_13 
REMARK    3  A    between atoms: N_13  and  C_14 
REMARK    4  A    between atoms: C_14  and  C_16 
REMARK    5  A    between atoms: C_16  and  N_17 
ROOT
HETATM    1  N   UNL     1     -41.095 -50.874  11.338  1.00  0.00    -0.305 N 
HETATM    2  C   UNL     1     -41.725 -51.415  12.435  1.00  0.00     0.321 C 
HETATM    3  O   UNL     1     -41.936 -50.823  13.486  1.00  0.00    -0.247 OA
HETATM    4  N   UNL     1     -42.141 -52.715  12.234  1.00  0.00    -0.337 N 
HETATM    5  H   UNL     1     -40.529 -51.503  10.779  1.00  0.00     0.171 HD
HETATM    6  H   UNL     1     -42.198 -53.042  11.282  1.00  0.00     0.164 HD
ENDROOT
BRANCH   1   7
HETATM    7  C   UNL     1     -40.774 -49.495  11.222  1.00  0.00     0.087 A 
HETATM    8  C   UNL     1     -39.524 -49.010  11.625  1.00  0.00     0.169 A 
HETATM    9  N   UNL     1     -39.161 -47.704  11.572  1.00  0.00    -0.345 N 
HETATM   10  C   UNL     1     -40.079 -46.836  11.094  1.00  0.00     0.090 A 
ATOM     11  HN  UNL     1     -38.239 -47.393  11.878  1.00  0.00     0.167 HD
HETATM   12  C   UNL     1     -41.327 -47.213  10.644  1.00  0.00     0.019 A 
HETATM   13  C   UNL     1     -41.674 -48.561  10.701  1.00  0.00     0.035 A 
BRANCH   8  14
HETATM   14  O   UNL     1     -38.610 -49.933  12.107  1.00  0.00    -0.339 OA
HETATM   15  C   UNL     1     -37.455 -50.024  11.277  1.00  0.00     0.211 C 
ENDBRANCH   8  14
ENDBRANCH   1   7
BRANCH   4  16
HETATM   16  C   UNL     1     -43.024 -53.334  13.224  1.00  0.00     0.110 C 
HETATM   17  C   UNL     1     -44.213 -54.021  12.536  1.00  0.00     0.034 C 
BRANCH  16  18
HETATM   18  C   UNL     1     -42.311 -54.375  14.136  1.00  0.00     0.297 C 
BRANCH  18  19
HETATM   19  N   UNL     1     -41.918 -53.943  15.493  1.00  0.00     0.094 N 
HETATM   20  C   UNL     1     -40.437 -53.889  15.618  1.00  0.00     0.298 C 
HETATM   21  C   UNL     1     -39.749 -55.267  15.703  1.00  0.00     0.198 C 
HETATM   22  O   UNL     1     -40.303 -56.079  16.744  1.00  0.00    -0.388 OA
HETATM   23  C   UNL     1     -41.722 -56.216  16.589  1.00  0.00     0.198 C 
HETATM   24  C   UNL     1     -42.410 -54.840  16.565  1.00  0.00     0.298 C 
ENDBRANCH  18  19
ENDBRANCH  16  18
ENDBRANCH   4  16
TORSDOF 5
ENDMDL
MODEL 7
REMARK VINA RESULT:      -5.1      3.114      4.171
REMARK  5 active torsions:
REMARK  status: ('A' for Active; 'I' for Inactive)
REMARK    1  A    between atoms: O_2  and  C_3 
REMARK    2  A    between atoms: C_9  and  N_10 
REMARK       I    between atoms: N_10  and  C_11 
REMARK       I    between atoms: C_11  and  N_13 
REMARK    3  A    between atoms: N_13  and  C_14 
REMARK    4  A    between atoms: C_14  and  C_16 
REMARK    5  A    between atoms: C_16  and  N_17 
ROOT
HETATM    1  N   UNL     1     -42.484 -50.044  12.286  1.00  0.00    -0.305 N 
HETATM    2  C   UNL     1     -42.028 -49.134  11.359  1.00  0.00     0.321 C 
HETATM    3  O   UNL     1     -40.880 -49.075  10.939  1.00  0.00    -0.247 OA
HETATM    4  N   UNL     1     -43.016 -48.286  10.904  1.00  0.00    -0.337 N 
HETATM    5  H   UNL     1     -43.208 -49.727  12.921  1.00  0.00     0.171 HD
HETATM    6  H   UNL     1     -43.973 -48.560  11.061  1.00  0.00     0.164 HD
ENDROOT
BRANCH   1   7
HETATM    7  C   UNL     1     -41.717 -51.153  12.735  1.00  0.00     0.087 A 
HETATM    8  C   UNL     1     -40.918 -51.058  13.880  1.00  0.00     0.169 A 
HETATM    9  N   UNL     1     -40.138 -52.063  14.349  1.00  0.00    -0.345 N 
HETATM   10  C   UNL     1     -40.151 -53.220  13.652  1.00  0.00     0.090 A 
ATOM     11  HN  UNL     1     -39.568 -51.951  15.188  1.00  0.00     0.167 HD
HETATM   12  C   UNL     1     -40.924 -53.428  12.529  1.00  0.00     0.019 A 
HETATM   13  C   UNL     1     -41.723 -52.382  12.071  1.00  0.00     0.035 A 
BRANCH   8  14
HETATM   14  O   UNL     1     -40.934 -49.855  14.568  1.00  0.00    -0.339 OA
HETATM   15  C   UNL     1     -39.683 -49.177  14.487  1.00  0.00     0.211 C 
ENDBRANCH   8  14
ENDBRANCH   1   7
BRANCH   4  16
HETATM   16  C   UNL     1     -42.731 -47.425   9.754  1.00  0.00     0.110 C 
HETATM   17  C   UNL     1     -43.865 -47.509   8.720  1.00  0.00     0.034 C 
BRANCH  16  18
HETATM   18  C   UNL     1     -42.512 -45.931  10.128  1.00  0.00     0.297 C 
BRANCH  18  19
HETATM   19  N   UNL     1     -41.885 -45.635  11.434  1.00  0.00     0.094 N 
HETATM   20  C   UNL     1     -42.360 -44.328  11.960  1.00  0.00     0.298 C 
HETATM   21  C   UNL     1     -41.776 -43.095  11.240  1.00  0.00     0.198 C 
HETATM   22  O   UNL     1     -40.344 -43.123  11.206  1.00  0.00    -0.388 OA
HETATM   23  C   UNL     1     -39.868 -44.341  10.619  1.00  0.00     0.198 C 
HETATM   24  C   UNL     1     -40.406 -45.567  11.377  1.00  0.00     0.298 C 
ENDBRANCH  18  19
ENDBRANCH  16  18
ENDBRANCH   4  16
TORSDOF 5
ENDMDL
MODEL 8
REMARK VINA RESULT:      -4.9      2.215      7.326
REMARK  5 active torsions:
REMARK  status: ('A' for Active; 'I' for Inactive)
REMARK    1  A    between atoms: O_2  and  C_3 
REMARK    2  A    between atoms: C_9  and  N_10 
REMARK       I    between atoms: N_10  and  C_11 
REMARK       I    between atoms: C_11  and  N_13 
REMARK    3  A    between atoms: N_13  and  C_14 
REMARK    4  A    between atoms: C_14  and  C_16 
REMARK    5  A    between atoms: C_16  and  N_17 
ROOT
HETATM    1  N   UNL     1     -41.488 -49.765  13.500  1.00  0.00    -0.305 N 
HETATM    2  C   UNL     1     -41.851 -51.029  13.096  1.00  0.00     0.321 C 
HETATM    3  O   UNL     1     -42.133 -51.346  11.948  1.00  0.00    -0.247 OA
HETATM    4  N   UNL     1     -41.840 -51.949  14.125  1.00  0.00    -0.337 N 
HETATM    5  H   UNL     1     -41.773 -49.482  14.431  1.00  0.00     0.171 HD
HETATM    6  H   UNL     1     -41.335 -51.704  14.962  1.00  0.00     0.164 HD
ENDROOT
BRANCH   1   7
HETATM    7  C   UNL     1     -41.214 -48.705  12.595  1.00  0.00     0.087 A 
HETATM    8  C   UNL     1     -39.908 -48.451  12.157  1.00  0.00     0.169 A 
HETATM    9  N   UNL     1     -39.569 -47.440  11.321  1.00  0.00    -0.345 N 
HETATM   10  C   UNL     1     -40.570 -46.641  10.893  1.00  0.00     0.090 A 
ATOM     11  HN  UNL     1     -38.603 -47.289  11.028  1.00  0.00     0.167 HD
HETATM   12  C   UNL     1     -41.893 -46.821  11.239  1.00  0.00     0.019 A 
HETATM   13  C   UNL     1     -42.218 -47.872  12.094  1.00  0.00     0.035 A 
BRANCH   8  14
HETATM   14  O   UNL     1     -38.909 -49.295  12.617  1.00  0.00    -0.339 OA
HETATM   15  C   UNL     1     -38.194 -49.908  11.548  1.00  0.00     0.211 C 
ENDBRANCH   8  14
ENDBRANCH   1   7
BRANCH   4  16
HETATM   16  C   UNL     1     -41.979 -53.370  13.800  1.00  0.00     0.110 C 
HETATM   17  C   UNL     1     -40.805 -54.175  14.379  1.00  0.00     0.034 C 
BRANCH  16  18
HETATM   18  C   UNL     1     -43.308 -54.002  14.305  1.00  0.00     0.297 C 
BRANCH  18  19
HETATM   19  N   UNL     1     -44.349 -54.305  13.301  1.00  0.00     0.094 N 
HETATM   20  C   UNL     1     -44.964 -53.053  12.788  1.00  0.00     0.298 C 
HETATM   21  C   UNL     1     -45.922 -52.356  13.778  1.00  0.00     0.198 C 
HETATM   22  O   UNL     1     -46.937 -53.246  14.257  1.00  0.00    -0.388 OA
HETATM   23  C   UNL     1     -46.358 -54.422  14.836  1.00  0.00     0.198 C 
HETATM   24  C   UNL     1     -45.450 -55.146  13.827  1.00  0.00     0.298 C 
ENDBRANCH  18  19
ENDBRANCH  16  18
ENDBRANCH   4  16
TORSDOF 5
ENDMDL
MODEL 9
REMARK VINA RESULT:      -4.8      1.899      6.746
REMARK  5 active torsions:
REMARK  status: ('A' for Active; 'I' for Inactive)
REMARK    1  A    between atoms: O_2  and  C_3 
REMARK    2  A    between atoms: C_9  and  N_10 
REMARK       I    between atoms: N_10  and  C_11 
REMARK       I    between atoms: C_11  and  N_13 
REMARK    3  A    between atoms: N_13  and  C_14 
REMARK    4  A    between atoms: C_14  and  C_16 
REMARK    5  A    between atoms: C_16  and  N_17 
ROOT
HETATM    1  N   UNL     1     -40.763 -50.099  10.931  1.00  0.00    -0.305 N 
HETATM    2  C   UNL     1     -41.011 -51.043  11.901  1.00  0.00     0.321 C 
HETATM    3  O   UNL     1     -40.984 -50.835  13.107  1.00  0.00    -0.247 OA
HETATM    4  N   UNL     1     -41.336 -52.280  11.382  1.00  0.00    -0.337 N 
HETATM    5  H   UNL     1     -40.313 -50.423  10.082  1.00  0.00     0.171 HD
HETATM    6  H   UNL     1     -41.620 -52.318  10.415  1.00  0.00     0.164 HD
ENDROOT
BRANCH   1   7
HETATM    7  C   UNL     1     -40.625 -48.713  11.208  1.00  0.00     0.087 A 
HETATM    8  C   UNL     1     -41.452 -47.769  10.587  1.00  0.00     0.169 A 
HETATM    9  N   UNL     1     -41.357 -46.430  10.779  1.00  0.00    -0.345 N 
HETATM   10  C   UNL     1     -40.399 -46.004  11.629  1.00  0.00     0.090 A 
ATOM     11  HN  UNL     1     -41.980 -45.776  10.303  1.00  0.00     0.167 HD
HETATM   12  C   UNL     1     -39.552 -46.850  12.314  1.00  0.00     0.019 A 
HETATM   13  C   UNL     1     -39.674 -48.222  12.106  1.00  0.00     0.035 A 
BRANCH   8  14
HETATM   14  O   UNL     1     -42.425 -48.247   9.723  1.00  0.00    -0.339 OA
HETATM   15  C   UNL     1     -43.570 -47.400   9.687  1.00  0.00     0.211 C 
ENDBRANCH   8  14
ENDBRANCH   1   7
BRANCH   4  16
HETATM   16  C   UNL     1     -41.848 -53.312  12.286  1.00  0.00     0.110 C 
HETATM   17  C   UNL     1     -40.699 -53.959  13.074  1.00  0.00     0.034 C 
BRANCH  16  18
HETATM   18  C   UNL     1     -42.909 -52.789  13.297  1.00  0.00     0.297 C 
BRANCH  18  19
HETATM   19  N   UNL     1     -44.283 -52.572  12.799  1.00  0.00     0.094 N 
HETATM   20  C   UNL     1     -44.832 -51.291  13.316  1.00  0.00     0.298 C 
HETATM   21  C   UNL     1     -45.224 -51.315  14.808  1.00  0.00     0.198 C 
HETATM   22  O   UNL     1     -46.118 -52.393  15.109  1.00  0.00    -0.388 OA
HETATM   23  C   UNL     1     -45.565 -53.650  14.698  1.00  0.00     0.198 C 
HETATM   24  C   UNL     1     -45.230 -53.641  13.197  1.00  0.00     0.298 C 
ENDBRANCH  18  19
ENDBRANCH  16  18
ENDBRANCH   4  16
TORSDOF 5
ENDMDL
