MODEL 1
REMARK VINA RESULT:      -5.8      0.000      0.000
REMARK  3 active torsions:
REMARK  status: ('A' for Active; 'I' for Inactive)
REMARK    1  A    between atoms: C_2  and  N_3 
REMARK    2  A    between atoms: C_5  and  N_6 
REMARK       I    between atoms: N_6  and  C_7 
REMARK       I    between atoms: C_7  and  N_9 
REMARK    3  A    between atoms: N_9  and  C_10 
ROOT
HETATM    1  N   UNL     1     -42.306 -49.862  11.709  1.00  0.00    -0.308 N 
HETATM    2  C   UNL     1     -42.943 -50.141  12.901  1.00  0.00     0.321 C 
HETATM    3  O   UNL     1     -43.410 -49.308  13.669  1.00  0.00    -0.247 OA
HETATM    4  N   UNL     1     -42.974 -51.483  13.188  1.00  0.00    -0.338 N 
HETATM    5  H   UNL     1     -42.210 -50.625  11.056  1.00  0.00     0.170 HD
HETATM    6  H   UNL     1     -42.872 -52.129  12.421  1.00  0.00     0.164 HD
ENDROOT
BRANCH   1   7
HETATM    7  C   UNL     1     -41.965 -48.599  11.267  1.00  0.00     0.052 A 
HETATM    8  C   UNL     1     -42.762 -47.842  10.494  1.00  0.00     0.123 A 
HETATM    9  N   UNL     1     -42.387 -46.590  10.038  1.00  0.00    -0.323 N 
HETATM   10  C   UNL     1     -41.163 -46.021  10.365  1.00  0.00     0.247 A 
HETATM   11  C   UNL     1     -40.284 -46.845  11.241  1.00  0.00     0.077 A 
HETATM   12  O   UNL     1     -40.778 -44.915   9.996  1.00  0.00    -0.268 OA
HETATM   13  C   UNL     1     -40.683 -48.052  11.672  1.00  0.00     0.036 A 
BRANCH   9  14
HETATM   14  C   UNL     1     -43.331 -45.848   9.204  1.00  0.00     0.127 C 
HETATM   15  C   UNL     1     -44.622 -46.621   8.981  1.00  0.00     0.027 C 
ENDBRANCH   9  14
ENDBRANCH   1   7
BRANCH   4  16
HETATM   16  C   UNL     1     -43.638 -51.960  14.401  1.00  0.00     0.086 C 
HETATM   17  C   UNL     1     -42.975 -53.233  14.931  1.00  0.00     0.025 C 
HETATM   18  C   UNL     1     -43.199 -54.425  14.007  1.00  0.00     0.002 C 
HETATM   19  C   UNL     1     -44.684 -54.650  13.731  1.00  0.00     0.000 C 
HETATM   20  C   UNL     1     -45.392 -53.388  13.244  1.00  0.00     0.002 C 
HETATM   21  C   UNL     1     -45.135 -52.191  14.159  1.00  0.00     0.025 C 
ENDBRANCH   4  16
TORSDOF 3
ENDMDL
MODEL 2
REMARK VINA RESULT:      -5.7      1.731      2.298
REMARK  3 active torsions:
REMARK  status: ('A' for Active; 'I' for Inactive)
REMARK    1  A    between atoms: C_2  and  N_3 
REMARK    2  A    between atoms: C_5  and  N_6 
REMARK       I    between atoms: N_6  and  C_7 
REMARK       I    between atoms: C_7  and  N_9 
REMARK    3  A    between atoms: N_9  and  C_10 
ROOT
HETATM    1  N   UNL     1     -41.872 -49.443  11.276  1.00  0.00    -0.308 N 
HETATM    2  C   UNL     1     -42.265 -50.095  12.427  1.00  0.00     0.321 C 
HETATM    3  O   UNL     1     -43.017 -49.640  13.281  1.00  0.00    -0.247 OA
HETATM    4  N   UNL     1     -41.686 -51.333  12.564  1.00  0.00    -0.338 N 
HETATM    5  H   UNL     1     -41.479 -50.014  10.543  1.00  0.00     0.170 HD
HETATM    6  H   UNL     1     -41.344 -51.785  11.730  1.00  0.00     0.164 HD
ENDROOT
BRANCH   1   7
HETATM    7  C   UNL     1     -42.146 -48.123  10.979  1.00  0.00     0.052 A 
HETATM    8  C   UNL     1     -43.107 -47.738  10.122  1.00  0.00     0.123 A 
HETATM    9  N   UNL     1     -43.344 -46.409   9.815  1.00  0.00    -0.323 N 
HETATM   10  C   UNL     1     -42.613 -45.377  10.389  1.00  0.00     0.247 A 
HETATM   11  C   UNL     1     -41.561 -45.796  11.358  1.00  0.00     0.077 A 
HETATM   12  O   UNL     1     -42.780 -44.182  10.162  1.00  0.00    -0.268 OA
HETATM   13  C   UNL     1     -41.364 -47.094  11.637  1.00  0.00     0.036 A 
BRANCH   9  14
HETATM   14  C   UNL     1     -44.417 -46.099   8.872  1.00  0.00     0.127 C 
HETATM   15  C   UNL     1     -45.637 -46.981   9.089  1.00  0.00     0.027 C 
ENDBRANCH   9  14
ENDBRANCH   1   7
BRANCH   4  16
HETATM   16  C   UNL     1     -42.015 -52.175  13.713  1.00  0.00     0.086 C 
HETATM   17  C   UNL     1     -40.946 -52.065  14.803  1.00  0.00     0.025 C 
HETATM   18  C   UNL     1     -39.622 -52.690  14.374  1.00  0.00     0.002 C 
HETATM   19  C   UNL     1     -39.804 -54.137  13.923  1.00  0.00     0.000 C 
HETATM   20  C   UNL     1     -40.897 -54.293  12.867  1.00  0.00     0.002 C 
HETATM   21  C   UNL     1     -42.210 -53.637  13.293  1.00  0.00     0.025 C 
ENDBRANCH   4  16
TORSDOF 3
ENDMDL
MODEL 3
REMARK VINA RESULT:      -5.7      1.894      2.992
REMARK  3 active torsions:
REMARK  status: ('A' for Active; 'I' for Inactive)
REMARK    1  A    between atoms: C_2  and  N_3 
REMARK    2  A    between atoms: C_5  and  N_6 
REMARK       I    between atoms: N_6  and  C_7 
REMARK       I    between atoms: C_7  and  N_9 
REMARK    3  A    between atoms: N_9  and  C_10 
ROOT
HETATM    1  N   UNL     1     -41.963 -49.312  11.098  1.00  0.00    -0.308 N 
HETATM    2  C   UNL     1     -42.292 -49.904  12.301  1.00  0.00     0.321 C 
HETATM    3  O   UNL     1     -43.018 -49.414  13.159  1.00  0.00    -0.247 OA
HETATM    4  N   UNL     1     -41.681 -51.119  12.483  1.00  0.00    -0.338 N 
HETATM    5  H   UNL     1     -41.589 -49.916  10.383  1.00  0.00     0.170 HD
HETATM    6  H   UNL     1     -41.364 -51.612  11.663  1.00  0.00     0.164 HD
ENDROOT
BRANCH   1   7
HETATM    7  C   UNL     1     -42.278 -48.017  10.738  1.00  0.00     0.052 A 
HETATM    8  C   UNL     1     -41.462 -46.969  10.946  1.00  0.00     0.123 A 
HETATM    9  N   UNL     1     -41.811 -45.674  10.603  1.00  0.00    -0.323 N 
HETATM   10  C   UNL     1     -43.025 -45.371  10.001  1.00  0.00     0.247 A 
HETATM   11  C   UNL     1     -43.924 -46.532   9.746  1.00  0.00     0.077 A 
HETATM   12  O   UNL     1     -43.388 -44.245   9.670  1.00  0.00    -0.268 OA
HETATM   13  C   UNL     1     -43.550 -47.776  10.085  1.00  0.00     0.036 A 
BRANCH   9  14
HETATM   14  C   UNL     1     -40.849 -44.606  10.871  1.00  0.00     0.127 C 
HETATM   15  C   UNL     1     -39.554 -44.802  10.097  1.00  0.00     0.027 C 
ENDBRANCH   9  14
ENDBRANCH   1   7
BRANCH   4  16
HETATM   16  C   UNL     1     -41.943 -51.899  13.692  1.00  0.00     0.086 C 
HETATM   17  C   UNL     1     -40.778 -51.795  14.680  1.00  0.00     0.025 C 
HETATM   18  C   UNL     1     -39.525 -52.496  14.166  1.00  0.00     0.002 C 
HETATM   19  C   UNL     1     -39.806 -53.950  13.796  1.00  0.00     0.000 C 
HETATM   20  C   UNL     1     -40.994 -54.098  12.846  1.00  0.00     0.002 C 
HETATM   21  C   UNL     1     -42.235 -53.366  13.354  1.00  0.00     0.025 C 
ENDBRANCH   4  16
TORSDOF 3
ENDMDL
MODEL 4
REMARK VINA RESULT:      -5.6      2.151      7.506
REMARK  3 active torsions:
REMARK  status: ('A' for Active; 'I' for Inactive)
REMARK    1  A    between atoms: C_2  and  N_3 
REMARK    2  A    between atoms: C_5  and  N_6 
REMARK       I    between atoms: N_6  and  C_7 
REMARK       I    between atoms: C_7  and  N_9 
REMARK    3  A    between atoms: N_9  and  C_10 
ROOT
HETATM    1  N   UNL     1     -42.535 -51.541  12.479  1.00  0.00    -0.308 N 
HETATM    2  C   UNL     1     -42.905 -50.276  12.888  1.00  0.00     0.321 C 
HETATM    3  O   UNL     1     -43.372 -49.991  13.985  1.00  0.00    -0.247 OA
HETATM    4  N   UNL     1     -42.738 -49.328  11.908  1.00  0.00    -0.338 N 
HETATM    5  H   UNL     1     -41.928 -51.599  11.676  1.00  0.00     0.170 HD
HETATM    6  H   UNL     1     -42.084 -49.530  11.168  1.00  0.00     0.164 HD
ENDROOT
BRANCH   1   7
HETATM    7  C   UNL     1     -42.770 -52.704  13.185  1.00  0.00     0.052 A 
HETATM    8  C   UNL     1     -43.957 -53.335  13.202  1.00  0.00     0.123 A 
HETATM    9  N   UNL     1     -44.179 -54.484  13.941  1.00  0.00    -0.323 N 
HETATM   10  C   UNL     1     -43.180 -55.077  14.704  1.00  0.00     0.247 A 
HETATM   11  C   UNL     1     -41.855 -54.395  14.669  1.00  0.00     0.077 A 
HETATM   12  O   UNL     1     -43.315 -56.097  15.374  1.00  0.00    -0.268 OA
HETATM   13  C   UNL     1     -41.674 -53.287  13.935  1.00  0.00     0.036 A 
BRANCH   9  14
HETATM   14  C   UNL     1     -45.507 -55.094  13.889  1.00  0.00     0.127 C 
HETATM   15  C   UNL     1     -46.501 -54.364  14.779  1.00  0.00     0.027 C 
ENDBRANCH   9  14
ENDBRANCH   1   7
BRANCH   4  16
HETATM   16  C   UNL     1     -43.053 -47.927  12.182  1.00  0.00     0.086 C 
HETATM   17  C   UNL     1     -43.500 -47.203  10.909  1.00  0.00     0.025 C 
HETATM   18  C   UNL     1     -42.359 -47.039   9.911  1.00  0.00     0.002 C 
HETATM   19  C   UNL     1     -41.153 -46.349  10.544  1.00  0.00     0.000 C 
HETATM   20  C   UNL     1     -40.706 -47.017  11.843  1.00  0.00     0.002 C 
HETATM   21  C   UNL     1     -41.862 -47.205  12.824  1.00  0.00     0.025 C 
ENDBRANCH   4  16
TORSDOF 3
ENDMDL
MODEL 5
REMARK VINA RESULT:      -5.5      4.196      7.480
REMARK  3 active torsions:
REMARK  status: ('A' for Active; 'I' for Inactive)
REMARK    1  A    between atoms: C_2  and  N_3 
REMARK    2  A    between atoms: C_5  and  N_6 
REMARK       I    between atoms: N_6  and  C_7 
REMARK       I    between atoms: C_7  and  N_9 
REMARK    3  A    between atoms: N_9  and  C_10 
ROOT
HETATM    1  N   UNL     1     -41.529 -51.740  14.540  1.00  0.00    -0.308 N 
HETATM    2  C   UNL     1     -40.359 -51.676  13.810  1.00  0.00     0.321 C 
HETATM    3  O   UNL     1     -40.101 -52.351  12.820  1.00  0.00    -0.247 OA
HETATM    4  N   UNL     1     -39.452 -50.787  14.332  1.00  0.00    -0.338 N 
HETATM    5  H   UNL     1     -41.724 -50.963  15.153  1.00  0.00     0.170 HD
HETATM    6  H   UNL     1     -39.804 -50.053  14.927  1.00  0.00     0.164 HD
ENDROOT
BRANCH   1   7
HETATM    7  C   UNL     1     -42.528 -52.674  14.358  1.00  0.00     0.052 A 
HETATM    8  C   UNL     1     -43.708 -52.396  13.777  1.00  0.00     0.123 A 
HETATM    9  N   UNL     1     -44.709 -53.342  13.633  1.00  0.00    -0.323 N 
HETATM   10  C   UNL     1     -44.553 -54.654  14.063  1.00  0.00     0.247 A 
HETATM   11  C   UNL     1     -43.238 -54.974  14.687  1.00  0.00     0.077 A 
HETATM   12  O   UNL     1     -45.400 -55.537  13.957  1.00  0.00    -0.268 OA
HETATM   13  C   UNL     1     -42.288 -54.034  14.804  1.00  0.00     0.036 A 
BRANCH   9  14
HETATM   14  C   UNL     1     -45.954 -52.937  12.983  1.00  0.00     0.127 C 
HETATM   15  C   UNL     1     -46.430 -51.576  13.469  1.00  0.00     0.027 C 
ENDBRANCH   9  14
ENDBRANCH   1   7
BRANCH   4  16
HETATM   16  C   UNL     1     -38.168 -50.572  13.666  1.00  0.00     0.086 C 
HETATM   17  C   UNL     1     -37.049 -50.343  14.684  1.00  0.00     0.025 C 
HETATM   18  C   UNL     1     -37.203 -49.016  15.420  1.00  0.00     0.002 C 
HETATM   19  C   UNL     1     -37.312 -47.845  14.447  1.00  0.00     0.000 C 
HETATM   20  C   UNL     1     -38.390 -48.057  13.386  1.00  0.00     0.002 C 
HETATM   21  C   UNL     1     -38.246 -49.403  12.676  1.00  0.00     0.025 C 
ENDBRANCH   4  16
TORSDOF 3
ENDMDL
MODEL 6
REMARK VINA RESULT:      -5.2      2.130      3.266
REMARK  3 active torsions:
REMARK  status: ('A' for Active; 'I' for Inactive)
REMARK    1  A    between atoms: C_2  and  N_3 
REMARK    2  A    between atoms: C_5  and  N_6 
REMARK       I    between atoms: N_6  and  C_7 
REMARK       I    between atoms: C_7  and  N_9 
REMARK    3  A    between atoms: N_9  and  C_10 
ROOT
HETATM    1  N   UNL     1     -41.468 -49.385  12.872  1.00  0.00    -0.308 N 
HETATM    2  C   UNL     1     -40.885 -50.578  12.494  1.00  0.00     0.321 C 
HETATM    3  O   UNL     1     -40.419 -50.822  11.387  1.00  0.00    -0.247 OA
HETATM    4  N   UNL     1     -40.911 -51.524  13.489  1.00  0.00    -0.338 N 
HETATM    5  H   UNL     1     -41.565 -49.222  13.863  1.00  0.00     0.170 HD
HETATM    6  H   UNL     1     -41.005 -51.201  14.439  1.00  0.00     0.164 HD
ENDROOT
BRANCH   1   7
HETATM    7  C   UNL     1     -41.750 -48.334  12.023  1.00  0.00     0.052 A 
HETATM    8  C   UNL     1     -40.838 -47.423  11.641  1.00  0.00     0.123 A 
HETATM    9  N   UNL     1     -41.150 -46.359  10.812  1.00  0.00    -0.323 N 
HETATM   10  C   UNL     1     -42.428 -46.171  10.300  1.00  0.00     0.247 A 
HETATM   11  C   UNL     1     -43.437 -47.191  10.701  1.00  0.00     0.077 A 
HETATM   12  O   UNL     1     -42.763 -45.252   9.558  1.00  0.00    -0.268 OA
HETATM   13  C   UNL     1     -43.098 -48.215  11.500  1.00  0.00     0.036 A 
BRANCH   9  14
HETATM   14  C   UNL     1     -40.083 -45.426  10.455  1.00  0.00     0.127 C 
HETATM   15  C   UNL     1     -39.845 -44.392  11.545  1.00  0.00     0.027 C 
ENDBRANCH   9  14
ENDBRANCH   1   7
BRANCH   4  16
HETATM   16  C   UNL     1     -40.308 -52.838  13.268  1.00  0.00     0.086 C 
HETATM   17  C   UNL     1     -41.371 -53.882  12.919  1.00  0.00     0.025 C 
HETATM   18  C   UNL     1     -42.282 -54.192  14.102  1.00  0.00     0.002 C 
HETATM   19  C   UNL     1     -41.482 -54.610  15.333  1.00  0.00     0.000 C 
HETATM   20  C   UNL     1     -40.378 -53.613  15.686  1.00  0.00     0.002 C 
HETATM   21  C   UNL     1     -39.490 -53.285  14.486  1.00  0.00     0.025 C 
ENDBRANCH   4  16
TORSDOF 3
ENDMDL
MODEL 7
REMARK VINA RESULT:      -5.2      1.906      2.581
REMARK  3 active torsions:
REMARK  status: ('A' for Active; 'I' for Inactive)
REMARK    1  A    between atoms: C_2  and  N_3 
REMARK    2  A    between atoms: C_5  and  N_6 
REMARK       I    between atoms: N_6  and  C_7 
REMARK       I    between atoms: C_7  and  N_9 
REMARK    3  A    between atoms: N_9  and  C_10 
ROOT
HETATM    1  N   UNL     1     -41.293 -49.795  13.016  1.00  0.00    -0.308 N 
HETATM    2  C   UNL     1     -41.038 -51.070  12.555  1.00  0.00     0.321 C 
HETATM    3  O   UNL     1     -40.699 -51.359  11.413  1.00  0.00    -0.247 OA
HETATM    4  N   UNL     1     -41.245 -52.035  13.510  1.00  0.00    -0.338 N 
HETATM    5  H   UNL     1     -41.299 -49.667  14.016  1.00  0.00     0.170 HD
HETATM    6  H   UNL     1     -41.212 -51.751  14.477  1.00  0.00     0.164 HD
ENDROOT
BRANCH   1   7
HETATM    7  C   UNL     1     -41.350 -48.662  12.229  1.00  0.00     0.052 A 
HETATM    8  C   UNL     1     -42.394 -48.360  11.437  1.00  0.00     0.123 A 
HETATM    9  N   UNL     1     -42.417 -47.234  10.633  1.00  0.00    -0.323 N 
HETATM   10  C   UNL     1     -41.367 -46.325  10.603  1.00  0.00     0.247 A 
HETATM   11  C   UNL     1     -40.217 -46.643  11.496  1.00  0.00     0.077 A 
HETATM   12  O   UNL     1     -41.333 -45.308   9.916  1.00  0.00    -0.268 OA
HETATM   13  C   UNL     1     -40.232 -47.740  12.269  1.00  0.00     0.036 A 
BRANCH   9  14
HETATM   14  C   UNL     1     -43.603 -46.996   9.811  1.00  0.00     0.127 C 
HETATM   15  C   UNL     1     -43.484 -47.646   8.441  1.00  0.00     0.027 C 
ENDBRANCH   9  14
ENDBRANCH   1   7
BRANCH   4  16
HETATM   16  C   UNL     1     -40.992 -53.441  13.200  1.00  0.00     0.086 C 
HETATM   17  C   UNL     1     -42.277 -54.267  13.293  1.00  0.00     0.025 C 
HETATM   18  C   UNL     1     -42.781 -54.387  14.727  1.00  0.00     0.002 C 
HETATM   19  C   UNL     1     -41.702 -54.939  15.656  1.00  0.00     0.000 C 
HETATM   20  C   UNL     1     -40.387 -54.168  15.558  1.00  0.00     0.002 C 
HETATM   21  C   UNL     1     -39.908 -54.025  14.114  1.00  0.00     0.025 C 
ENDBRANCH   4  16
TORSDOF 3
ENDMDL
MODEL 8
REMARK VINA RESULT:      -5.1      2.595      7.386
REMARK  3 active torsions:
REMARK  status: ('A' for Active; 'I' for Inactive)
REMARK    1  A    between atoms: C_2  and  N_3 
REMARK    2  A    between atoms: C_5  and  N_6 
REMARK       I    between atoms: N_6  and  C_7 
REMARK       I    between atoms: C_7  and  N_9 
REMARK    3  A    between atoms: N_9  and  C_10 
ROOT
HETATM    1  N   UNL     1     -43.502 -50.642  12.549  1.00  0.00    -0.308 N 
HETATM    2  C   UNL     1     -42.504 -49.978  13.234  1.00  0.00     0.321 C 
HETATM    3  O   UNL     1     -41.935 -50.391  14.238  1.00  0.00    -0.247 OA
HETATM    4  N   UNL     1     -42.218 -48.746  12.699  1.00  0.00    -0.338 N 
HETATM    5  H   UNL     1     -43.693 -50.329  11.610  1.00  0.00     0.170 HD
HETATM    6  H   UNL     1     -42.465 -48.585  11.735  1.00  0.00     0.164 HD
ENDROOT
BRANCH   1   7
HETATM    7  C   UNL     1     -44.117 -51.804  12.971  1.00  0.00     0.052 A 
HETATM    8  C   UNL     1     -45.147 -51.827  13.835  1.00  0.00     0.123 A 
HETATM    9  N   UNL     1     -45.729 -53.006  14.268  1.00  0.00    -0.323 N 
HETATM   10  C   UNL     1     -45.299 -54.250  13.822  1.00  0.00     0.247 A 
HETATM   11  C   UNL     1     -44.174 -54.228  12.846  1.00  0.00     0.077 A 
HETATM   12  O   UNL     1     -45.779 -55.327  14.165  1.00  0.00    -0.268 OA
HETATM   13  C   UNL     1     -43.638 -53.066  12.442  1.00  0.00     0.036 A 
BRANCH   9  14
HETATM   14  C   UNL     1     -46.846 -52.920  15.208  1.00  0.00     0.127 C 
HETATM   15  C   UNL     1     -47.172 -51.480  15.571  1.00  0.00     0.027 C 
ENDBRANCH   9  14
ENDBRANCH   1   7
BRANCH   4  16
HETATM   16  C   UNL     1     -41.163 -47.919  13.283  1.00  0.00     0.086 C 
HETATM   17  C   UNL     1     -41.720 -46.583  13.779  1.00  0.00     0.025 C 
HETATM   18  C   UNL     1     -42.169 -45.685  12.631  1.00  0.00     0.002 C 
HETATM   19  C   UNL     1     -41.052 -45.473  11.613  1.00  0.00     0.000 C 
HETATM   20  C   UNL     1     -40.438 -46.786  11.128  1.00  0.00     0.002 C 
HETATM   21  C   UNL     1     -40.020 -47.691  12.286  1.00  0.00     0.025 C 
ENDBRANCH   4  16
TORSDOF 3
ENDMDL
MODEL 9
REMARK VINA RESULT:      -5.1      2.275      7.666
REMARK  3 active torsions:
REMARK  status: ('A' for Active; 'I' for Inactive)
REMARK    1  A    between atoms: C_2  and  N_3 
REMARK    2  A    between atoms: C_5  and  N_6 
REMARK       I    between atoms: N_6  and  C_7 
REMARK       I    between atoms: C_7  and  N_9 
REMARK    3  A    between atoms: N_9  and  C_10 
ROOT
HETATM    1  N   UNL     1     -43.806 -50.482  12.678  1.00  0.00    -0.308 N 
HETATM    2  C   UNL     1     -43.207 -49.435  13.350  1.00  0.00     0.321 C 
HETATM    3  O   UNL     1     -43.078 -49.352  14.566  1.00  0.00    -0.247 OA
HETATM    4  N   UNL     1     -42.790 -48.431  12.511  1.00  0.00    -0.338 N 
HETATM    5  H   UNL     1     -43.613 -50.556  11.691  1.00  0.00     0.170 HD
HETATM    6  H   UNL     1     -42.630 -48.665  11.544  1.00  0.00     0.164 HD
ENDROOT
BRANCH   1   7
HETATM    7  C   UNL     1     -44.481 -51.527  13.276  1.00  0.00     0.052 A 
HETATM    8  C   UNL     1     -43.902 -52.696  13.602  1.00  0.00     0.123 A 
HETATM    9  N   UNL     1     -44.606 -53.742  14.173  1.00  0.00    -0.323 N 
HETATM   10  C   UNL     1     -45.960 -53.647  14.468  1.00  0.00     0.247 A 
HETATM   11  C   UNL     1     -46.602 -52.346  14.130  1.00  0.00     0.077 A 
HETATM   12  O   UNL     1     -46.635 -54.537  14.978  1.00  0.00    -0.268 OA
HETATM   13  C   UNL     1     -45.887 -51.350  13.584  1.00  0.00     0.036 A 
BRANCH   9  14
HETATM   14  C   UNL     1     -43.880 -54.970  14.491  1.00  0.00     0.127 C 
HETATM   15  C   UNL     1     -42.937 -54.783  15.670  1.00  0.00     0.027 C 
ENDBRANCH   9  14
ENDBRANCH   1   7
BRANCH   4  16
HETATM   16  C   UNL     1     -42.107 -47.257  13.054  1.00  0.00     0.086 C 
HETATM   17  C   UNL     1     -42.548 -45.980  12.334  1.00  0.00     0.025 C 
HETATM   18  C   UNL     1     -42.062 -45.938  10.890  1.00  0.00     0.002 C 
HETATM   19  C   UNL     1     -40.550 -46.129  10.800  1.00  0.00     0.000 C 
HETATM   20  C   UNL     1     -40.066 -47.370  11.547  1.00  0.00     0.002 C 
HETATM   21  C   UNL     1     -40.584 -47.419  12.984  1.00  0.00     0.025 C 
ENDBRANCH   4  16
TORSDOF 3
ENDMDL
