MODEL 1
REMARK VINA RESULT:      -6.8      0.000      0.000
REMARK  7 active torsions:
REMARK  status: ('A' for Active; 'I' for Inactive)
REMARK    1  A    between atoms: N_1  and  C_8 
REMARK    2  A    between atoms: C_6  and  N_9 
REMARK    3  A    between atoms: C_14  and  C_25 
REMARK    4  A    between atoms: C_14  and  C_26 
REMARK    5  A    between atoms: C_21  and  C_22 
REMARK    6  A    between atoms: C_25  and  O_27 
REMARK    7  A    between atoms: C_26  and  O_28 
ROOT
HETATM    1  N   UNL     1     -40.440 -47.771  12.083  1.00  0.00    -0.322 N 
HETATM    2  C   UNL     1     -40.107 -49.860  12.592  1.00  0.00     0.117 A 
HETATM    3  C   UNL     1     -39.497 -48.764  11.983  1.00  0.00     0.140 A 
HETATM    4  N   UNL     1     -41.354 -49.536  13.084  1.00  0.00    -0.346 N 
ATOM      5  HN  UNL     1     -41.998 -50.139  13.596  1.00  0.00     0.167 HD
HETATM    6  C   UNL     1     -39.408 -51.091  12.598  1.00  0.00     0.114 A 
HETATM    7  C   UNL     1     -41.528 -48.285  12.748  1.00  0.00     0.185 A 
HETATM    8  N   UNL     1     -38.281 -48.735  11.414  1.00  0.00    -0.336 N 
ATOM      9  HN  UNL     1     -37.858 -47.911  10.987  1.00  0.00     0.168 HD
HETATM   10  N   UNL     1     -38.179 -51.101  12.011  1.00  0.00    -0.341 N 
ATOM     11  HN  UNL     1     -37.632 -51.960  11.969  1.00  0.00     0.167 HD
HETATM   12  C   UNL     1     -37.694 -49.952  11.484  1.00  0.00     0.183 A 
ENDROOT
BRANCH   6  13
HETATM   13  N   UNL     1     -39.978 -52.258  13.141  1.00  0.00    -0.267 NA
HETATM   14  C   UNL     1     -40.565 -52.087  14.469  1.00  0.00     0.097 C 
HETATM   15  C   UNL     1     -40.925 -53.465  15.031  1.00  0.00     0.022 C 
HETATM   16  C   UNL     1     -41.919 -54.211  14.116  1.00  0.00     0.017 C 
HETATM   17  C   UNL     1     -41.282 -54.321  12.719  1.00  0.00     0.022 C 
HETATM   18  C   UNL     1     -40.793 -52.980  12.157  1.00  0.00     0.097 C 
BRANCH  16  19
HETATM   19  C   UNL     1     -43.311 -53.540  14.125  1.00  0.00     0.125 C 
HETATM   20  O   UNL     1     -43.943 -53.811  15.396  1.00  0.00    -0.385 OA
HETATM   21  C   UNL     1     -45.280 -54.257  15.159  1.00  0.00     0.168 C 
HETATM   22  C   UNL     1     -45.247 -54.912  13.802  1.00  0.00     0.029 C 
HETATM   23  C   UNL     1     -44.285 -54.022  13.051  1.00  0.00     0.034 C 
ENDBRANCH  16  19
ENDBRANCH   6  13
BRANCH   1  24
HETATM   24  C   UNL     1     -40.476 -46.418  11.604  1.00  0.00     0.094 C 
HETATM   25  C   UNL     1     -41.034 -45.356  12.593  1.00  0.00     0.039 C 
HETATM   26  C   UNL     1     -41.491 -44.552  11.317  1.00  0.00     0.006 C 
HETATM   27  C   UNL     1     -41.655 -45.988  10.685  1.00  0.00     0.039 C 
BRANCH  26  28
HETATM   28  C   UNL     1     -42.792 -43.765  11.458  1.00  0.00     0.175 C 
BRANCH  28  29
HETATM   29  O   UNL     1     -43.357 -43.549  10.167  1.00  0.00    -0.400 OA
HETATM   30  H   UNL     1     -44.225 -43.992  10.158  1.00  0.00     0.209 HD
ENDBRANCH  28  29
ENDBRANCH  26  28
BRANCH  26  31
HETATM   31  C   UNL     1     -40.412 -43.685  10.636  1.00  0.00     0.175 C 
BRANCH  31  32
HETATM   32  O   UNL     1     -40.837 -42.329  10.576  1.00  0.00    -0.400 OA
HETATM   33  H   UNL     1     -40.903 -42.100   9.627  1.00  0.00     0.209 HD
ENDBRANCH  31  32
ENDBRANCH  26  31
ENDBRANCH   1  24
TORSDOF 7
ENDMDL
MODEL 2
REMARK VINA RESULT:      -6.7      1.538      8.496
REMARK  7 active torsions:
REMARK  status: ('A' for Active; 'I' for Inactive)
REMARK    1  A    between atoms: N_1  and  C_8 
REMARK    2  A    between atoms: C_6  and  N_9 
REMARK    3  A    between atoms: C_14  and  C_25 
REMARK    4  A    between atoms: C_14  and  C_26 
REMARK    5  A    between atoms: C_21  and  C_22 
REMARK    6  A    between atoms: C_25  and  O_27 
REMARK    7  A    between atoms: C_26  and  O_28 
ROOT
HETATM    1  N   UNL     1     -42.418 -50.475  12.525  1.00  0.00    -0.322 N 
HETATM    2  C   UNL     1     -41.155 -48.758  12.091  1.00  0.00     0.117 A 
HETATM    3  C   UNL     1     -41.143 -50.152  12.131  1.00  0.00     0.140 A 
HETATM    4  N   UNL     1     -42.400 -48.254  12.402  1.00  0.00    -0.346 N 
ATOM      5  HN  UNL     1     -42.690 -47.276  12.418  1.00  0.00     0.167 HD
HETATM    6  C   UNL     1     -39.946 -48.092  11.775  1.00  0.00     0.114 A 
HETATM    7  C   UNL     1     -43.126 -49.306  12.673  1.00  0.00     0.185 A 
HETATM    8  N   UNL     1     -40.098 -50.954  11.871  1.00  0.00    -0.336 N 
ATOM      9  HN  UNL     1     -40.127 -51.973  11.898  1.00  0.00     0.168 HD
HETATM   10  N   UNL     1     -38.862 -48.877  11.524  1.00  0.00    -0.341 N 
ATOM     11  HN  UNL     1     -37.958 -48.458  11.306  1.00  0.00     0.167 HD
HETATM   12  C   UNL     1     -39.001 -50.223  11.569  1.00  0.00     0.183 A 
ENDROOT
BRANCH   6  13
HETATM   13  N   UNL     1     -39.860 -46.687  11.769  1.00  0.00    -0.267 NA
HETATM   14  C   UNL     1     -40.466 -46.046  10.603  1.00  0.00     0.097 C 
HETATM   15  C   UNL     1     -40.093 -44.560  10.607  1.00  0.00     0.022 C 
HETATM   16  C   UNL     1     -40.570 -43.857  11.895  1.00  0.00     0.017 C 
HETATM   17  C   UNL     1     -39.950 -44.597  13.094  1.00  0.00     0.022 C 
HETATM   18  C   UNL     1     -40.194 -46.112  13.077  1.00  0.00     0.097 C 
BRANCH  16  19
HETATM   19  C   UNL     1     -42.111 -43.751  11.945  1.00  0.00     0.125 C 
HETATM   20  O   UNL     1     -42.560 -43.029  10.776  1.00  0.00    -0.385 OA
HETATM   21  C   UNL     1     -43.490 -42.024  11.186  1.00  0.00     0.168 C 
HETATM   22  C   UNL     1     -43.097 -41.669  12.598  1.00  0.00     0.029 C 
HETATM   23  C   UNL     1     -42.685 -43.011  13.152  1.00  0.00     0.034 C 
ENDBRANCH  16  19
ENDBRANCH   6  13
BRANCH   1  24
HETATM   24  C   UNL     1     -43.051 -51.730  12.820  1.00  0.00     0.094 C 
HETATM   25  C   UNL     1     -44.530 -51.656  13.293  1.00  0.00     0.039 C 
HETATM   26  C   UNL     1     -44.238 -52.982  14.092  1.00  0.00     0.006 C 
HETATM   27  C   UNL     1     -42.781 -52.388  14.204  1.00  0.00     0.039 C 
BRANCH  26  28
HETATM   28  C   UNL     1     -44.971 -53.131  15.424  1.00  0.00     0.175 C 
BRANCH  28  29
HETATM   29  O   UNL     1     -44.858 -54.478  15.878  1.00  0.00    -0.400 OA
HETATM   30  H   UNL     1     -45.731 -54.734  16.229  1.00  0.00     0.209 HD
ENDBRANCH  28  29
ENDBRANCH  26  28
BRANCH  26  31
HETATM   31  C   UNL     1     -44.321 -54.295  13.285  1.00  0.00     0.175 C 
BRANCH  31  32
HETATM   32  O   UNL     1     -45.667 -54.750  13.226  1.00  0.00    -0.400 OA
HETATM   33  H   UNL     1     -45.788 -55.361  13.981  1.00  0.00     0.209 HD
ENDBRANCH  31  32
ENDBRANCH  26  31
ENDBRANCH   1  24
TORSDOF 7
ENDMDL
MODEL 3
REMARK VINA RESULT:      -6.3      2.418      2.829
REMARK  7 active torsions:
REMARK  status: ('A' for Active; 'I' for Inactive)
REMARK    1  A    between atoms: N_1  and  C_8 
REMARK    2  A    between atoms: C_6  and  N_9 
REMARK    3  A    between atoms: C_14  and  C_25 
REMARK    4  A    between atoms: C_14  and  C_26 
REMARK    5  A    between atoms: C_21  and  C_22 
REMARK    6  A    between atoms: C_25  and  O_27 
REMARK    7  A    between atoms: C_26  and  O_28 
ROOT
HETATM    1  N   UNL     1     -41.027 -48.838  12.262  1.00  0.00    -0.322 N 
HETATM    2  C   UNL     1     -39.779 -50.328  13.239  1.00  0.00     0.117 A 
HETATM    3  C   UNL     1     -39.752 -49.348  12.248  1.00  0.00     0.140 A 
HETATM    4  N   UNL     1     -41.007 -50.381  13.865  1.00  0.00    -0.346 N 
ATOM      5  HN  UNL     1     -41.287 -50.984  14.639  1.00  0.00     0.167 HD
HETATM    6  C   UNL     1     -38.612 -51.105  13.439  1.00  0.00     0.114 A 
HETATM    7  C   UNL     1     -41.733 -49.490  13.245  1.00  0.00     0.185 A 
HETATM    8  N   UNL     1     -38.711 -49.030  11.460  1.00  0.00    -0.336 N 
ATOM      9  HN  UNL     1     -38.722 -48.297  10.752  1.00  0.00     0.168 HD
HETATM   10  N   UNL     1     -37.544 -50.820  12.642  1.00  0.00    -0.341 N 
ATOM     11  HN  UNL     1     -36.679 -51.354  12.726  1.00  0.00     0.167 HD
HETATM   12  C   UNL     1     -37.647 -49.818  11.739  1.00  0.00     0.183 A 
ENDROOT
BRANCH   6  13
HETATM   13  N   UNL     1     -38.575 -52.151  14.380  1.00  0.00    -0.267 NA
HETATM   14  C   UNL     1     -38.956 -51.761  15.736  1.00  0.00     0.097 C 
HETATM   15  C   UNL     1     -38.643 -52.920  16.688  1.00  0.00     0.022 C 
HETATM   16  C   UNL     1     -39.395 -54.205  16.286  1.00  0.00     0.017 C 
HETATM   17  C   UNL     1     -39.005 -54.546  14.836  1.00  0.00     0.022 C 
HETATM   18  C   UNL     1     -39.187 -53.379  13.858  1.00  0.00     0.097 C 
BRANCH  16  19
HETATM   19  C   UNL     1     -40.917 -54.067  16.516  1.00  0.00     0.125 C 
HETATM   20  O   UNL     1     -41.191 -54.265  17.921  1.00  0.00    -0.385 OA
HETATM   21  C   UNL     1     -42.279 -55.182  18.053  1.00  0.00     0.168 C 
HETATM   22  C   UNL     1     -42.216 -56.055  16.825  1.00  0.00     0.029 C 
HETATM   23  C   UNL     1     -41.795 -55.067  15.764  1.00  0.00     0.034 C 
ENDBRANCH  16  19
ENDBRANCH   6  13
BRANCH   1  24
HETATM   24  C   UNL     1     -41.683 -47.851  11.452  1.00  0.00     0.094 C 
HETATM   25  C   UNL     1     -43.152 -47.516  11.837  1.00  0.00     0.039 C 
HETATM   26  C   UNL     1     -43.369 -47.171  10.315  1.00  0.00     0.006 C 
HETATM   27  C   UNL     1     -42.283 -48.292  10.086  1.00  0.00     0.039 C 
BRANCH  26  28
HETATM   28  C   UNL     1     -44.750 -47.496   9.750  1.00  0.00     0.175 C 
BRANCH  28  29
HETATM   29  O   UNL     1     -45.388 -46.289   9.339  1.00  0.00    -0.400 OA
HETATM   30  H   UNL     1     -45.046 -46.075   8.451  1.00  0.00     0.209 HD
ENDBRANCH  28  29
ENDBRANCH  26  28
BRANCH  26  31
HETATM   31  C   UNL     1     -42.923 -45.764   9.865  1.00  0.00     0.175 C 
BRANCH  31  32
HETATM   32  O   UNL     1     -42.786 -45.722   8.450  1.00  0.00    -0.400 OA
HETATM   33  H   UNL     1     -43.072 -44.829   8.169  1.00  0.00     0.209 HD
ENDBRANCH  31  32
ENDBRANCH  26  31
ENDBRANCH   1  24
TORSDOF 7
ENDMDL
MODEL 4
REMARK VINA RESULT:      -6.3      1.429      2.073
REMARK  7 active torsions:
REMARK  status: ('A' for Active; 'I' for Inactive)
REMARK    1  A    between atoms: N_1  and  C_8 
REMARK    2  A    between atoms: C_6  and  N_9 
REMARK    3  A    between atoms: C_14  and  C_25 
REMARK    4  A    between atoms: C_14  and  C_26 
REMARK    5  A    between atoms: C_21  and  C_22 
REMARK    6  A    between atoms: C_25  and  O_27 
REMARK    7  A    between atoms: C_26  and  O_28 
ROOT
HETATM    1  N   UNL     1     -41.178 -48.020  12.504  1.00  0.00    -0.322 N 
HETATM    2  C   UNL     1     -40.298 -50.000  12.689  1.00  0.00     0.117 A 
HETATM    3  C   UNL     1     -40.066 -48.738  12.143  1.00  0.00     0.140 A 
HETATM    4  N   UNL     1     -41.482 -50.036  13.394  1.00  0.00    -0.346 N 
ATOM      5  HN  UNL     1     -41.874 -50.821  13.914  1.00  0.00     0.167 HD
HETATM    6  C   UNL     1     -39.347 -51.018  12.437  1.00  0.00     0.114 A 
HETATM    7  C   UNL     1     -41.991 -48.841  13.249  1.00  0.00     0.185 A 
HETATM    8  N   UNL     1     -39.004 -48.362  11.411  1.00  0.00    -0.336 N 
ATOM      9  HN  UNL     1     -38.859 -47.425  11.036  1.00  0.00     0.168 HD
HETATM   10  N   UNL     1     -38.267 -50.674  11.682  1.00  0.00    -0.341 N 
ATOM     11  HN  UNL     1     -37.554 -51.367  11.452  1.00  0.00     0.167 HD
HETATM   12  C   UNL     1     -38.153 -49.400  11.241  1.00  0.00     0.183 A 
ENDROOT
BRANCH   6  13
HETATM   13  N   UNL     1     -39.535 -52.333  12.904  1.00  0.00    -0.267 NA
HETATM   14  C   UNL     1     -39.054 -52.569  14.265  1.00  0.00     0.097 C 
HETATM   15  C   UNL     1     -39.100 -54.073  14.550  1.00  0.00     0.022 C 
HETATM   16  C   UNL     1     -40.528 -54.638  14.398  1.00  0.00     0.017 C 
HETATM   17  C   UNL     1     -41.011 -54.319  12.971  1.00  0.00     0.022 C 
HETATM   18  C   UNL     1     -40.875 -52.840  12.590  1.00  0.00     0.097 C 
BRANCH  16  19
HETATM   19  C   UNL     1     -41.464 -54.119  15.513  1.00  0.00     0.125 C 
HETATM   20  O   UNL     1     -40.744 -54.144  16.766  1.00  0.00    -0.385 OA
HETATM   21  C   UNL     1     -41.569 -54.760  17.758  1.00  0.00     0.168 C 
HETATM   22  C   UNL     1     -42.464 -55.707  17.000  1.00  0.00     0.029 C 
HETATM   23  C   UNL     1     -42.740 -54.929  15.736  1.00  0.00     0.034 C 
ENDBRANCH  16  19
ENDBRANCH   6  13
BRANCH   1  24
HETATM   24  C   UNL     1     -41.602 -46.679  12.212  1.00  0.00     0.094 C 
HETATM   25  C   UNL     1     -41.240 -46.140  10.800  1.00  0.00     0.039 C 
HETATM   26  C   UNL     1     -41.218 -44.709  11.459  1.00  0.00     0.006 C 
HETATM   27  C   UNL     1     -40.738 -45.497  12.738  1.00  0.00     0.039 C 
BRANCH  26  28
HETATM   28  C   UNL     1     -40.193 -43.730  10.890  1.00  0.00     0.175 C 
BRANCH  28  29
HETATM   29  O   UNL     1     -40.865 -42.571  10.404  1.00  0.00    -0.400 OA
HETATM   30  H   UNL     1     -40.188 -41.882  10.276  1.00  0.00     0.209 HD
ENDBRANCH  28  29
ENDBRANCH  26  28
BRANCH  26  31
HETATM   31  C   UNL     1     -42.587 -44.015  11.626  1.00  0.00     0.175 C 
BRANCH  31  32
HETATM   32  O   UNL     1     -43.243 -43.916  10.369  1.00  0.00    -0.400 OA
HETATM   33  H   UNL     1     -43.638 -43.022  10.330  1.00  0.00     0.209 HD
ENDBRANCH  31  32
ENDBRANCH  26  31
ENDBRANCH   1  24
TORSDOF 7
ENDMDL
MODEL 5
REMARK VINA RESULT:      -6.1      2.737      4.080
REMARK  7 active torsions:
REMARK  status: ('A' for Active; 'I' for Inactive)
REMARK    1  A    between atoms: N_1  and  C_8 
REMARK    2  A    between atoms: C_6  and  N_9 
REMARK    3  A    between atoms: C_14  and  C_25 
REMARK    4  A    between atoms: C_14  and  C_26 
REMARK    5  A    between atoms: C_21  and  C_22 
REMARK    6  A    between atoms: C_25  and  O_27 
REMARK    7  A    between atoms: C_26  and  O_28 
ROOT
HETATM    1  N   UNL     1     -41.617 -49.524  11.861  1.00  0.00    -0.322 N 
HETATM    2  C   UNL     1     -41.078 -51.195  13.144  1.00  0.00     0.117 A 
HETATM    3  C   UNL     1     -42.178 -50.545  12.586  1.00  0.00     0.140 A 
HETATM    4  N   UNL     1     -39.892 -50.621  12.737  1.00  0.00    -0.346 N 
ATOM      5  HN  UNL     1     -38.944 -50.917  12.971  1.00  0.00     0.167 HD
HETATM    6  C   UNL     1     -41.320 -52.280  14.020  1.00  0.00     0.114 A 
HETATM    7  C   UNL     1     -40.251 -49.615  11.985  1.00  0.00     0.185 A 
HETATM    8  N   UNL     1     -43.472 -50.856  12.769  1.00  0.00    -0.336 N 
ATOM      9  HN  UNL     1     -44.254 -50.366  12.335  1.00  0.00     0.168 HD
HETATM   10  N   UNL     1     -42.624 -52.609  14.241  1.00  0.00    -0.341 N 
ATOM     11  HN  UNL     1     -42.865 -53.371  14.875  1.00  0.00     0.167 HD
HETATM   12  C   UNL     1     -43.594 -51.910  13.608  1.00  0.00     0.183 A 
ENDROOT
BRANCH   6  13
HETATM   13  N   UNL     1     -40.267 -52.953  14.668  1.00  0.00    -0.267 NA
HETATM   14  C   UNL     1     -40.123 -52.632  16.088  1.00  0.00     0.097 C 
HETATM   15  C   UNL     1     -38.813 -53.238  16.600  1.00  0.00     0.022 C 
HETATM   16  C   UNL     1     -38.780 -54.768  16.407  1.00  0.00     0.017 C 
HETATM   17  C   UNL     1     -38.988 -55.059  14.909  1.00  0.00     0.022 C 
HETATM   18  C   UNL     1     -40.226 -54.377  14.315  1.00  0.00     0.097 C 
BRANCH  16  19
HETATM   19  C   UNL     1     -39.790 -55.479  17.335  1.00  0.00     0.125 C 
HETATM   20  O   UNL     1     -39.182 -55.645  18.636  1.00  0.00    -0.385 OA
HETATM   21  C   UNL     1     -39.381 -56.993  19.067  1.00  0.00     0.168 C 
HETATM   22  C   UNL     1     -39.479 -57.807  17.802  1.00  0.00     0.029 C 
HETATM   23  C   UNL     1     -40.235 -56.871  16.889  1.00  0.00     0.034 C 
ENDBRANCH  16  19
ENDBRANCH   6  13
BRANCH   1  24
HETATM   24  C   UNL     1     -42.190 -48.449  11.099  1.00  0.00     0.094 C 
HETATM   25  C   UNL     1     -41.247 -47.254  10.786  1.00  0.00     0.039 C 
HETATM   26  C   UNL     1     -42.545 -46.361  10.769  1.00  0.00     0.006 C 
HETATM   27  C   UNL     1     -43.060 -47.395  11.843  1.00  0.00     0.039 C 
BRANCH  26  28
HETATM   28  C   UNL     1     -42.378 -44.934  11.286  1.00  0.00     0.175 C 
BRANCH  28  29
HETATM   29  O   UNL     1     -41.677 -44.159  10.316  1.00  0.00    -0.400 OA
HETATM   30  H   UNL     1     -40.878 -43.810  10.753  1.00  0.00     0.209 HD
ENDBRANCH  28  29
ENDBRANCH  26  28
BRANCH  26  31
HETATM   31  C   UNL     1     -43.357 -46.364   9.456  1.00  0.00     0.175 C 
BRANCH  31  32
HETATM   32  O   UNL     1     -42.562 -45.863   8.388  1.00  0.00    -0.400 OA
HETATM   33  H   UNL     1     -41.645 -45.810   8.725  1.00  0.00     0.209 HD
ENDBRANCH  31  32
ENDBRANCH  26  31
ENDBRANCH   1  24
TORSDOF 7
ENDMDL
MODEL 6
REMARK VINA RESULT:      -6.0      2.748      4.752
REMARK  7 active torsions:
REMARK  status: ('A' for Active; 'I' for Inactive)
REMARK    1  A    between atoms: N_1  and  C_8 
REMARK    2  A    between atoms: C_6  and  N_9 
REMARK    3  A    between atoms: C_14  and  C_25 
REMARK    4  A    between atoms: C_14  and  C_26 
REMARK    5  A    between atoms: C_21  and  C_22 
REMARK    6  A    between atoms: C_25  and  O_27 
REMARK    7  A    between atoms: C_26  and  O_28 
ROOT
HETATM    1  N   UNL     1     -42.464 -49.668  12.581  1.00  0.00    -0.322 N 
HETATM    2  C   UNL     1     -42.828 -51.431  13.801  1.00  0.00     0.117 A 
HETATM    3  C   UNL     1     -43.471 -50.517  12.968  1.00  0.00     0.140 A 
HETATM    4  N   UNL     1     -41.475 -51.177  13.882  1.00  0.00    -0.346 N 
ATOM      5  HN  UNL     1     -40.771 -51.706  14.397  1.00  0.00     0.167 HD
HETATM    6  C   UNL     1     -43.616 -52.424  14.432  1.00  0.00     0.114 A 
HETATM    7  C   UNL     1     -41.295 -50.106  13.155  1.00  0.00     0.185 A 
HETATM    8  N   UNL     1     -44.780 -50.488  12.665  1.00  0.00    -0.336 N 
ATOM      9  HN  UNL     1     -45.217 -49.811  12.040  1.00  0.00     0.168 HD
HETATM   10  N   UNL     1     -44.951 -52.410  14.161  1.00  0.00    -0.341 N 
ATOM     11  HN  UNL     1     -45.574 -53.090  14.596  1.00  0.00     0.167 HD
HETATM   12  C   UNL     1     -45.437 -51.482  13.305  1.00  0.00     0.183 A 
ENDROOT
BRANCH   6  13
HETATM   13  N   UNL     1     -43.053 -53.349  15.332  1.00  0.00    -0.267 NA
HETATM   14  C   UNL     1     -42.399 -54.493  14.698  1.00  0.00     0.097 C 
HETATM   15  C   UNL     1     -42.050 -55.522  15.778  1.00  0.00     0.022 C 
HETATM   16  C   UNL     1     -41.122 -54.924  16.856  1.00  0.00     0.017 C 
HETATM   17  C   UNL     1     -41.828 -53.694  17.456  1.00  0.00     0.022 C 
HETATM   18  C   UNL     1     -42.306 -52.683  16.405  1.00  0.00     0.097 C 
BRANCH  16  19
HETATM   19  C   UNL     1     -39.713 -54.632  16.292  1.00  0.00     0.125 C 
HETATM   20  O   UNL     1     -39.074 -55.889  15.977  1.00  0.00    -0.385 OA
HETATM   21  C   UNL     1     -37.752 -55.881  16.520  1.00  0.00     0.168 C 
HETATM   22  C   UNL     1     -37.817 -54.964  17.715  1.00  0.00     0.029 C 
HETATM   23  C   UNL     1     -38.764 -53.892  17.233  1.00  0.00     0.034 C 
ENDBRANCH  16  19
ENDBRANCH   6  13
BRANCH   1  24
HETATM   24  C   UNL     1     -42.457 -48.477  11.778  1.00  0.00     0.094 C 
HETATM   25  C   UNL     1     -41.374 -48.407  10.665  1.00  0.00     0.039 C 
HETATM   26  C   UNL     1     -41.426 -46.843  10.848  1.00  0.00     0.006 C 
HETATM   27  C   UNL     1     -41.764 -47.204  12.346  1.00  0.00     0.039 C 
BRANCH  26  28
HETATM   28  C   UNL     1     -40.103 -46.107  10.653  1.00  0.00     0.175 C 
BRANCH  28  29
HETATM   29  O   UNL     1     -40.286 -45.048   9.715  1.00  0.00    -0.400 OA
HETATM   30  H   UNL     1     -40.380 -45.459   8.836  1.00  0.00     0.209 HD
ENDBRANCH  28  29
ENDBRANCH  26  28
BRANCH  26  31
HETATM   31  C   UNL     1     -42.564 -46.108  10.108  1.00  0.00     0.175 C 
BRANCH  31  32
HETATM   32  O   UNL     1     -42.445 -46.309   8.705  1.00  0.00    -0.400 OA
HETATM   33  H   UNL     1     -41.488 -46.387   8.515  1.00  0.00     0.209 HD
ENDBRANCH  31  32
ENDBRANCH  26  31
ENDBRANCH   1  24
TORSDOF 7
ENDMDL
MODEL 7
REMARK VINA RESULT:      -5.9      1.367      1.647
REMARK  7 active torsions:
REMARK  status: ('A' for Active; 'I' for Inactive)
REMARK    1  A    between atoms: N_1  and  C_8 
REMARK    2  A    between atoms: C_6  and  N_9 
REMARK    3  A    between atoms: C_14  and  C_25 
REMARK    4  A    between atoms: C_14  and  C_26 
REMARK    5  A    between atoms: C_21  and  C_22 
REMARK    6  A    between atoms: C_25  and  O_27 
REMARK    7  A    between atoms: C_26  and  O_28 
ROOT
HETATM    1  N   UNL     1     -40.389 -47.598  13.047  1.00  0.00    -0.322 N 
HETATM    2  C   UNL     1     -40.659 -49.756  13.065  1.00  0.00     0.117 A 
HETATM    3  C   UNL     1     -39.764 -48.761  12.672  1.00  0.00     0.140 A 
HETATM    4  N   UNL     1     -41.763 -49.223  13.696  1.00  0.00    -0.346 N 
ATOM      5  HN  UNL     1     -42.550 -49.726  14.105  1.00  0.00     0.167 HD
HETATM    6  C   UNL     1     -40.336 -51.100  12.757  1.00  0.00     0.114 A 
HETATM    7  C   UNL     1     -41.577 -47.930  13.653  1.00  0.00     0.185 A 
HETATM    8  N   UNL     1     -38.590 -48.939  12.044  1.00  0.00    -0.336 N 
ATOM      9  HN  UNL     1     -37.952 -48.188  11.781  1.00  0.00     0.168 HD
HETATM   10  N   UNL     1     -39.160 -51.313  12.103  1.00  0.00    -0.341 N 
ATOM     11  HN  UNL     1     -38.878 -52.257  11.839  1.00  0.00     0.167 HD
HETATM   12  C   UNL     1     -38.371 -50.253  11.809  1.00  0.00     0.183 A 
ENDROOT
BRANCH   6  13
HETATM   13  N   UNL     1     -41.212 -52.157  13.068  1.00  0.00    -0.267 NA
HETATM   14  C   UNL     1     -41.311 -52.464  14.494  1.00  0.00     0.097 C 
HETATM   15  C   UNL     1     -42.095 -53.769  14.665  1.00  0.00     0.022 C 
HETATM   16  C   UNL     1     -43.509 -53.666  14.056  1.00  0.00     0.017 C 
HETATM   17  C   UNL     1     -43.357 -53.289  12.571  1.00  0.00     0.022 C 
HETATM   18  C   UNL     1     -42.478 -52.054  12.334  1.00  0.00     0.097 C 
BRANCH  16  19
HETATM   19  C   UNL     1     -44.405 -52.700  14.864  1.00  0.00     0.125 C 
HETATM   20  O   UNL     1     -44.827 -53.368  16.074  1.00  0.00    -0.385 OA
HETATM   21  C   UNL     1     -46.237 -53.192  16.229  1.00  0.00     0.168 C 
HETATM   22  C   UNL     1     -46.776 -53.036  14.830  1.00  0.00     0.029 C 
HETATM   23  C   UNL     1     -45.682 -52.238  14.163  1.00  0.00     0.034 C 
ENDBRANCH  16  19
ENDBRANCH   6  13
BRANCH   1  24
HETATM   24  C   UNL     1     -40.042 -46.215  12.878  1.00  0.00     0.094 C 
HETATM   25  C   UNL     1     -41.145 -45.182  13.240  1.00  0.00     0.039 C 
HETATM   26  C   UNL     1     -40.480 -44.240  12.167  1.00  0.00     0.006 C 
HETATM   27  C   UNL     1     -40.122 -45.599  11.451  1.00  0.00     0.039 C 
BRANCH  26  28
HETATM   28  C   UNL     1     -41.436 -43.341  11.387  1.00  0.00     0.175 C 
BRANCH  28  29
HETATM   29  O   UNL     1     -40.688 -42.343  10.696  1.00  0.00    -0.400 OA
HETATM   30  H   UNL     1     -41.105 -41.485  10.897  1.00  0.00     0.209 HD
ENDBRANCH  28  29
ENDBRANCH  26  28
BRANCH  26  31
HETATM   31  C   UNL     1     -39.249 -43.435  12.637  1.00  0.00     0.175 C 
BRANCH  31  32
HETATM   32  O   UNL     1     -39.662 -42.325  13.425  1.00  0.00    -0.400 OA
HETATM   33  H   UNL     1     -40.340 -41.850  12.903  1.00  0.00     0.209 HD
ENDBRANCH  31  32
ENDBRANCH  26  31
ENDBRANCH   1  24
TORSDOF 7
ENDMDL
MODEL 8
REMARK VINA RESULT:      -5.9      4.007      7.450
REMARK  7 active torsions:
REMARK  status: ('A' for Active; 'I' for Inactive)
REMARK    1  A    between atoms: N_1  and  C_8 
REMARK    2  A    between atoms: C_6  and  N_9 
REMARK    3  A    between atoms: C_14  and  C_25 
REMARK    4  A    between atoms: C_14  and  C_26 
REMARK    5  A    between atoms: C_21  and  C_22 
REMARK    6  A    between atoms: C_25  and  O_27 
REMARK    7  A    between atoms: C_26  and  O_28 
ROOT
HETATM    1  N   UNL     1     -42.590 -50.396  13.478  1.00  0.00    -0.322 N 
HETATM    2  C   UNL     1     -40.517 -49.738  13.513  1.00  0.00     0.117 A 
HETATM    3  C   UNL     1     -41.559 -50.050  12.641  1.00  0.00     0.140 A 
HETATM    4  N   UNL     1     -40.911 -49.844  14.830  1.00  0.00    -0.346 N 
ATOM      5  HN  UNL     1     -40.359 -49.646  15.664  1.00  0.00     0.167 HD
HETATM    6  C   UNL     1     -39.261 -49.396  12.955  1.00  0.00     0.114 A 
HETATM    7  C   UNL     1     -42.150 -50.256  14.773  1.00  0.00     0.185 A 
HETATM    8  N   UNL     1     -41.513 -50.037  11.298  1.00  0.00    -0.336 N 
ATOM      9  HN  UNL     1     -42.299 -50.259  10.688  1.00  0.00     0.168 HD
HETATM   10  N   UNL     1     -39.177 -49.391  11.595  1.00  0.00    -0.341 N 
ATOM     11  HN  UNL     1     -38.296 -49.169  11.132  1.00  0.00     0.167 HD
HETATM   12  C   UNL     1     -40.280 -49.686  10.868  1.00  0.00     0.183 A 
ENDROOT
BRANCH   6  13
HETATM   13  N   UNL     1     -38.144 -49.123  13.766  1.00  0.00    -0.267 NA
HETATM   14  C   UNL     1     -38.130 -47.783  14.350  1.00  0.00     0.097 C 
HETATM   15  C   UNL     1     -36.764 -47.542  15.000  1.00  0.00     0.022 C 
HETATM   16  C   UNL     1     -36.462 -48.588  16.093  1.00  0.00     0.017 C 
HETATM   17  C   UNL     1     -36.540 -49.983  15.446  1.00  0.00     0.022 C 
HETATM   18  C   UNL     1     -37.844 -50.234  14.678  1.00  0.00     0.097 C 
BRANCH  16  19
HETATM   19  C   UNL     1     -37.384 -48.408  17.320  1.00  0.00     0.125 C 
HETATM   20  O   UNL     1     -37.011 -47.189  18.001  1.00  0.00    -0.385 OA
HETATM   21  C   UNL     1     -36.894 -47.460  19.399  1.00  0.00     0.168 C 
HETATM   22  C   UNL     1     -36.514 -48.916  19.492  1.00  0.00     0.029 C 
HETATM   23  C   UNL     1     -37.319 -49.520  18.367  1.00  0.00     0.034 C 
ENDBRANCH  16  19
ENDBRANCH   6  13
BRANCH   1  24
HETATM   24  C   UNL     1     -43.919 -50.879  13.229  1.00  0.00     0.094 C 
HETATM   25  C   UNL     1     -44.756 -51.258  14.483  1.00  0.00     0.039 C 
HETATM   26  C   UNL     1     -45.496 -52.294  13.554  1.00  0.00     0.006 C 
HETATM   27  C   UNL     1     -44.102 -52.369  12.821  1.00  0.00     0.039 C 
BRANCH  26  28
HETATM   28  C   UNL     1     -45.935 -53.593  14.226  1.00  0.00     0.175 C 
BRANCH  28  29
HETATM   29  O   UNL     1     -47.357 -53.615  14.329  1.00  0.00    -0.400 OA
HETATM   30  H   UNL     1     -47.597 -53.035  15.075  1.00  0.00     0.209 HD
ENDBRANCH  28  29
ENDBRANCH  26  28
BRANCH  26  31
HETATM   31  C   UNL     1     -46.636 -51.731  12.679  1.00  0.00     0.175 C 
BRANCH  31  32
HETATM   32  O   UNL     1     -46.990 -52.671  11.671  1.00  0.00    -0.400 OA
HETATM   33  H   UNL     1     -47.254 -52.150  10.885  1.00  0.00     0.209 HD
ENDBRANCH  31  32
ENDBRANCH  26  31
ENDBRANCH   1  24
TORSDOF 7
ENDMDL
MODEL 9
REMARK VINA RESULT:      -5.9      2.758      9.446
REMARK  7 active torsions:
REMARK  status: ('A' for Active; 'I' for Inactive)
REMARK    1  A    between atoms: N_1  and  C_8 
REMARK    2  A    between atoms: C_6  and  N_9 
REMARK    3  A    between atoms: C_14  and  C_25 
REMARK    4  A    between atoms: C_14  and  C_26 
REMARK    5  A    between atoms: C_21  and  C_22 
REMARK    6  A    between atoms: C_25  and  O_27 
REMARK    7  A    between atoms: C_26  and  O_28 
ROOT
HETATM    1  N   UNL     1     -43.140 -49.663  13.284  1.00  0.00    -0.322 N 
HETATM    2  C   UNL     1     -42.373 -47.643  13.034  1.00  0.00     0.117 A 
HETATM    3  C   UNL     1     -42.655 -48.810  12.324  1.00  0.00     0.140 A 
HETATM    4  N   UNL     1     -42.716 -47.765  14.364  1.00  0.00    -0.346 N 
ATOM      5  HN  UNL     1     -42.643 -47.056  15.093  1.00  0.00     0.167 HD
HETATM    6  C   UNL     1     -41.785 -46.564  12.331  1.00  0.00     0.114 A 
HETATM    7  C   UNL     1     -43.155 -48.989  14.482  1.00  0.00     0.185 A 
HETATM    8  N   UNL     1     -42.452 -49.022  11.013  1.00  0.00    -0.336 N 
ATOM      9  HN  UNL     1     -42.681 -49.886  10.522  1.00  0.00     0.168 HD
HETATM   10  N   UNL     1     -41.549 -46.754  11.003  1.00  0.00    -0.341 N 
ATOM     11  HN  UNL     1     -41.113 -46.020  10.445  1.00  0.00     0.167 HD
HETATM   12  C   UNL     1     -41.902 -47.930  10.435  1.00  0.00     0.183 A 
ENDROOT
BRANCH   6  13
HETATM   13  N   UNL     1     -41.418 -45.372  12.985  1.00  0.00    -0.267 NA
HETATM   14  C   UNL     1     -40.278 -44.678  12.388  1.00  0.00     0.097 C 
HETATM   15  C   UNL     1     -39.843 -43.548  13.326  1.00  0.00     0.022 C 
HETATM   16  C   UNL     1     -40.988 -42.545  13.579  1.00  0.00     0.017 C 
HETATM   17  C   UNL     1     -42.181 -43.329  14.156  1.00  0.00     0.022 C 
HETATM   18  C   UNL     1     -42.585 -44.546  13.315  1.00  0.00     0.097 C 
BRANCH  16  19
HETATM   19  C   UNL     1     -41.321 -41.732  12.308  1.00  0.00     0.125 C 
HETATM   20  O   UNL     1     -40.217 -40.842  12.030  1.00  0.00    -0.385 OA
HETATM   21  C   UNL     1     -40.735 -39.534  11.775  1.00  0.00     0.168 C 
HETATM   22  C   UNL     1     -42.023 -39.456  12.554  1.00  0.00     0.029 C 
HETATM   23  C   UNL     1     -42.569 -40.854  12.391  1.00  0.00     0.034 C 
ENDBRANCH  16  19
ENDBRANCH   6  13
BRANCH   1  24
HETATM   24  C   UNL     1     -43.553 -51.038  13.238  1.00  0.00     0.094 C 
HETATM   25  C   UNL     1     -45.048 -51.314  13.558  1.00  0.00     0.039 C 
HETATM   26  C   UNL     1     -44.575 -52.723  14.083  1.00  0.00     0.006 C 
HETATM   27  C   UNL     1     -43.260 -51.941  14.471  1.00  0.00     0.039 C 
BRANCH  26  28
HETATM   28  C   UNL     1     -45.354 -53.287  15.268  1.00  0.00     0.175 C 
BRANCH  28  29
HETATM   29  O   UNL     1     -44.869 -54.593  15.575  1.00  0.00    -0.400 OA
HETATM   30  H   UNL     1     -45.616 -55.092  15.953  1.00  0.00     0.209 HD
ENDBRANCH  28  29
ENDBRANCH  26  28
BRANCH  26  31
HETATM   31  C   UNL     1     -44.364 -53.813  13.012  1.00  0.00     0.175 C 
BRANCH  31  32
HETATM   32  O   UNL     1     -45.517 -54.641  12.921  1.00  0.00    -0.400 OA
HETATM   33  H   UNL     1     -45.870 -54.726  13.830  1.00  0.00     0.209 HD
ENDBRANCH  31  32
ENDBRANCH  26  31
ENDBRANCH   1  24
TORSDOF 7
ENDMDL
