MODEL 1
REMARK VINA RESULT:      -6.2      0.000      0.000
REMARK  6 active torsions:
REMARK  status: ('A' for Active; 'I' for Inactive)
REMARK    1  A    between atoms: C_2  and  N_4 
REMARK       I    between atoms: N_4  and  C_5 
REMARK    2  A    between atoms: C_5  and  C_7 
REMARK    3  A    between atoms: C_7  and  N_8 
REMARK    4  A    between atoms: C_11  and  C_12 
REMARK       I    between atoms: C_12  and  N_14 
REMARK    5  A    between atoms: N_14  and  C_16 
REMARK    6  A    between atoms: C_16  and  C_17 
ROOT
HETATM    1  N   UNL     1     -41.486 -47.611  11.757  1.00  0.00    -0.309 N 
HETATM    2  C   UNL     1     -41.723 -48.944  12.220  1.00  0.00     0.028 A 
HETATM    3  C   UNL     1     -43.162 -49.199  12.567  1.00  0.00     0.069 C 
HETATM    4  C   UNL     1     -40.706 -49.879  12.315  1.00  0.00     0.060 A 
HETATM    5  C   UNL     1     -39.335 -49.369  11.859  1.00  0.00    -0.039 A 
HETATM    6  C   UNL     1     -38.046 -50.166  11.810  1.00  0.00     0.049 C 
HETATM    7  C   UNL     1     -39.164 -48.109  11.435  1.00  0.00     0.082 A 
HETATM    8  C   UNL     1     -40.239 -47.137  11.423  1.00  0.00     0.248 A 
HETATM    9  O   UNL     1     -39.977 -45.967  11.149  1.00  0.00    -0.268 OA
ENDROOT
BRANCH   4  10
HETATM   10  C   UNL     1     -40.731 -51.419  12.749  1.00  0.00     0.255 C 
HETATM   11  O   UNL     1     -41.198 -52.199  11.902  1.00  0.00    -0.267 OA
HETATM   12  N   UNL     1     -40.285 -52.029  13.926  1.00  0.00    -0.352 N 
HETATM   13  C   UNL     1     -39.981 -51.440  15.208  1.00  0.00     0.152 C 
BRANCH  12  14
HETATM   14  C   UNL     1     -40.297 -53.507  13.993  1.00  0.00     0.130 C 
BRANCH  14  15
HETATM   15  C   UNL     1     -41.368 -53.911  15.006  1.00  0.00     0.004 C 
HETATM   16  C   UNL     1     -41.153 -55.231  15.791  1.00  0.00     0.006 C 
HETATM   17  C   UNL     1     -42.674 -55.457  15.688  1.00  0.00     0.001 C 
HETATM   18  C   UNL     1     -42.647 -54.569  14.426  1.00  0.00     0.006 C 
ENDBRANCH  14  15
ENDBRANCH  12  14
ENDBRANCH   4  10
BRANCH   1  19
HETATM   19  C   UNL     1     -42.546 -46.585  11.674  1.00  0.00     0.234 C 
BRANCH  19  20
HETATM   20  C   UNL     1     -43.031 -46.404  10.236  1.00  0.00     0.236 C 
HETATM   21  N   UNL     1     -43.960 -47.349   9.856  1.00  0.00    -0.356 N 
HETATM   22  H   UNL     1     -44.137 -48.129  10.490  1.00  0.00     0.162 HD
HETATM   23  O   UNL     1     -42.629 -45.511   9.508  1.00  0.00    -0.272 OA
BRANCH  21  24
HETATM   24  C   UNL     1     -44.530 -47.401   8.515  1.00  0.00     0.076 C 
HETATM   25  C   UNL     1     -43.598 -48.111   7.551  1.00  0.00     0.032 C 
HETATM   26  C   UNL     1     -45.898 -48.089   8.575  1.00  0.00     0.032 C 
ENDBRANCH  21  24
ENDBRANCH  19  20
ENDBRANCH   1  19
TORSDOF 6
ENDMDL
MODEL 2
REMARK VINA RESULT:      -6.1      3.887      6.565
REMARK  6 active torsions:
REMARK  status: ('A' for Active; 'I' for Inactive)
REMARK    1  A    between atoms: C_2  and  N_4 
REMARK       I    between atoms: N_4  and  C_5 
REMARK    2  A    between atoms: C_5  and  C_7 
REMARK    3  A    between atoms: C_7  and  N_8 
REMARK    4  A    between atoms: C_11  and  C_12 
REMARK       I    between atoms: C_12  and  N_14 
REMARK    5  A    between atoms: N_14  and  C_16 
REMARK    6  A    between atoms: C_16  and  C_17 
ROOT
HETATM    1  N   UNL     1     -42.117 -51.763  12.955  1.00  0.00    -0.309 N 
HETATM    2  C   UNL     1     -43.055 -51.586  14.021  1.00  0.00     0.028 A 
HETATM    3  C   UNL     1     -43.561 -50.176  14.131  1.00  0.00     0.069 C 
HETATM    4  C   UNL     1     -43.442 -52.634  14.840  1.00  0.00     0.060 A 
HETATM    5  C   UNL     1     -42.803 -53.980  14.485  1.00  0.00    -0.039 A 
HETATM    6  C   UNL     1     -43.057 -55.309  15.170  1.00  0.00     0.049 C 
HETATM    7  C   UNL     1     -41.926 -54.094  13.477  1.00  0.00     0.082 A 
HETATM    8  C   UNL     1     -41.489 -52.958  12.692  1.00  0.00     0.248 A 
HETATM    9  O   UNL     1     -40.583 -53.115  11.874  1.00  0.00    -0.268 OA
ENDROOT
BRANCH   4  10
HETATM   10  C   UNL     1     -44.493 -52.694  16.044  1.00  0.00     0.255 C 
HETATM   11  O   UNL     1     -43.997 -52.641  17.181  1.00  0.00    -0.267 OA
HETATM   12  N   UNL     1     -45.890 -52.771  16.016  1.00  0.00    -0.352 N 
HETATM   13  C   UNL     1     -46.768 -53.145  14.934  1.00  0.00     0.152 C 
BRANCH  12  14
HETATM   14  C   UNL     1     -46.620 -52.659  17.298  1.00  0.00     0.130 C 
BRANCH  14  15
HETATM   15  C   UNL     1     -47.370 -51.327  17.284  1.00  0.00     0.004 C 
HETATM   16  C   UNL     1     -46.623 -50.077  17.816  1.00  0.00     0.006 C 
HETATM   17  C   UNL     1     -47.968 -49.615  18.410  1.00  0.00     0.001 C 
HETATM   18  C   UNL     1     -48.385 -51.100  18.434  1.00  0.00     0.006 C 
ENDBRANCH  14  15
ENDBRANCH  12  14
ENDBRANCH   4  10
BRANCH   1  19
HETATM   19  C   UNL     1     -41.664 -50.657  12.086  1.00  0.00     0.234 C 
BRANCH  19  20
HETATM   20  C   UNL     1     -40.313 -50.110  12.547  1.00  0.00     0.236 C 
HETATM   21  N   UNL     1     -39.273 -50.463  11.714  1.00  0.00    -0.356 N 
HETATM   22  H   UNL     1     -39.463 -51.138  10.972  1.00  0.00     0.162 HD
HETATM   23  O   UNL     1     -40.182 -49.430  13.552  1.00  0.00    -0.272 OA
BRANCH  21  24
HETATM   24  C   UNL     1     -37.889 -50.091  11.978  1.00  0.00     0.076 C 
HETATM   25  C   UNL     1     -37.223 -51.086  12.910  1.00  0.00     0.032 C 
HETATM   26  C   UNL     1     -37.134 -49.982  10.648  1.00  0.00     0.032 C 
ENDBRANCH  21  24
ENDBRANCH  19  20
ENDBRANCH   1  19
TORSDOF 6
ENDMDL
MODEL 3
REMARK VINA RESULT:      -6.1      4.167      6.725
REMARK  6 active torsions:
REMARK  status: ('A' for Active; 'I' for Inactive)
REMARK    1  A    between atoms: C_2  and  N_4 
REMARK       I    between atoms: N_4  and  C_5 
REMARK    2  A    between atoms: C_5  and  C_7 
REMARK    3  A    between atoms: C_7  and  N_8 
REMARK    4  A    between atoms: C_11  and  C_12 
REMARK       I    between atoms: C_12  and  N_14 
REMARK    5  A    between atoms: N_14  and  C_16 
REMARK    6  A    between atoms: C_16  and  C_17 
ROOT
HETATM    1  N   UNL     1     -43.736 -53.808  13.457  1.00  0.00    -0.309 N 
HETATM    2  C   UNL     1     -42.460 -53.175  13.326  1.00  0.00     0.028 A 
HETATM    3  C   UNL     1     -42.443 -52.098  12.279  1.00  0.00     0.069 C 
HETATM    4  C   UNL     1     -41.377 -53.536  14.109  1.00  0.00     0.060 A 
HETATM    5  C   UNL     1     -41.677 -54.640  15.129  1.00  0.00    -0.039 A 
HETATM    6  C   UNL     1     -40.711 -55.217  16.146  1.00  0.00     0.049 C 
HETATM    7  C   UNL     1     -42.890 -55.205  15.211  1.00  0.00     0.082 A 
HETATM    8  C   UNL     1     -43.977 -54.852  14.321  1.00  0.00     0.248 A 
HETATM    9  O   UNL     1     -45.018 -55.506  14.367  1.00  0.00    -0.268 OA
ENDROOT
BRANCH   4  10
HETATM   10  C   UNL     1     -39.890 -52.951  14.182  1.00  0.00     0.255 C 
HETATM   11  O   UNL     1     -39.032 -53.614  13.575  1.00  0.00    -0.267 OA
HETATM   12  N   UNL     1     -39.407 -51.793  14.800  1.00  0.00    -0.352 N 
HETATM   13  C   UNL     1     -40.020 -50.970  15.815  1.00  0.00     0.152 C 
BRANCH  12  14
HETATM   14  C   UNL     1     -37.994 -51.419  14.574  1.00  0.00     0.130 C 
BRANCH  14  15
HETATM   15  C   UNL     1     -37.976 -50.314  13.517  1.00  0.00     0.004 C 
HETATM   16  C   UNL     1     -39.271 -50.084  12.696  1.00  0.00     0.006 C 
HETATM   17  C   UNL     1     -38.365 -49.797  11.483  1.00  0.00     0.001 C 
HETATM   18  C   UNL     1     -37.291 -50.665  12.171  1.00  0.00     0.006 C 
ENDBRANCH  14  15
ENDBRANCH  12  14
ENDBRANCH   4  10
BRANCH   1  19
HETATM   19  C   UNL     1     -44.899 -53.464  12.613  1.00  0.00     0.234 C 
BRANCH  19  20
HETATM   20  C   UNL     1     -45.692 -52.302  13.213  1.00  0.00     0.236 C 
HETATM   21  N   UNL     1     -45.559 -52.205  14.582  1.00  0.00    -0.356 N 
HETATM   22  H   UNL     1     -45.074 -52.960  15.070  1.00  0.00     0.162 HD
HETATM   23  O   UNL     1     -46.370 -51.545  12.538  1.00  0.00    -0.272 OA
BRANCH  21  24
HETATM   24  C   UNL     1     -46.258 -51.200  15.374  1.00  0.00     0.076 C 
HETATM   25  C   UNL     1     -47.468 -51.797  16.068  1.00  0.00     0.032 C 
HETATM   26  C   UNL     1     -45.282 -50.587  16.385  1.00  0.00     0.032 C 
ENDBRANCH  21  24
ENDBRANCH  19  20
ENDBRANCH   1  19
TORSDOF 6
ENDMDL
MODEL 4
REMARK VINA RESULT:      -5.9      2.396      7.320
REMARK  6 active torsions:
REMARK  status: ('A' for Active; 'I' for Inactive)
REMARK    1  A    between atoms: C_2  and  N_4 
REMARK       I    between atoms: N_4  and  C_5 
REMARK    2  A    between atoms: C_5  and  C_7 
REMARK    3  A    between atoms: C_7  and  N_8 
REMARK    4  A    between atoms: C_11  and  C_12 
REMARK       I    between atoms: C_12  and  N_14 
REMARK    5  A    between atoms: N_14  and  C_16 
REMARK    6  A    between atoms: C_16  and  C_17 
ROOT
HETATM    1  N   UNL     1     -38.071 -49.208  13.669  1.00  0.00    -0.309 N 
HETATM    2  C   UNL     1     -38.952 -48.705  12.660  1.00  0.00     0.028 A 
HETATM    3  C   UNL     1     -39.311 -49.735  11.628  1.00  0.00     0.069 C 
HETATM    4  C   UNL     1     -39.414 -47.400  12.674  1.00  0.00     0.060 A 
HETATM    5  C   UNL     1     -38.923 -46.569  13.864  1.00  0.00    -0.039 A 
HETATM    6  C   UNL     1     -39.286 -45.129  14.171  1.00  0.00     0.049 C 
HETATM    7  C   UNL     1     -38.095 -47.086  14.782  1.00  0.00     0.082 A 
HETATM    8  C   UNL     1     -37.572 -48.434  14.691  1.00  0.00     0.248 A 
HETATM    9  O   UNL     1     -36.713 -48.793  15.496  1.00  0.00    -0.268 OA
ENDROOT
BRANCH   4  10
HETATM   10  C   UNL     1     -40.428 -46.634  11.702  1.00  0.00     0.255 C 
HETATM   11  O   UNL     1     -39.918 -46.166  10.670  1.00  0.00    -0.267 OA
HETATM   12  N   UNL     1     -41.806 -46.431  11.818  1.00  0.00    -0.352 N 
HETATM   13  C   UNL     1     -42.658 -46.553  12.977  1.00  0.00     0.152 C 
BRANCH  12  14
HETATM   14  C   UNL     1     -42.519 -45.808  10.681  1.00  0.00     0.130 C 
BRANCH  14  15
HETATM   15  C   UNL     1     -43.003 -46.937   9.770  1.00  0.00     0.004 C 
HETATM   16  C   UNL     1     -43.471 -46.556   8.342  1.00  0.00     0.006 C 
HETATM   17  C   UNL     1     -44.558 -47.639   8.487  1.00  0.00     0.001 C 
HETATM   18  C   UNL     1     -44.448 -47.442  10.013  1.00  0.00     0.006 C 
ENDBRANCH  14  15
ENDBRANCH  12  14
ENDBRANCH   4  10
BRANCH   1  19
HETATM   19  C   UNL     1     -37.538 -50.586  13.662  1.00  0.00     0.234 C 
BRANCH  19  20
HETATM   20  C   UNL     1     -38.449 -51.535  14.441  1.00  0.00     0.236 C 
HETATM   21  N   UNL     1     -38.961 -52.552  13.666  1.00  0.00    -0.356 N 
HETATM   22  H   UNL     1     -38.804 -52.512  12.658  1.00  0.00     0.162 HD
HETATM   23  O   UNL     1     -38.690 -51.394  15.629  1.00  0.00    -0.272 OA
BRANCH  21  24
HETATM   24  C   UNL     1     -39.888 -53.551  14.185  1.00  0.00     0.076 C 
HETATM   25  C   UNL     1     -40.872 -53.991  13.118  1.00  0.00     0.032 C 
HETATM   26  C   UNL     1     -39.092 -54.741  14.733  1.00  0.00     0.032 C 
ENDBRANCH  21  24
ENDBRANCH  19  20
ENDBRANCH   1  19
TORSDOF 6
ENDMDL
MODEL 5
REMARK VINA RESULT:      -5.9      3.313      7.507
REMARK  6 active torsions:
REMARK  status: ('A' for Active; 'I' for Inactive)
REMARK    1  A    between atoms: C_2  and  N_4 
REMARK       I    between atoms: N_4  and  C_5 
REMARK    2  A    between atoms: C_5  and  C_7 
REMARK    3  A    between atoms: C_7  and  N_8 
REMARK    4  A    between atoms: C_11  and  C_12 
REMARK       I    between atoms: C_12  and  N_14 
REMARK    5  A    between atoms: N_14  and  C_16 
REMARK    6  A    between atoms: C_16  and  C_17 
ROOT
HETATM    1  N   UNL     1     -43.539 -54.345  14.474  1.00  0.00    -0.309 N 
HETATM    2  C   UNL     1     -43.039 -53.355  13.571  1.00  0.00     0.028 A 
HETATM    3  C   UNL     1     -44.123 -52.675  12.785  1.00  0.00     0.069 C 
HETATM    4  C   UNL     1     -41.688 -53.070  13.468  1.00  0.00     0.060 A 
HETATM    5  C   UNL     1     -40.799 -53.883  14.415  1.00  0.00    -0.039 A 
HETATM    6  C   UNL     1     -39.294 -53.769  14.561  1.00  0.00     0.049 C 
HETATM    7  C   UNL     1     -41.316 -54.803  15.242  1.00  0.00     0.082 A 
HETATM    8  C   UNL     1     -42.728 -55.125  15.265  1.00  0.00     0.248 A 
HETATM    9  O   UNL     1     -43.109 -56.072  15.952  1.00  0.00    -0.268 OA
ENDROOT
BRANCH   4  10
HETATM   10  C   UNL     1     -40.905 -51.991  12.584  1.00  0.00     0.255 C 
HETATM   11  O   UNL     1     -40.574 -52.377  11.451  1.00  0.00    -0.267 OA
HETATM   12  N   UNL     1     -40.557 -50.669  12.878  1.00  0.00    -0.352 N 
HETATM   13  C   UNL     1     -40.502 -49.995  14.153  1.00  0.00     0.152 C 
BRANCH  12  14
HETATM   14  C   UNL     1     -39.960 -49.849  11.801  1.00  0.00     0.130 C 
BRANCH  14  15
HETATM   15  C   UNL     1     -40.679 -48.500  11.799  1.00  0.00     0.004 C 
HETATM   16  C   UNL     1     -41.543 -48.148  10.560  1.00  0.00     0.006 C 
HETATM   17  C   UNL     1     -41.062 -46.694  10.727  1.00  0.00     0.001 C 
HETATM   18  C   UNL     1     -39.816 -47.263  11.438  1.00  0.00     0.006 C 
ENDBRANCH  14  15
ENDBRANCH  12  14
ENDBRANCH   4  10
BRANCH   1  19
HETATM   19  C   UNL     1     -44.972 -54.690  14.583  1.00  0.00     0.234 C 
BRANCH  19  20
HETATM   20  C   UNL     1     -45.611 -54.021  15.800  1.00  0.00     0.236 C 
HETATM   21  N   UNL     1     -45.706 -52.652  15.678  1.00  0.00    -0.356 N 
HETATM   22  H   UNL     1     -45.244 -52.208  14.883  1.00  0.00     0.162 HD
HETATM   23  O   UNL     1     -45.994 -54.648  16.775  1.00  0.00    -0.272 OA
BRANCH  21  24
HETATM   24  C   UNL     1     -46.242 -51.800  16.733  1.00  0.00     0.076 C 
HETATM   25  C   UNL     1     -45.396 -50.553  16.912  1.00  0.00     0.032 C 
HETATM   26  C   UNL     1     -47.696 -51.444  16.403  1.00  0.00     0.032 C 
ENDBRANCH  21  24
ENDBRANCH  19  20
ENDBRANCH   1  19
TORSDOF 6
ENDMDL
MODEL 6
REMARK VINA RESULT:      -5.8      2.143      2.552
REMARK  6 active torsions:
REMARK  status: ('A' for Active; 'I' for Inactive)
REMARK    1  A    between atoms: C_2  and  N_4 
REMARK       I    between atoms: N_4  and  C_5 
REMARK    2  A    between atoms: C_5  and  C_7 
REMARK    3  A    between atoms: C_7  and  N_8 
REMARK    4  A    between atoms: C_11  and  C_12 
REMARK       I    between atoms: C_12  and  N_14 
REMARK    5  A    between atoms: N_14  and  C_16 
REMARK    6  A    between atoms: C_16  and  C_17 
ROOT
HETATM    1  N   UNL     1     -41.097 -45.941  13.025  1.00  0.00    -0.309 N 
HETATM    2  C   UNL     1     -41.085 -47.336  13.343  1.00  0.00     0.028 A 
HETATM    3  C   UNL     1     -42.390 -48.018  13.047  1.00  0.00     0.069 C 
HETATM    4  C   UNL     1     -39.962 -47.961  13.858  1.00  0.00     0.060 A 
HETATM    5  C   UNL     1     -38.749 -47.040  14.026  1.00  0.00    -0.039 A 
HETATM    6  C   UNL     1     -37.375 -47.440  14.527  1.00  0.00     0.049 C 
HETATM    7  C   UNL     1     -38.812 -45.738  13.716  1.00  0.00     0.082 A 
HETATM    8  C   UNL     1     -40.029 -45.104  13.251  1.00  0.00     0.248 A 
HETATM    9  O   UNL     1     -40.047 -43.882  13.115  1.00  0.00    -0.268 OA
ENDROOT
BRANCH   4  10
HETATM   10  C   UNL     1     -39.693 -49.491  14.239  1.00  0.00     0.255 C 
HETATM   11  O   UNL     1     -40.032 -49.816  15.389  1.00  0.00    -0.267 OA
HETATM   12  N   UNL     1     -39.159 -50.530  13.470  1.00  0.00    -0.352 N 
HETATM   13  C   UNL     1     -38.400 -50.469  12.245  1.00  0.00     0.152 C 
BRANCH  12  14
HETATM   14  C   UNL     1     -39.166 -51.895  14.040  1.00  0.00     0.130 C 
BRANCH  14  15
HETATM   15  C   UNL     1     -40.272 -52.681  13.336  1.00  0.00     0.004 C 
HETATM   16  C   UNL     1     -41.664 -52.731  14.018  1.00  0.00     0.006 C 
HETATM   17  C   UNL     1     -41.775 -54.186  13.522  1.00  0.00     0.001 C 
HETATM   18  C   UNL     1     -40.232 -54.222  13.506  1.00  0.00     0.006 C 
ENDBRANCH  14  15
ENDBRANCH  12  14
ENDBRANCH   4  10
BRANCH   1  19
HETATM   19  C   UNL     1     -42.290 -45.242  12.502  1.00  0.00     0.234 C 
BRANCH  19  20
HETATM   20  C   UNL     1     -42.369 -45.346  10.979  1.00  0.00     0.236 C 
HETATM   21  N   UNL     1     -43.494 -46.010  10.539  1.00  0.00    -0.356 N 
HETATM   22  H   UNL     1     -44.082 -46.470  11.236  1.00  0.00     0.162 HD
HETATM   23  O   UNL     1     -41.516 -44.883  10.239  1.00  0.00    -0.272 OA
BRANCH  21  24
HETATM   24  C   UNL     1     -43.759 -46.266   9.128  1.00  0.00     0.076 C 
HETATM   25  C   UNL     1     -43.264 -47.641   8.720  1.00  0.00     0.032 C 
HETATM   26  C   UNL     1     -45.260 -46.112   8.861  1.00  0.00     0.032 C 
ENDBRANCH  21  24
ENDBRANCH  19  20
ENDBRANCH   1  19
TORSDOF 6
ENDMDL
MODEL 7
REMARK VINA RESULT:      -5.7      5.735      9.916
REMARK  6 active torsions:
REMARK  status: ('A' for Active; 'I' for Inactive)
REMARK    1  A    between atoms: C_2  and  N_4 
REMARK       I    between atoms: N_4  and  C_5 
REMARK    2  A    between atoms: C_5  and  C_7 
REMARK    3  A    between atoms: C_7  and  N_8 
REMARK    4  A    between atoms: C_11  and  C_12 
REMARK       I    between atoms: C_12  and  N_14 
REMARK    5  A    between atoms: N_14  and  C_16 
REMARK    6  A    between atoms: C_16  and  C_17 
ROOT
HETATM    1  N   UNL     1     -39.698 -56.108  16.840  1.00  0.00    -0.309 N 
HETATM    2  C   UNL     1     -41.094 -55.819  16.729  1.00  0.00     0.028 A 
HETATM    3  C   UNL     1     -41.902 -56.376  17.866  1.00  0.00     0.069 C 
HETATM    4  C   UNL     1     -41.611 -55.088  15.673  1.00  0.00     0.060 A 
HETATM    5  C   UNL     1     -40.561 -54.603  14.668  1.00  0.00    -0.039 A 
HETATM    6  C   UNL     1     -40.813 -53.754  13.437  1.00  0.00     0.049 C 
HETATM    7  C   UNL     1     -39.263 -54.904  14.814  1.00  0.00     0.082 A 
HETATM    8  C   UNL     1     -38.771 -55.737  15.893  1.00  0.00     0.248 A 
HETATM    9  O   UNL     1     -37.589 -56.079  15.887  1.00  0.00    -0.268 OA
ENDROOT
BRANCH   4  10
HETATM   10  C   UNL     1     -43.103 -54.602  15.361  1.00  0.00     0.255 C 
HETATM   11  O   UNL     1     -43.831 -55.448  14.817  1.00  0.00    -0.267 OA
HETATM   12  N   UNL     1     -43.725 -53.379  15.630  1.00  0.00    -0.352 N 
HETATM   13  C   UNL     1     -43.139 -52.101  15.957  1.00  0.00     0.152 C 
BRANCH  12  14
HETATM   14  C   UNL     1     -45.175 -53.260  15.362  1.00  0.00     0.130 C 
BRANCH  14  15
HETATM   15  C   UNL     1     -45.355 -52.212  14.264  1.00  0.00     0.004 C 
HETATM   16  C   UNL     1     -46.760 -51.574  14.102  1.00  0.00     0.006 C 
HETATM   17  C   UNL     1     -46.509 -51.583  12.582  1.00  0.00     0.001 C 
HETATM   18  C   UNL     1     -45.532 -52.753  12.822  1.00  0.00     0.006 C 
ENDBRANCH  14  15
ENDBRANCH  12  14
ENDBRANCH   4  10
BRANCH   1  19
HETATM   19  C   UNL     1     -39.124 -56.912  17.939  1.00  0.00     0.234 C 
BRANCH  19  20
HETATM   20  C   UNL     1     -38.368 -56.029  18.933  1.00  0.00     0.236 C 
HETATM   21  N   UNL     1     -37.005 -56.237  18.914  1.00  0.00    -0.356 N 
HETATM   22  H   UNL     1     -36.648 -57.018  18.363  1.00  0.00     0.162 HD
HETATM   23  O   UNL     1     -38.926 -55.226  19.663  1.00  0.00    -0.272 OA
BRANCH  21  24
HETATM   24  C   UNL     1     -36.088 -55.539  19.807  1.00  0.00     0.076 C 
HETATM   25  C   UNL     1     -35.098 -56.502  20.435  1.00  0.00     0.032 C 
HETATM   26  C   UNL     1     -35.370 -54.432  19.026  1.00  0.00     0.032 C 
ENDBRANCH  21  24
ENDBRANCH  19  20
ENDBRANCH   1  19
TORSDOF 6
ENDMDL
MODEL 8
REMARK VINA RESULT:      -5.6      3.022      7.266
REMARK  6 active torsions:
REMARK  status: ('A' for Active; 'I' for Inactive)
REMARK    1  A    between atoms: C_2  and  N_4 
REMARK       I    between atoms: N_4  and  C_5 
REMARK    2  A    between atoms: C_5  and  C_7 
REMARK    3  A    between atoms: C_7  and  N_8 
REMARK    4  A    between atoms: C_11  and  C_12 
REMARK       I    between atoms: C_12  and  N_14 
REMARK    5  A    between atoms: N_14  and  C_16 
REMARK    6  A    between atoms: C_16  and  C_17 
ROOT
HETATM    1  N   UNL     1     -40.245 -50.429  12.497  1.00  0.00    -0.309 N 
HETATM    2  C   UNL     1     -40.680 -49.070  12.396  1.00  0.00     0.028 A 
HETATM    3  C   UNL     1     -42.014 -48.929  11.721  1.00  0.00     0.069 C 
HETATM    4  C   UNL     1     -39.927 -48.020  12.893  1.00  0.00     0.060 A 
HETATM    5  C   UNL     1     -38.621 -48.446  13.571  1.00  0.00    -0.039 A 
HETATM    6  C   UNL     1     -37.611 -47.533  14.240  1.00  0.00     0.049 C 
HETATM    7  C   UNL     1     -38.256 -49.733  13.637  1.00  0.00     0.082 A 
HETATM    8  C   UNL     1     -39.035 -50.798  13.038  1.00  0.00     0.248 A 
HETATM    9  O   UNL     1     -38.570 -51.937  13.022  1.00  0.00    -0.268 OA
ENDROOT
BRANCH   4  10
HETATM   10  C   UNL     1     -40.220 -46.448  12.943  1.00  0.00     0.255 C 
HETATM   11  O   UNL     1     -40.640 -46.024  14.032  1.00  0.00    -0.267 OA
HETATM   12  N   UNL     1     -40.052 -45.470  11.958  1.00  0.00    -0.352 N 
HETATM   13  C   UNL     1     -39.885 -45.620  10.532  1.00  0.00     0.152 C 
BRANCH  12  14
HETATM   14  C   UNL     1     -40.265 -44.055  12.336  1.00  0.00     0.130 C 
BRANCH  14  15
HETATM   15  C   UNL     1     -41.557 -43.591  11.666  1.00  0.00     0.004 C 
HETATM   16  C   UNL     1     -41.625 -42.120  11.177  1.00  0.00     0.006 C 
HETATM   17  C   UNL     1     -43.102 -42.118  11.617  1.00  0.00     0.001 C 
HETATM   18  C   UNL     1     -42.733 -43.237  12.614  1.00  0.00     0.006 C 
ENDBRANCH  14  15
ENDBRANCH  12  14
ENDBRANCH   4  10
BRANCH   1  19
HETATM   19  C   UNL     1     -41.014 -51.567  11.949  1.00  0.00     0.234 C 
BRANCH  19  20
HETATM   20  C   UNL     1     -42.029 -52.088  12.966  1.00  0.00     0.236 C 
HETATM   21  N   UNL     1     -43.327 -52.052  12.502  1.00  0.00    -0.356 N 
HETATM   22  H   UNL     1     -43.505 -51.580  11.615  1.00  0.00     0.162 HD
HETATM   23  O   UNL     1     -41.711 -52.492  14.073  1.00  0.00    -0.272 OA
BRANCH  21  24
HETATM   24  C   UNL     1     -44.468 -52.459  13.314  1.00  0.00     0.076 C 
HETATM   25  C   UNL     1     -45.649 -51.532  13.101  1.00  0.00     0.032 C 
HETATM   26  C   UNL     1     -44.832 -53.911  12.980  1.00  0.00     0.032 C 
ENDBRANCH  21  24
ENDBRANCH  19  20
ENDBRANCH   1  19
TORSDOF 6
ENDMDL
MODEL 9
REMARK VINA RESULT:      -5.5      3.934      6.727
REMARK  6 active torsions:
REMARK  status: ('A' for Active; 'I' for Inactive)
REMARK    1  A    between atoms: C_2  and  N_4 
REMARK       I    between atoms: N_4  and  C_5 
REMARK    2  A    between atoms: C_5  and  C_7 
REMARK    3  A    between atoms: C_7  and  N_8 
REMARK    4  A    between atoms: C_11  and  C_12 
REMARK       I    between atoms: C_12  and  N_14 
REMARK    5  A    between atoms: N_14  and  C_16 
REMARK    6  A    between atoms: C_16  and  C_17 
ROOT
HETATM    1  N   UNL     1     -40.605 -52.713  14.615  1.00  0.00    -0.309 N 
HETATM    2  C   UNL     1     -41.826 -52.153  15.107  1.00  0.00     0.028 A 
HETATM    3  C   UNL     1     -41.612 -51.143  16.198  1.00  0.00     0.069 C 
HETATM    4  C   UNL     1     -43.059 -52.521  14.597  1.00  0.00     0.060 A 
HETATM    5  C   UNL     1     -42.991 -53.545  13.460  1.00  0.00    -0.039 A 
HETATM    6  C   UNL     1     -44.164 -54.108  12.680  1.00  0.00     0.049 C 
HETATM    7  C   UNL     1     -41.821 -54.042  13.036  1.00  0.00     0.082 A 
HETATM    8  C   UNL     1     -40.556 -53.689  13.647  1.00  0.00     0.248 A 
HETATM    9  O   UNL     1     -39.540 -54.286  13.295  1.00  0.00    -0.268 OA
ENDROOT
BRANCH   4  10
HETATM   10  C   UNL     1     -44.535 -52.008  14.943  1.00  0.00     0.255 C 
HETATM   11  O   UNL     1     -44.824 -50.888  14.490  1.00  0.00    -0.267 OA
HETATM   12  N   UNL     1     -45.562 -52.636  15.655  1.00  0.00    -0.352 N 
HETATM   13  C   UNL     1     -45.500 -53.761  16.556  1.00  0.00     0.152 C 
BRANCH  12  14
HETATM   14  C   UNL     1     -46.888 -51.980  15.690  1.00  0.00     0.130 C 
BRANCH  14  15
HETATM   15  C   UNL     1     -47.144 -51.541  17.131  1.00  0.00     0.004 C 
HETATM   16  C   UNL     1     -48.437 -50.733  17.417  1.00  0.00     0.006 C 
HETATM   17  C   UNL     1     -47.616 -49.917  18.435  1.00  0.00     0.001 C 
HETATM   18  C   UNL     1     -46.363 -50.292  17.616  1.00  0.00     0.006 C 
ENDBRANCH  14  15
ENDBRANCH  12  14
ENDBRANCH   4  10
BRANCH   1  19
HETATM   19  C   UNL     1     -39.277 -52.361  15.162  1.00  0.00     0.234 C 
BRANCH  19  20
HETATM   20  C   UNL     1     -38.750 -51.066  14.543  1.00  0.00     0.236 C 
HETATM   21  N   UNL     1     -38.950 -50.997  13.181  1.00  0.00    -0.356 N 
HETATM   22  H   UNL     1     -39.294 -51.831  12.704  1.00  0.00     0.162 HD
HETATM   23  O   UNL     1     -38.209 -50.191  15.200  1.00  0.00    -0.272 OA
BRANCH  21  24
HETATM   24  C   UNL     1     -38.491 -49.873  12.372  1.00  0.00     0.076 C 
HETATM   25  C   UNL     1     -37.367 -50.292  11.443  1.00  0.00     0.032 C 
HETATM   26  C   UNL     1     -39.677 -49.299  11.589  1.00  0.00     0.032 C 
ENDBRANCH  21  24
ENDBRANCH  19  20
ENDBRANCH   1  19
TORSDOF 6
ENDMDL
