MODEL 1
REMARK VINA RESULT:      -6.1      0.000      0.000
REMARK  3 active torsions:
REMARK  status: ('A' for Active; 'I' for Inactive)
REMARK    1  A    between atoms: C_5  and  O_6 
REMARK    2  A    between atoms: C_5  and  C_7 
REMARK    3  A    between atoms: C_7  and  N_8 
ROOT
HETATM    1  N   UNL     1     -42.178 -51.189  12.617  1.00  0.00    -0.305 N 
HETATM    2  C   UNL     1     -43.459 -50.884  13.034  1.00  0.00     0.125 C 
HETATM    3  C   UNL     1     -44.447 -51.781  13.038  1.00  0.00     0.117 C 
HETATM    4 CL   UNL     1     -46.030 -51.389  13.569  1.00  0.00    -0.077 Cl
HETATM    5  C   UNL     1     -44.139 -53.165  12.610  1.00  0.00     0.272 C 
HETATM    6  O   UNL     1     -44.926 -54.098  12.741  1.00  0.00    -0.266 OA
HETATM    7  N   UNL     1     -42.889 -53.349  12.079  1.00  0.00    -0.274 N 
HETATM    8  C   UNL     1     -41.856 -52.444  12.105  1.00  0.00     0.329 C 
HETATM    9  O   UNL     1     -40.728 -52.766  11.738  1.00  0.00    -0.246 OA
HETATM   10  H   UNL     1     -42.655 -54.288  11.794  1.00  0.00     0.173 HD
ENDROOT
BRANCH   1  11
HETATM   11  C   UNL     1     -41.107 -50.192  12.770  1.00  0.00     0.170 C 
BRANCH  11  12
HETATM   12  C   UNL     1     -40.818 -49.313  11.518  1.00  0.00     0.074 C 
HETATM   13  C   UNL     1     -39.636 -48.363  11.801  1.00  0.00     0.040 C 
HETATM   14  C   UNL     1     -39.983 -47.260  12.806  1.00  0.00     0.007 C 
HETATM   15  C   UNL     1     -41.233 -46.459  12.413  1.00  0.00    -0.019 C 
HETATM   16  C   UNL     1     -40.939 -45.484  11.270  1.00  0.00     0.010 C 
HETATM   17  C   UNL     1     -42.405 -47.385  12.066  1.00  0.00     0.007 C 
HETATM   18  C   UNL     1     -42.026 -48.476  11.063  1.00  0.00     0.040 C 
BRANCH  12  19
HETATM   19  O   UNL     1     -40.443 -50.141  10.408  1.00  0.00    -0.388 OA
HETATM   20  H   UNL     1     -39.477 -50.285  10.435  1.00  0.00     0.210 HD
ENDBRANCH  12  19
ENDBRANCH  11  12
ENDBRANCH   1  11
TORSDOF 3
ENDMDL
MODEL 2
REMARK VINA RESULT:      -6.0      3.041      5.502
REMARK  3 active torsions:
REMARK  status: ('A' for Active; 'I' for Inactive)
REMARK    1  A    between atoms: C_5  and  O_6 
REMARK    2  A    between atoms: C_5  and  C_7 
REMARK    3  A    between atoms: C_7  and  N_8 
ROOT
HETATM    1  N   UNL     1     -41.684 -47.842  11.413  1.00  0.00    -0.305 N 
HETATM    2  C   UNL     1     -43.012 -48.047  11.093  1.00  0.00     0.125 C 
HETATM    3  C   UNL     1     -43.641 -47.342  10.151  1.00  0.00     0.117 C 
HETATM    4 CL   UNL     1     -45.288 -47.616   9.757  1.00  0.00    -0.077 Cl
HETATM    5  C   UNL     1     -42.868 -46.326   9.401  1.00  0.00     0.272 C 
HETATM    6  O   UNL     1     -43.302 -45.752   8.407  1.00  0.00    -0.266 OA
HETATM    7  N   UNL     1     -41.603 -46.086   9.874  1.00  0.00    -0.274 N 
HETATM    8  C   UNL     1     -40.936 -46.831  10.815  1.00  0.00     0.329 C 
HETATM    9  O   UNL     1     -39.749 -46.622  11.056  1.00  0.00    -0.246 OA
HETATM   10  H   UNL     1     -41.055 -45.408   9.368  1.00  0.00     0.173 HD
ENDROOT
BRANCH   1  11
HETATM   11  C   UNL     1     -41.017 -48.748  12.362  1.00  0.00     0.170 C 
BRANCH  11  12
HETATM   12  C   UNL     1     -40.539 -50.109  11.775  1.00  0.00     0.074 C 
HETATM   13  C   UNL     1     -41.562 -51.215  12.106  1.00  0.00     0.040 C 
HETATM   14  C   UNL     1     -41.587 -51.580  13.594  1.00  0.00     0.007 C 
HETATM   15  C   UNL     1     -40.202 -51.947  14.147  1.00  0.00    -0.019 C 
HETATM   16  C   UNL     1     -39.767 -53.343  13.694  1.00  0.00     0.010 C 
HETATM   17  C   UNL     1     -39.154 -50.890  13.776  1.00  0.00     0.007 C 
HETATM   18  C   UNL     1     -39.156 -50.546  12.286  1.00  0.00     0.040 C 
BRANCH  12  19
HETATM   19  O   UNL     1     -40.449 -50.026  10.344  1.00  0.00    -0.388 OA
HETATM   20  H   UNL     1     -39.536 -49.777  10.101  1.00  0.00     0.210 HD
ENDBRANCH  12  19
ENDBRANCH  11  12
ENDBRANCH   1  11
TORSDOF 3
ENDMDL
MODEL 3
REMARK VINA RESULT:      -5.6      3.683      6.277
REMARK  3 active torsions:
REMARK  status: ('A' for Active; 'I' for Inactive)
REMARK    1  A    between atoms: C_5  and  O_6 
REMARK    2  A    between atoms: C_5  and  C_7 
REMARK    3  A    between atoms: C_7  and  N_8 
ROOT
HETATM    1  N   UNL     1     -41.043 -47.592  11.622  1.00  0.00    -0.305 N 
HETATM    2  C   UNL     1     -40.203 -46.763  12.339  1.00  0.00     0.125 C 
HETATM    3  C   UNL     1     -39.911 -45.522  11.947  1.00  0.00     0.117 C 
HETATM    4 CL   UNL     1     -38.874 -44.501  12.854  1.00  0.00    -0.077 Cl
HETATM    5  C   UNL     1     -40.547 -45.008  10.711  1.00  0.00     0.272 C 
HETATM    6  O   UNL     1     -40.483 -43.834  10.363  1.00  0.00    -0.266 OA
HETATM    7  N   UNL     1     -41.250 -45.936   9.987  1.00  0.00    -0.274 N 
HETATM    8  C   UNL     1     -41.586 -47.202  10.400  1.00  0.00     0.329 C 
HETATM    9  O   UNL     1     -42.351 -47.898   9.736  1.00  0.00    -0.246 OA
HETATM   10  H   UNL     1     -41.702 -45.603   9.149  1.00  0.00     0.173 HD
ENDROOT
BRANCH   1  11
HETATM   11  C   UNL     1     -41.430 -48.896  12.183  1.00  0.00     0.170 C 
BRANCH  11  12
HETATM   12  C   UNL     1     -40.543 -50.103  11.761  1.00  0.00     0.074 C 
HETATM   13  C   UNL     1     -41.250 -51.428  12.117  1.00  0.00     0.040 C 
HETATM   14  C   UNL     1     -41.317 -51.683  13.626  1.00  0.00     0.007 C 
HETATM   15  C   UNL     1     -39.944 -51.607  14.311  1.00  0.00    -0.019 C 
HETATM   16  C   UNL     1     -39.101 -52.851  14.021  1.00  0.00     0.010 C 
HETATM   17  C   UNL     1     -39.196 -50.326  13.921  1.00  0.00     0.007 C 
HETATM   18  C   UNL     1     -39.148 -50.098  12.410  1.00  0.00     0.040 C 
BRANCH  12  19
HETATM   19  O   UNL     1     -40.342 -50.096  10.340  1.00  0.00    -0.388 OA
HETATM   20  H   UNL     1     -40.952 -50.743   9.933  1.00  0.00     0.210 HD
ENDBRANCH  12  19
ENDBRANCH  11  12
ENDBRANCH   1  11
TORSDOF 3
ENDMDL
MODEL 4
REMARK VINA RESULT:      -5.5      2.505      5.702
REMARK  3 active torsions:
REMARK  status: ('A' for Active; 'I' for Inactive)
REMARK    1  A    between atoms: C_5  and  O_6 
REMARK    2  A    between atoms: C_5  and  C_7 
REMARK    3  A    between atoms: C_7  and  N_8 
ROOT
HETATM    1  N   UNL     1     -40.189 -50.542  12.990  1.00  0.00    -0.305 N 
HETATM    2  C   UNL     1     -41.126 -49.565  13.263  1.00  0.00     0.125 C 
HETATM    3  C   UNL     1     -41.081 -48.351  12.711  1.00  0.00     0.117 C 
HETATM    4 CL   UNL     1     -42.258 -47.151  13.052  1.00  0.00    -0.077 Cl
HETATM    5  C   UNL     1     -39.999 -48.061  11.741  1.00  0.00     0.272 C 
HETATM    6  O   UNL     1     -39.970 -47.045  11.053  1.00  0.00    -0.266 OA
HETATM    7  N   UNL     1     -39.034 -49.029  11.636  1.00  0.00    -0.274 N 
HETATM    8  C   UNL     1     -39.092 -50.293  12.169  1.00  0.00     0.329 C 
HETATM    9  O   UNL     1     -38.243 -51.135  11.885  1.00  0.00    -0.246 OA
HETATM   10  H   UNL     1     -38.296 -48.857  10.970  1.00  0.00     0.173 HD
ENDROOT
BRANCH   1  11
HETATM   11  C   UNL     1     -40.379 -51.899  13.525  1.00  0.00     0.170 C 
BRANCH  11  12
HETATM   12  C   UNL     1     -41.191 -52.874  12.622  1.00  0.00     0.074 C 
HETATM   13  C   UNL     1     -42.582 -52.279  12.320  1.00  0.00     0.040 C 
HETATM   14  C   UNL     1     -43.499 -52.252  13.547  1.00  0.00     0.007 C 
HETATM   15  C   UNL     1     -43.638 -53.623  14.225  1.00  0.00    -0.019 C 
HETATM   16  C   UNL     1     -44.546 -54.558  13.423  1.00  0.00     0.010 C 
HETATM   17  C   UNL     1     -42.267 -54.263  14.478  1.00  0.00     0.007 C 
HETATM   18  C   UNL     1     -41.374 -54.272  13.236  1.00  0.00     0.040 C 
BRANCH  12  19
HETATM   19  O   UNL     1     -40.523 -53.056  11.364  1.00  0.00    -0.388 OA
HETATM   20  H   UNL     1     -39.911 -52.307  11.222  1.00  0.00     0.210 HD
ENDBRANCH  12  19
ENDBRANCH  11  12
ENDBRANCH   1  11
TORSDOF 3
ENDMDL
MODEL 5
REMARK VINA RESULT:      -5.5      5.052      6.519
REMARK  3 active torsions:
REMARK  status: ('A' for Active; 'I' for Inactive)
REMARK    1  A    between atoms: C_5  and  O_6 
REMARK    2  A    between atoms: C_5  and  C_7 
REMARK    3  A    between atoms: C_7  and  N_8 
ROOT
HETATM    1  N   UNL     1     -42.660 -54.047  15.976  1.00  0.00    -0.305 N 
HETATM    2  C   UNL     1     -41.531 -53.753  15.236  1.00  0.00     0.125 C 
HETATM    3  C   UNL     1     -40.409 -54.469  15.321  1.00  0.00     0.117 C 
HETATM    4 CL   UNL     1     -39.019 -54.098  14.387  1.00  0.00    -0.077 Cl
HETATM    5  C   UNL     1     -40.394 -55.645  16.222  1.00  0.00     0.272 C 
HETATM    6  O   UNL     1     -39.480 -56.463  16.241  1.00  0.00    -0.266 OA
HETATM    7  N   UNL     1     -41.498 -55.783  17.023  1.00  0.00    -0.274 N 
HETATM    8  C   UNL     1     -42.670 -55.075  16.915  1.00  0.00     0.329 C 
HETATM    9  O   UNL     1     -43.654 -55.383  17.584  1.00  0.00    -0.246 OA
HETATM   10  H   UNL     1     -41.513 -56.585  17.633  1.00  0.00     0.173 HD
ENDROOT
BRANCH   1  11
HETATM   11  C   UNL     1     -43.904 -53.302  15.729  1.00  0.00     0.170 C 
BRANCH  11  12
HETATM   12  C   UNL     1     -44.805 -53.851  14.584  1.00  0.00     0.074 C 
HETATM   13  C   UNL     1     -44.295 -53.340  13.220  1.00  0.00     0.040 C 
HETATM   14  C   UNL     1     -44.525 -51.839  13.020  1.00  0.00     0.007 C 
HETATM   15  C   UNL     1     -45.986 -51.419  13.238  1.00  0.00    -0.019 C 
HETATM   16  C   UNL     1     -46.870 -51.828  12.058  1.00  0.00     0.010 C 
HETATM   17  C   UNL     1     -46.535 -51.969  14.561  1.00  0.00     0.007 C 
HETATM   18  C   UNL     1     -46.288 -53.469  14.731  1.00  0.00     0.040 C 
BRANCH  12  19
HETATM   19  O   UNL     1     -44.745 -55.285  14.551  1.00  0.00    -0.388 OA
HETATM   20  H   UNL     1     -45.185 -55.599  13.737  1.00  0.00     0.210 HD
ENDBRANCH  12  19
ENDBRANCH  11  12
ENDBRANCH   1  11
TORSDOF 3
ENDMDL
MODEL 6
REMARK VINA RESULT:      -5.4      3.586      5.973
REMARK  3 active torsions:
REMARK  status: ('A' for Active; 'I' for Inactive)
REMARK    1  A    between atoms: C_5  and  O_6 
REMARK    2  A    between atoms: C_5  and  C_7 
REMARK    3  A    between atoms: C_7  and  N_8 
ROOT
HETATM    1  N   UNL     1     -42.139 -52.797  12.851  1.00  0.00    -0.305 N 
HETATM    2  C   UNL     1     -41.303 -53.809  13.281  1.00  0.00     0.125 C 
HETATM    3  C   UNL     1     -40.039 -53.591  13.648  1.00  0.00     0.117 C 
HETATM    4 CL   UNL     1     -39.017 -54.857  14.190  1.00  0.00    -0.077 Cl
HETATM    5  C   UNL     1     -39.532 -52.199  13.624  1.00  0.00     0.272 C 
HETATM    6  O   UNL     1     -38.451 -51.871  14.104  1.00  0.00    -0.266 OA
HETATM    7  N   UNL     1     -40.374 -51.280  13.053  1.00  0.00    -0.274 N 
HETATM    8  C   UNL     1     -41.686 -51.487  12.708  1.00  0.00     0.329 C 
HETATM    9  O   UNL     1     -42.397 -50.552  12.345  1.00  0.00    -0.246 OA
HETATM   10  H   UNL     1     -40.052 -50.324  13.040  1.00  0.00     0.173 HD
ENDROOT
BRANCH   1  11
HETATM   11  C   UNL     1     -43.558 -53.087  12.595  1.00  0.00     0.170 C 
BRANCH  11  12
HETATM   12  C   UNL     1     -44.393 -53.524  13.834  1.00  0.00     0.074 C 
HETATM   13  C   UNL     1     -45.890 -53.590  13.466  1.00  0.00     0.040 C 
HETATM   14  C   UNL     1     -46.507 -52.209  13.224  1.00  0.00     0.007 C 
HETATM   15  C   UNL     1     -46.285 -51.237  14.392  1.00  0.00    -0.019 C 
HETATM   16  C   UNL     1     -47.196 -51.563  15.577  1.00  0.00     0.010 C 
HETATM   17  C   UNL     1     -44.811 -51.202  14.817  1.00  0.00     0.007 C 
HETATM   18  C   UNL     1     -44.224 -52.594  15.048  1.00  0.00     0.040 C 
BRANCH  12  19
HETATM   19  O   UNL     1     -44.000 -54.838  14.257  1.00  0.00    -0.388 OA
HETATM   20  H   UNL     1     -43.103 -55.023  13.915  1.00  0.00     0.210 HD
ENDBRANCH  12  19
ENDBRANCH  11  12
ENDBRANCH   1  11
TORSDOF 3
ENDMDL
MODEL 7
REMARK VINA RESULT:      -5.4      3.451      6.154
REMARK  3 active torsions:
REMARK  status: ('A' for Active; 'I' for Inactive)
REMARK    1  A    between atoms: C_5  and  O_6 
REMARK    2  A    between atoms: C_5  and  C_7 
REMARK    3  A    between atoms: C_7  and  N_8 
ROOT
HETATM    1  N   UNL     1     -42.643 -53.257  13.689  1.00  0.00    -0.305 N 
HETATM    2  C   UNL     1     -42.514 -52.116  12.922  1.00  0.00     0.125 C 
HETATM    3  C   UNL     1     -41.331 -51.559  12.656  1.00  0.00     0.117 C 
HETATM    4 CL   UNL     1     -41.186 -50.148  11.692  1.00  0.00    -0.077 Cl
HETATM    5  C   UNL     1     -40.111 -52.217  13.179  1.00  0.00     0.272 C 
HETATM    6  O   UNL     1     -38.977 -51.887  12.848  1.00  0.00    -0.266 OA
HETATM    7  N   UNL     1     -40.334 -53.257  14.045  1.00  0.00    -0.274 N 
HETATM    8  C   UNL     1     -41.542 -53.860  14.294  1.00  0.00     0.329 C 
HETATM    9  O   UNL     1     -41.607 -54.884  14.970  1.00  0.00    -0.246 OA
HETATM   10  H   UNL     1     -39.516 -53.728  14.401  1.00  0.00     0.173 HD
ENDROOT
BRANCH   1  11
HETATM   11  C   UNL     1     -43.962 -53.896  13.826  1.00  0.00     0.170 C 
BRANCH  11  12
HETATM   12  C   UNL     1     -44.642 -53.749  15.219  1.00  0.00     0.074 C 
HETATM   13  C   UNL     1     -46.153 -54.038  15.102  1.00  0.00     0.040 C 
HETATM   14  C   UNL     1     -46.912 -52.950  14.337  1.00  0.00     0.007 C 
HETATM   15  C   UNL     1     -46.679 -51.542  14.903  1.00  0.00    -0.019 C 
HETATM   16  C   UNL     1     -47.450 -51.324  16.207  1.00  0.00     0.010 C 
HETATM   17  C   UNL     1     -45.183 -51.254  15.087  1.00  0.00     0.007 C 
HETATM   18  C   UNL     1     -44.453 -52.359  15.851  1.00  0.00     0.040 C 
BRANCH  12  19
HETATM   19  O   UNL     1     -44.095 -54.704  16.140  1.00  0.00    -0.388 OA
HETATM   20  H   UNL     1     -44.517 -55.571  15.981  1.00  0.00     0.210 HD
ENDBRANCH  12  19
ENDBRANCH  11  12
ENDBRANCH   1  11
TORSDOF 3
ENDMDL
MODEL 8
REMARK VINA RESULT:      -5.4      2.665      5.779
REMARK  3 active torsions:
REMARK  status: ('A' for Active; 'I' for Inactive)
REMARK    1  A    between atoms: C_5  and  O_6 
REMARK    2  A    between atoms: C_5  and  C_7 
REMARK    3  A    between atoms: C_7  and  N_8 
ROOT
HETATM    1  N   UNL     1     -41.489 -51.334  12.305  1.00  0.00    -0.305 N 
HETATM    2  C   UNL     1     -41.598 -50.006  11.941  1.00  0.00     0.125 C 
HETATM    3  C   UNL     1     -40.535 -49.246  11.670  1.00  0.00     0.117 C 
HETATM    4 CL   UNL     1     -40.688 -47.601  11.208  1.00  0.00    -0.077 Cl
HETATM    5  C   UNL     1     -39.192 -49.868  11.732  1.00  0.00     0.272 C 
HETATM    6  O   UNL     1     -38.175 -49.308  11.335  1.00  0.00    -0.266 OA
HETATM    7  N   UNL     1     -39.161 -51.142  12.237  1.00  0.00    -0.274 N 
HETATM    8  C   UNL     1     -40.249 -51.944  12.482  1.00  0.00     0.329 C 
HETATM    9  O   UNL     1     -40.104 -53.125  12.789  1.00  0.00    -0.246 OA
HETATM   10  H   UNL     1     -38.258 -51.589  12.274  1.00  0.00     0.173 HD
ENDROOT
BRANCH   1  11
HETATM   11  C   UNL     1     -42.705 -52.149  12.453  1.00  0.00     0.170 C 
BRANCH  11  12
HETATM   12  C   UNL     1     -43.317 -52.196  13.884  1.00  0.00     0.074 C 
HETATM   13  C   UNL     1     -43.954 -53.578  14.140  1.00  0.00     0.040 C 
HETATM   14  C   UNL     1     -45.225 -53.811  13.318  1.00  0.00     0.007 C 
HETATM   15  C   UNL     1     -46.269 -52.698  13.492  1.00  0.00    -0.019 C 
HETATM   16  C   UNL     1     -46.984 -52.805  14.841  1.00  0.00     0.010 C 
HETATM   17  C   UNL     1     -45.643 -51.311  13.303  1.00  0.00     0.007 C 
HETATM   18  C   UNL     1     -44.376 -51.110  14.136  1.00  0.00     0.040 C 
BRANCH  12  19
HETATM   19  O   UNL     1     -42.288 -52.012  14.868  1.00  0.00    -0.388 OA
HETATM   20  H   UNL     1     -42.566 -51.306  15.484  1.00  0.00     0.210 HD
ENDBRANCH  12  19
ENDBRANCH  11  12
ENDBRANCH   1  11
TORSDOF 3
ENDMDL
MODEL 9
REMARK VINA RESULT:      -5.4      2.233      2.822
REMARK  3 active torsions:
REMARK  status: ('A' for Active; 'I' for Inactive)
REMARK    1  A    between atoms: C_5  and  O_6 
REMARK    2  A    between atoms: C_5  and  C_7 
REMARK    3  A    between atoms: C_7  and  N_8 
ROOT
HETATM    1  N   UNL     1     -41.249 -52.200  13.606  1.00  0.00    -0.305 N 
HETATM    2  C   UNL     1     -42.437 -51.498  13.658  1.00  0.00     0.125 C 
HETATM    3  C   UNL     1     -43.587 -51.997  13.202  1.00  0.00     0.117 C 
HETATM    4 CL   UNL     1     -45.057 -51.117  13.284  1.00  0.00    -0.077 Cl
HETATM    5  C   UNL     1     -43.586 -53.372  12.651  1.00  0.00     0.272 C 
HETATM    6  O   UNL     1     -44.613 -53.982  12.369  1.00  0.00    -0.266 OA
HETATM    7  N   UNL     1     -42.348 -53.943  12.504  1.00  0.00    -0.274 N 
HETATM    8  C   UNL     1     -41.166 -53.454  13.004  1.00  0.00     0.329 C 
HETATM    9  O   UNL     1     -40.136 -54.121  12.949  1.00  0.00    -0.246 OA
HETATM   10  H   UNL     1     -42.327 -54.884  12.144  1.00  0.00     0.173 HD
ENDROOT
BRANCH   1  11
HETATM   11  C   UNL     1     -40.048 -51.646  14.253  1.00  0.00     0.170 C 
BRANCH  11  12
HETATM   12  C   UNL     1     -39.149 -50.749  13.352  1.00  0.00     0.074 C 
HETATM   13  C   UNL     1     -37.702 -50.745  13.889  1.00  0.00     0.040 C 
HETATM   14  C   UNL     1     -37.558 -49.992  15.215  1.00  0.00     0.007 C 
HETATM   15  C   UNL     1     -38.113 -48.561  15.158  1.00  0.00    -0.019 C 
HETATM   16  C   UNL     1     -37.176 -47.624  14.392  1.00  0.00     0.010 C 
HETATM   17  C   UNL     1     -39.529 -48.533  14.569  1.00  0.00     0.007 C 
HETATM   18  C   UNL     1     -39.641 -49.295  13.248  1.00  0.00     0.040 C 
BRANCH  12  19
HETATM   19  O   UNL     1     -39.107 -51.272  12.016  1.00  0.00    -0.388 OA
HETATM   20  H   UNL     1     -39.990 -51.624  11.789  1.00  0.00     0.210 HD
ENDBRANCH  12  19
ENDBRANCH  11  12
ENDBRANCH   1  11
TORSDOF 3
ENDMDL
