MODEL 1
REMARK VINA RESULT:      -5.3      0.000      0.000
REMARK  4 active torsions:
REMARK  status: ('A' for Active; 'I' for Inactive)
REMARK    1  A    between atoms: C_5  and  C_6 
REMARK    2  A    between atoms: C_6  and  C_7 
REMARK       I    between atoms: C_7  and  N_9 
REMARK    3  A    between atoms: N_9  and  C_10 
REMARK    4  A    between atoms: C_10  and  C_11 
ROOT
HETATM    1  C   UNL     1     -41.424 -50.354  11.833  1.00  0.00     0.223 C 
HETATM    2  O   UNL     1     -42.341 -50.050  12.595  1.00  0.00    -0.273 OA
HETATM    3  N   UNL     1     -41.154 -51.668  11.517  1.00  0.00    -0.358 N 
HETATM    4  H   UNL     1     -40.263 -51.873  11.063  1.00  0.00     0.162 HD
ENDROOT
BRANCH   1   5
HETATM    5  C   UNL     1     -40.631 -49.273  11.129  1.00  0.00     0.160 C 
BRANCH   5   6
HETATM    6  C   UNL     1     -41.422 -48.097  10.664  1.00  0.00     0.025 A 
HETATM    7  N   UNL     1     -42.598 -48.313   9.960  1.00  0.00    -0.357 N 
HETATM    8  C   UNL     1     -43.191 -47.168   9.703  1.00  0.00     0.047 A 
ATOM      9  HN  UNL     1     -42.952 -49.229   9.682  1.00  0.00     0.166 HD
HETATM   10  C   UNL     1     -44.488 -47.034   8.989  1.00  0.00     0.076 C 
HETATM   11  S   UNL     1     -42.369 -45.768  10.264  1.00  0.00    -0.087 SA
HETATM   12  C   UNL     1     -41.138 -46.766  10.912  1.00  0.00     0.077 A 
ENDBRANCH   5   6
ENDBRANCH   1   5
BRANCH   3  13
HETATM   13  C   UNL     1     -41.855 -52.727  12.218  1.00  0.00     0.154 C 
BRANCH  13  14
HETATM   14  C   UNL     1     -40.948 -53.794  12.826  1.00  0.00     0.139 C 
HETATM   15  C   UNL     1     -41.504 -54.325  14.144  1.00  0.00     0.035 C 
HETATM   16  C   UNL     1     -40.295 -54.515  15.033  1.00  0.00     0.029 C 
HETATM   17  C   UNL     1     -39.119 -54.108  14.173  1.00  0.00     0.168 C 
HETATM   18  O   UNL     1     -39.652 -53.260  13.151  1.00  0.00    -0.384 OA
ENDBRANCH  13  14
ENDBRANCH   3  13
TORSDOF 4
ENDMDL
MODEL 2
REMARK VINA RESULT:      -5.2      2.885      6.859
REMARK  4 active torsions:
REMARK  status: ('A' for Active; 'I' for Inactive)
REMARK    1  A    between atoms: C_5  and  C_6 
REMARK    2  A    between atoms: C_6  and  C_7 
REMARK       I    between atoms: C_7  and  N_9 
REMARK    3  A    between atoms: N_9  and  C_10 
REMARK    4  A    between atoms: C_10  and  C_11 
ROOT
HETATM    1  C   UNL     1     -41.327 -49.294  11.534  1.00  0.00     0.223 C 
HETATM    2  O   UNL     1     -42.102 -49.024  12.452  1.00  0.00    -0.273 OA
HETATM    3  N   UNL     1     -41.126 -48.428  10.481  1.00  0.00    -0.358 N 
HETATM    4  H   UNL     1     -40.651 -48.791   9.654  1.00  0.00     0.162 HD
ENDROOT
BRANCH   1   5
HETATM    5  C   UNL     1     -40.485 -50.551  11.596  1.00  0.00     0.160 C 
BRANCH   5   6
HETATM    6  C   UNL     1     -41.153 -51.742  12.197  1.00  0.00     0.025 A 
HETATM    7  N   UNL     1     -42.520 -51.908  12.019  1.00  0.00    -0.357 N 
HETATM    8  C   UNL     1     -42.912 -53.045  12.550  1.00  0.00     0.047 A 
ATOM      9  HN  UNL     1     -43.131 -51.243  11.544  1.00  0.00     0.166 HD
HETATM   10  C   UNL     1     -44.310 -53.551  12.516  1.00  0.00     0.076 C 
HETATM   11  S   UNL     1     -41.681 -53.969  13.312  1.00  0.00    -0.087 SA
HETATM   12  C   UNL     1     -40.535 -52.769  12.887  1.00  0.00     0.077 A 
ENDBRANCH   5   6
ENDBRANCH   1   5
BRANCH   3  13
HETATM   13  C   UNL     1     -41.959 -47.247  10.361  1.00  0.00     0.154 C 
BRANCH  13  14
HETATM   14  C   UNL     1     -43.198 -47.430   9.488  1.00  0.00     0.139 C 
HETATM   15  C   UNL     1     -43.608 -46.127   8.809  1.00  0.00     0.035 C 
HETATM   16  C   UNL     1     -45.120 -46.121   8.847  1.00  0.00     0.029 C 
HETATM   17  C   UNL     1     -45.491 -47.424   9.520  1.00  0.00     0.168 C 
HETATM   18  O   UNL     1     -44.340 -47.822  10.271  1.00  0.00    -0.384 OA
ENDBRANCH  13  14
ENDBRANCH   3  13
TORSDOF 4
ENDMDL
MODEL 3
REMARK VINA RESULT:      -5.2      1.773      2.393
REMARK  4 active torsions:
REMARK  status: ('A' for Active; 'I' for Inactive)
REMARK    1  A    between atoms: C_5  and  C_6 
REMARK    2  A    between atoms: C_6  and  C_7 
REMARK       I    between atoms: C_7  and  N_9 
REMARK    3  A    between atoms: N_9  and  C_10 
REMARK    4  A    between atoms: C_10  and  C_11 
ROOT
HETATM    1  C   UNL     1     -40.318 -50.857  12.089  1.00  0.00     0.223 C 
HETATM    2  O   UNL     1     -39.945 -50.904  13.261  1.00  0.00    -0.273 OA
HETATM    3  N   UNL     1     -41.078 -51.862  11.532  1.00  0.00    -0.358 N 
HETATM    4  H   UNL     1     -41.171 -51.878  10.516  1.00  0.00     0.162 HD
ENDROOT
BRANCH   1   5
HETATM    5  C   UNL     1     -40.038 -49.626  11.252  1.00  0.00     0.160 C 
BRANCH   5   6
HETATM    6  C   UNL     1     -41.209 -48.733  11.014  1.00  0.00     0.025 A 
HETATM    7  N   UNL     1     -41.643 -48.527   9.712  1.00  0.00    -0.357 N 
HETATM    8  C   UNL     1     -42.725 -47.778   9.707  1.00  0.00     0.047 A 
ATOM      9  HN  UNL     1     -41.189 -48.902   8.879  1.00  0.00     0.166 HD
HETATM   10  C   UNL     1     -43.471 -47.386   8.482  1.00  0.00     0.076 C 
HETATM   11  S   UNL     1     -43.270 -47.258  11.251  1.00  0.00    -0.087 SA
HETATM   12  C   UNL     1     -41.975 -48.109  11.981  1.00  0.00     0.077 A 
ENDBRANCH   5   6
ENDBRANCH   1   5
BRANCH   3  13
HETATM   13  C   UNL     1     -41.312 -53.079  12.286  1.00  0.00     0.154 C 
BRANCH  13  14
HETATM   14  C   UNL     1     -42.604 -53.083  13.099  1.00  0.00     0.139 C 
HETATM   15  C   UNL     1     -42.648 -54.248  14.084  1.00  0.00     0.035 C 
HETATM   16  C   UNL     1     -44.082 -54.728  14.064  1.00  0.00     0.029 C 
HETATM   17  C   UNL     1     -44.781 -53.803  13.093  1.00  0.00     0.168 C 
HETATM   18  O   UNL     1     -43.756 -53.261  12.255  1.00  0.00    -0.384 OA
ENDBRANCH  13  14
ENDBRANCH   3  13
TORSDOF 4
ENDMDL
MODEL 4
REMARK VINA RESULT:      -5.2      1.392      1.545
REMARK  4 active torsions:
REMARK  status: ('A' for Active; 'I' for Inactive)
REMARK    1  A    between atoms: C_5  and  C_6 
REMARK    2  A    between atoms: C_6  and  C_7 
REMARK       I    between atoms: C_7  and  N_9 
REMARK    3  A    between atoms: N_9  and  C_10 
REMARK    4  A    between atoms: C_10  and  C_11 
ROOT
HETATM    1  C   UNL     1     -42.528 -49.527  12.312  1.00  0.00     0.223 C 
HETATM    2  O   UNL     1     -43.475 -49.775  13.059  1.00  0.00    -0.273 OA
HETATM    3  N   UNL     1     -41.779 -50.531  11.739  1.00  0.00    -0.358 N 
HETATM    4  H   UNL     1     -40.888 -50.273  11.313  1.00  0.00     0.162 HD
ENDROOT
BRANCH   1   5
HETATM    5  C   UNL     1     -42.229 -48.096  11.915  1.00  0.00     0.160 C 
BRANCH   5   6
HETATM    6  C   UNL     1     -43.029 -47.567  10.772  1.00  0.00     0.025 A 
HETATM    7  N   UNL     1     -44.291 -48.092  10.535  1.00  0.00    -0.357 N 
HETATM    8  C   UNL     1     -44.870 -47.453   9.542  1.00  0.00     0.047 A 
ATOM      9  HN  UNL     1     -44.710 -48.863  11.057  1.00  0.00     0.166 HD
HETATM   10  C   UNL     1     -46.241 -47.738   9.042  1.00  0.00     0.076 C 
HETATM   11  S   UNL     1     -43.932 -46.208   8.820  1.00  0.00    -0.087 SA
HETATM   12  C   UNL     1     -42.667 -46.535   9.925  1.00  0.00     0.077 A 
ENDBRANCH   5   6
ENDBRANCH   1   5
BRANCH   3  13
HETATM   13  C   UNL     1     -42.001 -51.905  12.145  1.00  0.00     0.154 C 
BRANCH  13  14
HETATM   14  C   UNL     1     -40.729 -52.687  12.464  1.00  0.00     0.139 C 
HETATM   15  C   UNL     1     -41.041 -54.093  12.968  1.00  0.00     0.035 C 
HETATM   16  C   UNL     1     -40.029 -54.353  14.062  1.00  0.00     0.029 C 
HETATM   17  C   UNL     1     -39.184 -53.099  14.108  1.00  0.00     0.168 C 
HETATM   18  O   UNL     1     -39.981 -52.064  13.524  1.00  0.00    -0.384 OA
ENDBRANCH  13  14
ENDBRANCH   3  13
TORSDOF 4
ENDMDL
MODEL 5
REMARK VINA RESULT:      -5.1      3.146      6.413
REMARK  4 active torsions:
REMARK  status: ('A' for Active; 'I' for Inactive)
REMARK    1  A    between atoms: C_5  and  C_6 
REMARK    2  A    between atoms: C_6  and  C_7 
REMARK       I    between atoms: C_7  and  N_9 
REMARK    3  A    between atoms: N_9  and  C_10 
REMARK    4  A    between atoms: C_10  and  C_11 
ROOT
HETATM    1  C   UNL     1     -41.495 -50.245  12.102  1.00  0.00     0.223 C 
HETATM    2  O   UNL     1     -41.416 -49.701  13.203  1.00  0.00    -0.273 OA
HETATM    3  N   UNL     1     -41.344 -49.532  10.932  1.00  0.00    -0.358 N 
HETATM    4  H   UNL     1     -41.632 -49.982  10.063  1.00  0.00     0.162 HD
ENDROOT
BRANCH   1   5
HETATM    5  C   UNL     1     -41.653 -51.749  12.007  1.00  0.00     0.160 C 
BRANCH   5   6
HETATM    6  C   UNL     1     -42.928 -52.295  12.556  1.00  0.00     0.025 A 
HETATM    7  N   UNL     1     -43.996 -51.433  12.764  1.00  0.00    -0.357 N 
HETATM    8  C   UNL     1     -45.049 -52.105  13.176  1.00  0.00     0.047 A 
ATOM      9  HN  UNL     1     -43.967 -50.423  12.618  1.00  0.00     0.166 HD
HETATM   10  C   UNL     1     -46.374 -51.496  13.467  1.00  0.00     0.076 C 
HETATM   11  S   UNL     1     -44.819 -53.797  13.362  1.00  0.00    -0.087 SA
HETATM   12  C   UNL     1     -43.198 -53.622  12.838  1.00  0.00     0.077 A 
ENDBRANCH   5   6
ENDBRANCH   1   5
BRANCH   3  13
HETATM   13  C   UNL     1     -41.251 -48.086  10.988  1.00  0.00     0.154 C 
BRANCH  13  14
HETATM   14  C   UNL     1     -42.344 -47.350  10.217  1.00  0.00     0.139 C 
HETATM   15  C   UNL     1     -43.682 -47.399  10.949  1.00  0.00     0.035 C 
HETATM   16  C   UNL     1     -44.719 -47.578   9.862  1.00  0.00     0.029 C 
HETATM   17  C   UNL     1     -43.925 -47.597   8.575  1.00  0.00     0.168 C 
HETATM   18  O   UNL     1     -42.591 -47.963   8.939  1.00  0.00    -0.384 OA
ENDBRANCH  13  14
ENDBRANCH   3  13
TORSDOF 4
ENDMDL
MODEL 6
REMARK VINA RESULT:      -5.0      3.641      5.394
REMARK  4 active torsions:
REMARK  status: ('A' for Active; 'I' for Inactive)
REMARK    1  A    between atoms: C_5  and  C_6 
REMARK    2  A    between atoms: C_6  and  C_7 
REMARK       I    between atoms: C_7  and  N_9 
REMARK    3  A    between atoms: N_9  and  C_10 
REMARK    4  A    between atoms: C_10  and  C_11 
ROOT
HETATM    1  C   UNL     1     -41.489 -51.397  12.264  1.00  0.00     0.223 C 
HETATM    2  O   UNL     1     -41.885 -50.577  13.092  1.00  0.00    -0.273 OA
HETATM    3  N   UNL     1     -40.574 -51.057  11.292  1.00  0.00    -0.358 N 
HETATM    4  H   UNL     1     -40.450 -51.703  10.512  1.00  0.00     0.162 HD
ENDROOT
BRANCH   1   5
HETATM    5  C   UNL     1     -41.920 -52.846  12.364  1.00  0.00     0.160 C 
BRANCH   5   6
HETATM    6  C   UNL     1     -43.337 -53.067  12.775  1.00  0.00     0.025 A 
HETATM    7  N   UNL     1     -44.307 -52.167  12.356  1.00  0.00    -0.357 N 
HETATM    8  C   UNL     1     -45.497 -52.566  12.750  1.00  0.00     0.047 A 
ATOM      9  HN  UNL     1     -44.123 -51.318  11.820  1.00  0.00     0.166 HD
HETATM   10  C   UNL     1     -46.766 -51.852  12.448  1.00  0.00     0.076 C 
HETATM   11  S   UNL     1     -45.524 -54.022  13.660  1.00  0.00    -0.087 SA
HETATM   12  C   UNL     1     -43.823 -54.137  13.504  1.00  0.00     0.077 A 
ENDBRANCH   5   6
ENDBRANCH   1   5
BRANCH   3  13
HETATM   13  C   UNL     1     -40.189 -49.668  11.132  1.00  0.00     0.154 C 
BRANCH  13  14
HETATM   14  C   UNL     1     -38.874 -49.292  11.811  1.00  0.00     0.139 C 
HETATM   15  C   UNL     1     -37.993 -50.514  12.052  1.00  0.00     0.035 C 
HETATM   16  C   UNL     1     -37.359 -50.282  13.406  1.00  0.00     0.029 C 
HETATM   17  C   UNL     1     -37.890 -48.938  13.852  1.00  0.00     0.168 C 
HETATM   18  O   UNL     1     -39.098 -48.726  13.115  1.00  0.00    -0.384 OA
ENDBRANCH  13  14
ENDBRANCH   3  13
TORSDOF 4
ENDMDL
MODEL 7
REMARK VINA RESULT:      -4.9      3.173      4.210
REMARK  4 active torsions:
REMARK  status: ('A' for Active; 'I' for Inactive)
REMARK    1  A    between atoms: C_5  and  C_6 
REMARK    2  A    between atoms: C_6  and  C_7 
REMARK       I    between atoms: C_7  and  N_9 
REMARK    3  A    between atoms: N_9  and  C_10 
REMARK    4  A    between atoms: C_10  and  C_11 
ROOT
HETATM    1  C   UNL     1     -42.071 -52.625  12.520  1.00  0.00     0.223 C 
HETATM    2  O   UNL     1     -41.647 -53.400  13.378  1.00  0.00    -0.273 OA
HETATM    3  N   UNL     1     -43.382 -52.662  12.099  1.00  0.00    -0.358 N 
HETATM    4  H   UNL     1     -43.619 -52.156  11.246  1.00  0.00     0.162 HD
ENDROOT
BRANCH   1   5
HETATM    5  C   UNL     1     -41.177 -51.528  11.980  1.00  0.00     0.160 C 
BRANCH   5   6
HETATM    6  C   UNL     1     -41.688 -50.138  12.159  1.00  0.00     0.025 A 
HETATM    7  N   UNL     1     -41.957 -49.370  11.036  1.00  0.00    -0.357 N 
HETATM    8  C   UNL     1     -42.468 -48.210  11.390  1.00  0.00     0.047 A 
ATOM      9  HN  UNL     1     -41.784 -49.662  10.073  1.00  0.00     0.166 HD
HETATM   10  C   UNL     1     -42.899 -47.154  10.436  1.00  0.00     0.076 C 
HETATM   11  S   UNL     1     -42.633 -47.962  13.081  1.00  0.00    -0.087 SA
HETATM   12  C   UNL     1     -41.990 -49.524  13.361  1.00  0.00     0.077 A 
ENDBRANCH   5   6
ENDBRANCH   1   5
BRANCH   3  13
HETATM   13  C   UNL     1     -44.245 -53.736  12.551  1.00  0.00     0.154 C 
BRANCH  13  14
HETATM   14  C   UNL     1     -45.630 -53.287  13.011  1.00  0.00     0.139 C 
HETATM   15  C   UNL     1     -45.752 -51.766  13.033  1.00  0.00     0.035 C 
HETATM   16  C   UNL     1     -46.570 -51.455  14.267  1.00  0.00     0.029 C 
HETATM   17  C   UNL     1     -46.888 -52.807  14.867  1.00  0.00     0.168 C 
HETATM   18  O   UNL     1     -45.897 -53.706  14.361  1.00  0.00    -0.384 OA
ENDBRANCH  13  14
ENDBRANCH   3  13
TORSDOF 4
ENDMDL
MODEL 8
REMARK VINA RESULT:      -4.8      3.951      6.543
REMARK  4 active torsions:
REMARK  status: ('A' for Active; 'I' for Inactive)
REMARK    1  A    between atoms: C_5  and  C_6 
REMARK    2  A    between atoms: C_6  and  C_7 
REMARK       I    between atoms: C_7  and  N_9 
REMARK    3  A    between atoms: N_9  and  C_10 
REMARK    4  A    between atoms: C_10  and  C_11 
ROOT
HETATM    1  C   UNL     1     -42.474 -52.443  12.671  1.00  0.00     0.223 C 
HETATM    2  O   UNL     1     -41.896 -52.554  13.752  1.00  0.00    -0.273 OA
HETATM    3  N   UNL     1     -42.046 -51.551  11.712  1.00  0.00    -0.358 N 
HETATM    4  H   UNL     1     -42.680 -51.347  10.939  1.00  0.00     0.162 HD
ENDROOT
BRANCH   1   5
HETATM    5  C   UNL     1     -43.618 -53.373  12.323  1.00  0.00     0.160 C 
BRANCH   5   6
HETATM    6  C   UNL     1     -44.698 -53.473  13.348  1.00  0.00     0.025 A 
HETATM    7  N   UNL     1     -45.227 -52.308  13.884  1.00  0.00    -0.357 N 
HETATM    8  C   UNL     1     -46.212 -52.594  14.708  1.00  0.00     0.047 A 
ATOM      9  HN  UNL     1     -44.899 -51.366  13.671  1.00  0.00     0.166 HD
HETATM   10  C   UNL     1     -47.021 -51.580  15.435  1.00  0.00     0.076 C 
HETATM   11  S   UNL     1     -46.547 -54.266  14.906  1.00  0.00    -0.087 SA
HETATM   12  C   UNL     1     -45.294 -54.637  13.799  1.00  0.00     0.077 A 
ENDBRANCH   5   6
ENDBRANCH   1   5
BRANCH   3  13
HETATM   13  C   UNL     1     -40.994 -50.607  12.037  1.00  0.00     0.154 C 
BRANCH  13  14
HETATM   14  C   UNL     1     -41.373 -49.141  11.841  1.00  0.00     0.139 C 
HETATM   15  C   UNL     1     -42.806 -48.864  12.285  1.00  0.00     0.035 C 
HETATM   16  C   UNL     1     -43.352 -47.886  11.268  1.00  0.00     0.029 C 
HETATM   17  C   UNL     1     -42.201 -47.641  10.317  1.00  0.00     0.168 C 
HETATM   18  O   UNL     1     -41.330 -48.768  10.452  1.00  0.00    -0.384 OA
ENDBRANCH  13  14
ENDBRANCH   3  13
TORSDOF 4
ENDMDL
MODEL 9
REMARK VINA RESULT:      -4.8      3.230      7.135
REMARK  4 active torsions:
REMARK  status: ('A' for Active; 'I' for Inactive)
REMARK    1  A    between atoms: C_5  and  C_6 
REMARK    2  A    between atoms: C_6  and  C_7 
REMARK       I    between atoms: C_7  and  N_9 
REMARK    3  A    between atoms: N_9  and  C_10 
REMARK    4  A    between atoms: C_10  and  C_11 
ROOT
HETATM    1  C   UNL     1     -41.144 -48.663  11.197  1.00  0.00     0.223 C 
HETATM    2  O   UNL     1     -42.222 -48.624  11.790  1.00  0.00    -0.273 OA
HETATM    3  N   UNL     1     -40.604 -47.540  10.609  1.00  0.00    -0.358 N 
HETATM    4  H   UNL     1     -39.832 -47.673   9.955  1.00  0.00     0.162 HD
ENDROOT
BRANCH   1   5
HETATM    5  C   UNL     1     -40.324 -49.936  11.195  1.00  0.00     0.160 C 
BRANCH   5   6
HETATM    6  C   UNL     1     -40.875 -51.056  12.012  1.00  0.00     0.025 A 
HETATM    7  N   UNL     1     -42.177 -51.478  11.783  1.00  0.00    -0.357 N 
HETATM    8  C   UNL     1     -42.457 -52.517  12.541  1.00  0.00     0.047 A 
ATOM      9  HN  UNL     1     -42.823 -51.046  11.123  1.00  0.00     0.166 HD
HETATM   10  C   UNL     1     -43.756 -53.239  12.529  1.00  0.00     0.076 C 
HETATM   11  S   UNL     1     -41.194 -53.032  13.584  1.00  0.00    -0.087 SA
HETATM   12  C   UNL     1     -40.193 -51.787  12.968  1.00  0.00     0.077 A 
ENDBRANCH   5   6
ENDBRANCH   1   5
BRANCH   3  13
HETATM   13  C   UNL     1     -41.390 -46.323  10.542  1.00  0.00     0.154 C 
BRANCH  13  14
HETATM   14  C   UNL     1     -40.577 -45.035  10.655  1.00  0.00     0.139 C 
HETATM   15  C   UNL     1     -39.751 -45.000  11.937  1.00  0.00     0.035 C 
HETATM   16  C   UNL     1     -39.825 -43.566  12.414  1.00  0.00     0.029 C 
HETATM   17  C   UNL     1     -40.666 -42.860  11.373  1.00  0.00     0.168 C 
HETATM   18  O   UNL     1     -41.431 -43.880  10.725  1.00  0.00    -0.384 OA
ENDBRANCH  13  14
ENDBRANCH   3  13
TORSDOF 4
ENDMDL
