MODEL 1
REMARK VINA RESULT:      -6.7      0.000      0.000
REMARK  6 active torsions:
REMARK  status: ('A' for Active; 'I' for Inactive)
REMARK    1  A    between atoms: C_2  and  C_3 
REMARK    2  A    between atoms: C_3  and  N_4 
REMARK       I    between atoms: N_4  and  C_5 
REMARK    3  A    between atoms: C_5  and  C_7 
REMARK    4  A    between atoms: C_10  and  N_11 
REMARK    5  A    between atoms: N_11  and  C_12 
REMARK    6  A    between atoms: C_12  and  C_13 
ROOT
HETATM    1  C   UNL     1     -40.789 -48.920  11.784  1.00  0.00     0.047 A 
HETATM    2  C   UNL     1     -41.746 -49.260  12.737  1.00  0.00     0.022 A 
HETATM    3  C   UNL     1     -42.207 -50.572  12.813  1.00  0.00     0.049 A 
HETATM    4  C   UNL     1     -41.692 -51.536  11.952  1.00  0.00     0.100 A 
HETATM    5  N   UNL     1     -40.780 -51.214  11.008  1.00  0.00    -0.352 N 
ATOM      6  HN  UNL     1     -40.428 -51.918  10.359  1.00  0.00     0.166 HD
HETATM    7  C   UNL     1     -40.345 -49.928  10.946  1.00  0.00     0.106 A 
ENDROOT
BRANCH   4   8
HETATM    8  N   UNL     1     -42.058 -52.854  12.172  1.00  0.00    -0.374 N 
HETATM    9  H   UNL     1     -41.531 -53.551  11.664  1.00  0.00     0.161 HD
BRANCH   8  10
HETATM   10  C   UNL     1     -42.640 -53.247  13.449  1.00  0.00     0.155 C 
BRANCH  10  11
HETATM   11  C   UNL     1     -43.918 -54.093  13.206  1.00  0.00     0.167 C 
HETATM   12  C   UNL     1     -44.629 -54.450  14.527  1.00  0.00     0.306 C 
HETATM   13  N   UNL     1     -45.248 -53.264  15.149  1.00  0.00     0.097 N 
HETATM   14  C   UNL     1     -45.904 -53.609  16.413  1.00  0.00     0.273 C 
HETATM   15  C   UNL     1     -46.202 -52.663  14.183  1.00  0.00     0.246 C 
HETATM   16  C   UNL     1     -46.517 -52.367  17.058  1.00  0.00     0.030 C 
HETATM   17  C   UNL     1     -47.497 -51.679  16.114  1.00  0.00     0.004 C 
HETATM   18  C   UNL     1     -46.834 -51.394  14.770  1.00  0.00     0.038 C 
HETATM   19  C   UNL     1     -45.499 -52.338  12.848  1.00  0.00     0.204 C 
HETATM   20  O   UNL     1     -44.860 -53.492  12.290  1.00  0.00    -0.380 OA
ENDBRANCH  10  11
ENDBRANCH   8  10
ENDBRANCH   4   8
BRANCH   1  21
HETATM   21  C   UNL     1     -40.229 -47.550  11.794  1.00  0.00     0.253 C 
HETATM   22  N   UNL     1     -40.305 -46.810  10.633  1.00  0.00    -0.353 N 
HETATM   23  H   UNL     1     -40.819 -47.144   9.830  1.00  0.00     0.163 HD
HETATM   24  O   UNL     1     -39.732 -47.121  12.830  1.00  0.00    -0.268 OA
BRANCH  22  25
HETATM   25  C   UNL     1     -39.756 -45.476  10.569  1.00  0.00     0.149 C 
BRANCH  25  26
HETATM   26  C   UNL     1     -40.855 -44.503  10.857  1.00  0.00    -0.018 C 
HETATM   27  C   UNL     1     -40.662 -43.260  11.319  1.00  0.00     0.008 C 
ENDBRANCH  25  26
ENDBRANCH  22  25
ENDBRANCH   1  21
TORSDOF 6
ENDMDL
MODEL 2
REMARK VINA RESULT:      -6.4      3.294      4.776
REMARK  6 active torsions:
REMARK  status: ('A' for Active; 'I' for Inactive)
REMARK    1  A    between atoms: C_2  and  C_3 
REMARK    2  A    between atoms: C_3  and  N_4 
REMARK       I    between atoms: N_4  and  C_5 
REMARK    3  A    between atoms: C_5  and  C_7 
REMARK    4  A    between atoms: C_10  and  N_11 
REMARK    5  A    between atoms: N_11  and  C_12 
REMARK    6  A    between atoms: C_12  and  C_13 
ROOT
HETATM    1  C   UNL     1     -42.051 -47.066  10.553  1.00  0.00     0.047 A 
HETATM    2  C   UNL     1     -42.373 -48.340  11.016  1.00  0.00     0.022 A 
HETATM    3  C   UNL     1     -41.424 -49.076  11.721  1.00  0.00     0.049 A 
HETATM    4  C   UNL     1     -40.173 -48.525  11.977  1.00  0.00     0.100 A 
HETATM    5  N   UNL     1     -39.841 -47.300  11.514  1.00  0.00    -0.352 N 
ATOM      6  HN  UNL     1     -38.912 -46.913  11.677  1.00  0.00     0.166 HD
HETATM    7  C   UNL     1     -40.778 -46.597  10.824  1.00  0.00     0.106 A 
ENDROOT
BRANCH   4   8
HETATM    8  N   UNL     1     -39.324 -49.225  12.818  1.00  0.00    -0.374 N 
HETATM    9  H   UNL     1     -38.441 -48.779  13.028  1.00  0.00     0.161 HD
BRANCH   8  10
HETATM   10  C   UNL     1     -39.871 -50.139  13.814  1.00  0.00     0.155 C 
BRANCH  10  11
HETATM   11  C   UNL     1     -39.186 -51.525  13.688  1.00  0.00     0.167 C 
HETATM   12  C   UNL     1     -39.505 -52.434  14.891  1.00  0.00     0.306 C 
HETATM   13  N   UNL     1     -40.915 -52.868  14.886  1.00  0.00     0.097 N 
HETATM   14  C   UNL     1     -41.214 -53.715  16.044  1.00  0.00     0.273 C 
HETATM   15  C   UNL     1     -41.192 -53.571  13.608  1.00  0.00     0.246 C 
HETATM   16  C   UNL     1     -42.684 -54.134  16.039  1.00  0.00     0.030 C 
HETATM   17  C   UNL     1     -43.052 -54.847  14.743  1.00  0.00     0.004 C 
HETATM   18  C   UNL     1     -42.665 -53.996  13.536  1.00  0.00     0.038 C 
HETATM   19  C   UNL     1     -40.840 -52.674  12.402  1.00  0.00     0.204 C 
HETATM   20  O   UNL     1     -39.482 -52.221  12.456  1.00  0.00    -0.380 OA
ENDBRANCH  10  11
ENDBRANCH   8  10
ENDBRANCH   4   8
BRANCH   1  21
HETATM   21  C   UNL     1     -43.107 -46.256   9.906  1.00  0.00     0.253 C 
HETATM   22  N   UNL     1     -44.324 -46.855   9.656  1.00  0.00    -0.353 N 
HETATM   23  H   UNL     1     -44.531 -47.782   9.998  1.00  0.00     0.163 HD
HETATM   24  O   UNL     1     -42.868 -45.085   9.627  1.00  0.00    -0.268 OA
BRANCH  22  25
HETATM   25  C   UNL     1     -45.388 -46.128   9.006  1.00  0.00     0.149 C 
BRANCH  25  26
HETATM   26  C   UNL     1     -46.614 -46.984   9.014  1.00  0.00    -0.018 C 
HETATM   27  C   UNL     1     -46.608 -48.315   8.856  1.00  0.00     0.008 C 
ENDBRANCH  25  26
ENDBRANCH  22  25
ENDBRANCH   1  21
TORSDOF 6
ENDMDL
MODEL 3
REMARK VINA RESULT:      -6.4      1.857      2.749
REMARK  6 active torsions:
REMARK  status: ('A' for Active; 'I' for Inactive)
REMARK    1  A    between atoms: C_2  and  C_3 
REMARK    2  A    between atoms: C_3  and  N_4 
REMARK       I    between atoms: N_4  and  C_5 
REMARK    3  A    between atoms: C_5  and  C_7 
REMARK    4  A    between atoms: C_10  and  N_11 
REMARK    5  A    between atoms: N_11  and  C_12 
REMARK    6  A    between atoms: C_12  and  C_13 
ROOT
HETATM    1  C   UNL     1     -41.009 -47.107  11.011  1.00  0.00     0.047 A 
HETATM    2  C   UNL     1     -39.834 -47.589  11.582  1.00  0.00     0.022 A 
HETATM    3  C   UNL     1     -39.687 -48.957  11.803  1.00  0.00     0.049 A 
HETATM    4  C   UNL     1     -40.704 -49.830  11.431  1.00  0.00     0.100 A 
HETATM    5  N   UNL     1     -41.857 -49.373  10.897  1.00  0.00    -0.352 N 
ATOM      6  HN  UNL     1     -42.612 -50.014  10.654  1.00  0.00     0.166 HD
HETATM    7  C   UNL     1     -41.985 -48.035  10.692  1.00  0.00     0.106 A 
ENDROOT
BRANCH   4   8
HETATM    8  N   UNL     1     -40.447 -51.188  11.519  1.00  0.00    -0.374 N 
HETATM    9  H   UNL     1     -39.506 -51.445  11.784  1.00  0.00     0.161 HD
BRANCH   8  10
HETATM   10  C   UNL     1     -41.519 -52.115  11.858  1.00  0.00     0.155 C 
BRANCH  10  11
HETATM   11  C   UNL     1     -41.582 -52.308  13.396  1.00  0.00     0.167 C 
HETATM   12  C   UNL     1     -42.663 -51.418  14.041  1.00  0.00     0.306 C 
HETATM   13  N   UNL     1     -44.022 -51.873  13.693  1.00  0.00     0.097 N 
HETATM   14  C   UNL     1     -45.042 -51.010  14.295  1.00  0.00     0.273 C 
HETATM   15  C   UNL     1     -44.176 -53.286  14.125  1.00  0.00     0.246 C 
HETATM   16  C   UNL     1     -46.443 -51.478  13.903  1.00  0.00     0.030 C 
HETATM   17  C   UNL     1     -46.671 -52.934  14.297  1.00  0.00     0.004 C 
HETATM   18  C   UNL     1     -45.561 -53.819  13.736  1.00  0.00     0.038 C 
HETATM   19  C   UNL     1     -43.074 -54.171  13.507  1.00  0.00     0.204 C 
HETATM   20  O   UNL     1     -41.764 -53.680  13.813  1.00  0.00    -0.380 OA
ENDBRANCH  10  11
ENDBRANCH   8  10
ENDBRANCH   4   8
BRANCH   1  21
HETATM   21  C   UNL     1     -41.101 -45.668  10.680  1.00  0.00     0.253 C 
HETATM   22  N   UNL     1     -40.248 -44.797  11.325  1.00  0.00    -0.353 N 
HETATM   23  H   UNL     1     -39.509 -45.136  11.925  1.00  0.00     0.163 HD
HETATM   24  O   UNL     1     -41.920 -45.303   9.842  1.00  0.00    -0.268 OA
BRANCH  22  25
HETATM   25  C   UNL     1     -40.303 -43.378  11.067  1.00  0.00     0.149 C 
BRANCH  25  26
HETATM   26  C   UNL     1     -40.524 -42.674  12.367  1.00  0.00    -0.018 C 
HETATM   27  C   UNL     1     -40.103 -41.429  12.634  1.00  0.00     0.008 C 
ENDBRANCH  25  26
ENDBRANCH  22  25
ENDBRANCH   1  21
TORSDOF 6
ENDMDL
MODEL 4
REMARK VINA RESULT:      -6.3      2.353      2.788
REMARK  6 active torsions:
REMARK  status: ('A' for Active; 'I' for Inactive)
REMARK    1  A    between atoms: C_2  and  C_3 
REMARK    2  A    between atoms: C_3  and  N_4 
REMARK       I    between atoms: N_4  and  C_5 
REMARK    3  A    between atoms: C_5  and  C_7 
REMARK    4  A    between atoms: C_10  and  N_11 
REMARK    5  A    between atoms: N_11  and  C_12 
REMARK    6  A    between atoms: C_12  and  C_13 
ROOT
HETATM    1  C   UNL     1     -41.802 -49.579  11.904  1.00  0.00     0.047 A 
HETATM    2  C   UNL     1     -40.717 -50.428  11.696  1.00  0.00     0.022 A 
HETATM    3  C   UNL     1     -40.611 -51.602  12.439  1.00  0.00     0.049 A 
HETATM    4  C   UNL     1     -41.598 -51.927  13.364  1.00  0.00     0.100 A 
HETATM    5  N   UNL     1     -42.642 -51.100  13.590  1.00  0.00    -0.352 N 
ATOM      6  HN  UNL     1     -43.347 -51.327  14.291  1.00  0.00     0.166 HD
HETATM    7  C   UNL     1     -42.728 -49.957  12.860  1.00  0.00     0.106 A 
ENDROOT
BRANCH   4   8
HETATM    8  N   UNL     1     -41.535 -53.177  13.957  1.00  0.00    -0.374 N 
HETATM    9  H   UNL     1     -41.169 -53.202  14.899  1.00  0.00     0.161 HD
BRANCH   8  10
HETATM   10  C   UNL     1     -42.481 -54.217  13.573  1.00  0.00     0.155 C 
BRANCH  10  11
HETATM   11  C   UNL     1     -43.107 -54.854  14.842  1.00  0.00     0.167 C 
HETATM   12  C   UNL     1     -43.445 -53.793  15.909  1.00  0.00     0.306 C 
HETATM   13  N   UNL     1     -44.576 -52.942  15.491  1.00  0.00     0.097 N 
HETATM   14  C   UNL     1     -44.877 -51.926  16.502  1.00  0.00     0.273 C 
HETATM   15  C   UNL     1     -45.750 -53.811  15.222  1.00  0.00     0.246 C 
HETATM   16  C   UNL     1     -46.032 -51.036  16.044  1.00  0.00     0.030 C 
HETATM   17  C   UNL     1     -47.274 -51.862  15.726  1.00  0.00     0.004 C 
HETATM   18  C   UNL     1     -46.938 -52.972  14.734  1.00  0.00     0.038 C 
HETATM   19  C   UNL     1     -45.403 -54.895  14.180  1.00  0.00     0.204 C 
HETATM   20  O   UNL     1     -44.268 -55.673  14.581  1.00  0.00    -0.380 OA
ENDBRANCH  10  11
ENDBRANCH   8  10
ENDBRANCH   4   8
BRANCH   1  21
HETATM   21  C   UNL     1     -41.957 -48.396  11.028  1.00  0.00     0.253 C 
HETATM   22  N   UNL     1     -43.223 -48.080  10.582  1.00  0.00    -0.353 N 
HETATM   23  H   UNL     1     -44.037 -48.570  10.925  1.00  0.00     0.163 HD
HETATM   24  O   UNL     1     -40.962 -47.737  10.740  1.00  0.00    -0.268 OA
BRANCH  22  25
HETATM   25  C   UNL     1     -43.439 -46.954   9.705  1.00  0.00     0.149 C 
BRANCH  25  26
HETATM   26  C   UNL     1     -44.593 -47.274   8.809  1.00  0.00    -0.018 C 
HETATM   27  C   UNL     1     -45.835 -47.533   9.239  1.00  0.00     0.008 C 
ENDBRANCH  25  26
ENDBRANCH  22  25
ENDBRANCH   1  21
TORSDOF 6
ENDMDL
MODEL 5
REMARK VINA RESULT:      -6.3      4.710      6.285
REMARK  6 active torsions:
REMARK  status: ('A' for Active; 'I' for Inactive)
REMARK    1  A    between atoms: C_2  and  C_3 
REMARK    2  A    between atoms: C_3  and  N_4 
REMARK       I    between atoms: N_4  and  C_5 
REMARK    3  A    between atoms: C_5  and  C_7 
REMARK    4  A    between atoms: C_10  and  N_11 
REMARK    5  A    between atoms: N_11  and  C_12 
REMARK    6  A    between atoms: C_12  and  C_13 
ROOT
HETATM    1  C   UNL     1     -39.368 -54.780  15.374  1.00  0.00     0.047 A 
HETATM    2  C   UNL     1     -40.716 -54.751  15.723  1.00  0.00     0.022 A 
HETATM    3  C   UNL     1     -41.670 -54.436  14.758  1.00  0.00     0.049 A 
HETATM    4  C   UNL     1     -41.271 -54.177  13.451  1.00  0.00     0.100 A 
HETATM    5  N   UNL     1     -39.965 -54.180  13.106  1.00  0.00    -0.352 N 
ATOM      6  HN  UNL     1     -39.675 -53.959  12.153  1.00  0.00     0.166 HD
HETATM    7  C   UNL     1     -39.047 -54.485  14.061  1.00  0.00     0.106 A 
ENDROOT
BRANCH   4   8
HETATM    8  N   UNL     1     -42.263 -54.031  12.495  1.00  0.00    -0.374 N 
HETATM    9  H   UNL     1     -42.462 -54.849  11.935  1.00  0.00     0.161 HD
BRANCH   8  10
HETATM   10  C   UNL     1     -43.345 -53.077  12.703  1.00  0.00     0.155 C 
BRANCH  10  11
HETATM   11  C   UNL     1     -44.713 -53.802  12.606  1.00  0.00     0.167 C 
HETATM   12  C   UNL     1     -45.169 -54.351  13.972  1.00  0.00     0.306 C 
HETATM   13  N   UNL     1     -45.545 -53.265  14.897  1.00  0.00     0.097 N 
HETATM   14  C   UNL     1     -45.958 -53.796  16.199  1.00  0.00     0.273 C 
HETATM   15  C   UNL     1     -46.620 -52.456  14.269  1.00  0.00     0.246 C 
HETATM   16  C   UNL     1     -46.319 -52.658  17.154  1.00  0.00     0.030 C 
HETATM   17  C   UNL     1     -47.408 -51.767  16.567  1.00  0.00     0.004 C 
HETATM   18  C   UNL     1     -47.009 -51.281  15.176  1.00  0.00     0.038 C 
HETATM   19  C   UNL     1     -46.178 -51.935  12.886  1.00  0.00     0.204 C 
HETATM   20  O   UNL     1     -45.766 -53.002  12.023  1.00  0.00    -0.380 OA
ENDBRANCH  10  11
ENDBRANCH   8  10
ENDBRANCH   4   8
BRANCH   1  21
HETATM   21  C   UNL     1     -38.381 -55.226  16.383  1.00  0.00     0.253 C 
HETATM   22  N   UNL     1     -38.366 -54.585  17.604  1.00  0.00    -0.353 N 
HETATM   23  H   UNL     1     -39.073 -53.906  17.849  1.00  0.00     0.163 HD
HETATM   24  O   UNL     1     -37.624 -56.150  16.103  1.00  0.00    -0.268 OA
BRANCH  22  25
HETATM   25  C   UNL     1     -37.413 -54.955  18.623  1.00  0.00     0.149 C 
BRANCH  25  26
HETATM   26  C   UNL     1     -36.343 -53.911  18.664  1.00  0.00    -0.018 C 
HETATM   27  C   UNL     1     -36.534 -52.620  18.360  1.00  0.00     0.008 C 
ENDBRANCH  25  26
ENDBRANCH  22  25
ENDBRANCH   1  21
TORSDOF 6
ENDMDL
MODEL 6
REMARK VINA RESULT:      -6.2      2.475      2.969
REMARK  6 active torsions:
REMARK  status: ('A' for Active; 'I' for Inactive)
REMARK    1  A    between atoms: C_2  and  C_3 
REMARK    2  A    between atoms: C_3  and  N_4 
REMARK       I    between atoms: N_4  and  C_5 
REMARK    3  A    between atoms: C_5  and  C_7 
REMARK    4  A    between atoms: C_10  and  N_11 
REMARK    5  A    between atoms: N_11  and  C_12 
REMARK    6  A    between atoms: C_12  and  C_13 
ROOT
HETATM    1  C   UNL     1     -39.543 -50.081  12.740  1.00  0.00     0.047 A 
HETATM    2  C   UNL     1     -40.120 -50.789  13.791  1.00  0.00     0.022 A 
HETATM    3  C   UNL     1     -41.203 -51.630  13.543  1.00  0.00     0.049 A 
HETATM    4  C   UNL     1     -41.682 -51.773  12.245  1.00  0.00     0.100 A 
HETATM    5  N   UNL     1     -41.145 -51.076  11.220  1.00  0.00    -0.352 N 
ATOM      6  HN  UNL     1     -41.520 -51.161  10.276  1.00  0.00     0.166 HD
HETATM    7  C   UNL     1     -40.092 -50.256  11.482  1.00  0.00     0.106 A 
ENDROOT
BRANCH   4   8
HETATM    8  N   UNL     1     -42.648 -52.740  12.021  1.00  0.00    -0.374 N 
HETATM    9  H   UNL     1     -42.738 -53.066  11.069  1.00  0.00     0.161 HD
BRANCH   8  10
HETATM   10  C   UNL     1     -43.018 -53.664  13.087  1.00  0.00     0.155 C 
BRANCH  10  11
HETATM   11  C   UNL     1     -44.445 -54.219  12.830  1.00  0.00     0.167 C 
HETATM   12  C   UNL     1     -45.137 -54.646  14.139  1.00  0.00     0.306 C 
HETATM   13  N   UNL     1     -45.486 -53.482  14.976  1.00  0.00     0.097 N 
HETATM   14  C   UNL     1     -46.126 -53.899  16.227  1.00  0.00     0.273 C 
HETATM   15  C   UNL     1     -46.360 -52.575  14.190  1.00  0.00     0.246 C 
HETATM   16  C   UNL     1     -46.456 -52.685  17.094  1.00  0.00     0.030 C 
HETATM   17  C   UNL     1     -47.338 -51.693  16.344  1.00  0.00     0.004 C 
HETATM   18  C   UNL     1     -46.707 -51.322  15.004  1.00  0.00     0.038 C 
HETATM   19  C   UNL     1     -45.682 -52.174  12.863  1.00  0.00     0.204 C 
HETATM   20  O   UNL     1     -45.304 -53.321  12.092  1.00  0.00    -0.380 OA
ENDBRANCH  10  11
ENDBRANCH   8  10
ENDBRANCH   4   8
BRANCH   1  21
HETATM   21  C   UNL     1     -38.325 -49.282  13.003  1.00  0.00     0.253 C 
HETATM   22  N   UNL     1     -38.329 -48.432  14.089  1.00  0.00    -0.353 N 
HETATM   23  H   UNL     1     -39.093 -48.429  14.750  1.00  0.00     0.163 HD
HETATM   24  O   UNL     1     -37.359 -49.412  12.258  1.00  0.00    -0.268 OA
BRANCH  22  25
HETATM   25  C   UNL     1     -37.183 -47.607  14.387  1.00  0.00     0.149 C 
BRANCH  25  26
HETATM   26  C   UNL     1     -36.539 -48.132  15.631  1.00  0.00    -0.018 C 
HETATM   27  C   UNL     1     -36.413 -49.433  15.927  1.00  0.00     0.008 C 
ENDBRANCH  25  26
ENDBRANCH  22  25
ENDBRANCH   1  21
TORSDOF 6
ENDMDL
MODEL 7
REMARK VINA RESULT:      -6.1      2.552      3.820
REMARK  6 active torsions:
REMARK  status: ('A' for Active; 'I' for Inactive)
REMARK    1  A    between atoms: C_2  and  C_3 
REMARK    2  A    between atoms: C_3  and  N_4 
REMARK       I    between atoms: N_4  and  C_5 
REMARK    3  A    between atoms: C_5  and  C_7 
REMARK    4  A    between atoms: C_10  and  N_11 
REMARK    5  A    between atoms: N_11  and  C_12 
REMARK    6  A    between atoms: C_12  and  C_13 
ROOT
HETATM    1  C   UNL     1     -41.372 -46.437  10.938  1.00  0.00     0.047 A 
HETATM    2  C   UNL     1     -40.255 -46.904  11.627  1.00  0.00     0.022 A 
HETATM    3  C   UNL     1     -40.005 -48.274  11.684  1.00  0.00     0.049 A 
HETATM    4  C   UNL     1     -40.858 -49.160  11.034  1.00  0.00     0.100 A 
HETATM    5  N   UNL     1     -41.957 -48.720  10.382  1.00  0.00    -0.352 N 
ATOM      6  HN  UNL     1     -42.596 -49.376   9.934  1.00  0.00     0.166 HD
HETATM    7  C   UNL     1     -42.187 -47.381  10.340  1.00  0.00     0.106 A 
ENDROOT
BRANCH   4   8
HETATM    8  N   UNL     1     -40.481 -50.491  10.981  1.00  0.00    -0.374 N 
HETATM    9  H   UNL     1     -39.517 -50.669  10.733  1.00  0.00     0.161 HD
BRANCH   8  10
HETATM   10  C   UNL     1     -41.154 -51.477  11.818  1.00  0.00     0.155 C 
BRANCH  10  11
HETATM   11  C   UNL     1     -40.265 -51.823  13.042  1.00  0.00     0.167 C 
HETATM   12  C   UNL     1     -40.977 -51.514  14.373  1.00  0.00     0.306 C 
HETATM   13  N   UNL     1     -42.093 -52.446  14.623  1.00  0.00     0.097 N 
HETATM   14  C   UNL     1     -42.776 -52.133  15.881  1.00  0.00     0.273 C 
HETATM   15  C   UNL     1     -41.564 -53.834  14.619  1.00  0.00     0.246 C 
HETATM   16  C   UNL     1     -43.945 -53.090  16.113  1.00  0.00     0.030 C 
HETATM   17  C   UNL     1     -43.482 -54.543  16.100  1.00  0.00     0.004 C 
HETATM   18  C   UNL     1     -42.700 -54.844  14.824  1.00  0.00     0.038 C 
HETATM   19  C   UNL     1     -40.821 -54.133  13.300  1.00  0.00     0.204 C 
HETATM   20  O   UNL     1     -39.777 -53.183  13.051  1.00  0.00    -0.380 OA
ENDBRANCH  10  11
ENDBRANCH   8  10
ENDBRANCH   4   8
BRANCH   1  21
HETATM   21  C   UNL     1     -41.558 -44.976  10.792  1.00  0.00     0.253 C 
HETATM   22  N   UNL     1     -42.777 -44.439  11.147  1.00  0.00    -0.353 N 
HETATM   23  H   UNL     1     -43.487 -45.000  11.594  1.00  0.00     0.163 HD
HETATM   24  O   UNL     1     -40.624 -44.299  10.374  1.00  0.00    -0.268 OA
BRANCH  22  25
HETATM   25  C   UNL     1     -43.032 -43.025  11.006  1.00  0.00     0.149 C 
BRANCH  25  26
HETATM   26  C   UNL     1     -43.041 -42.412  12.371  1.00  0.00    -0.018 C 
HETATM   27  C   UNL     1     -43.747 -41.323  12.706  1.00  0.00     0.008 C 
ENDBRANCH  25  26
ENDBRANCH  22  25
ENDBRANCH   1  21
TORSDOF 6
ENDMDL
MODEL 8
REMARK VINA RESULT:      -6.1      2.641      8.427
REMARK  6 active torsions:
REMARK  status: ('A' for Active; 'I' for Inactive)
REMARK    1  A    between atoms: C_2  and  C_3 
REMARK    2  A    between atoms: C_3  and  N_4 
REMARK       I    between atoms: N_4  and  C_5 
REMARK    3  A    between atoms: C_5  and  C_7 
REMARK    4  A    between atoms: C_10  and  N_11 
REMARK    5  A    between atoms: N_11  and  C_12 
REMARK    6  A    between atoms: C_12  and  C_13 
ROOT
HETATM    1  C   UNL     1     -42.319 -54.001  13.850  1.00  0.00     0.047 A 
HETATM    2  C   UNL     1     -40.973 -53.640  13.844  1.00  0.00     0.022 A 
HETATM    3  C   UNL     1     -40.500 -52.764  12.869  1.00  0.00     0.049 A 
HETATM    4  C   UNL     1     -41.379 -52.241  11.926  1.00  0.00     0.100 A 
HETATM    5  N   UNL     1     -42.680 -52.601  11.908  1.00  0.00    -0.352 N 
ATOM      6  HN  UNL     1     -43.314 -52.239  11.195  1.00  0.00     0.166 HD
HETATM    7  C   UNL     1     -43.124 -53.460  12.864  1.00  0.00     0.106 A 
ENDROOT
BRANCH   4   8
HETATM    8  N   UNL     1     -40.899 -51.252  11.082  1.00  0.00    -0.374 N 
HETATM    9  H   UNL     1     -41.289 -51.238  10.150  1.00  0.00     0.161 HD
BRANCH   8  10
HETATM   10  C   UNL     1     -40.422 -49.989  11.632  1.00  0.00     0.155 C 
BRANCH  10  11
HETATM   11  C   UNL     1     -41.622 -49.152  12.147  1.00  0.00     0.167 C 
HETATM   12  C   UNL     1     -41.171 -48.033  13.107  1.00  0.00     0.306 C 
HETATM   13  N   UNL     1     -40.432 -46.972  12.397  1.00  0.00     0.097 N 
HETATM   14  C   UNL     1     -39.991 -45.923  13.320  1.00  0.00     0.273 C 
HETATM   15  C   UNL     1     -41.300 -46.426  11.322  1.00  0.00     0.246 C 
HETATM   16  C   UNL     1     -39.205 -44.845  12.574  1.00  0.00     0.030 C 
HETATM   17  C   UNL     1     -40.026 -44.248  11.436  1.00  0.00     0.004 C 
HETATM   18  C   UNL     1     -40.553 -45.351  10.522  1.00  0.00     0.038 C 
HETATM   19  C   UNL     1     -41.780 -47.550  10.381  1.00  0.00     0.204 C 
HETATM   20  O   UNL     1     -42.447 -48.595  11.099  1.00  0.00    -0.380 OA
ENDBRANCH  10  11
ENDBRANCH   8  10
ENDBRANCH   4   8
BRANCH   1  21
HETATM   21  C   UNL     1     -42.824 -54.841  14.958  1.00  0.00     0.253 C 
HETATM   22  N   UNL     1     -42.124 -54.839  16.146  1.00  0.00    -0.353 N 
HETATM   23  H   UNL     1     -41.352 -54.206  16.299  1.00  0.00     0.163 HD
HETATM   24  O   UNL     1     -43.848 -55.496  14.786  1.00  0.00    -0.268 OA
BRANCH  22  25
HETATM   25  C   UNL     1     -42.550 -55.655  17.258  1.00  0.00     0.149 C 
BRANCH  25  26
HETATM   26  C   UNL     1     -41.350 -56.355  17.813  1.00  0.00    -0.018 C 
HETATM   27  C   UNL     1     -40.446 -57.009  17.071  1.00  0.00     0.008 C 
ENDBRANCH  25  26
ENDBRANCH  22  25
ENDBRANCH   1  21
TORSDOF 6
ENDMDL
MODEL 9
REMARK VINA RESULT:      -6.0      2.190      3.017
REMARK  6 active torsions:
REMARK  status: ('A' for Active; 'I' for Inactive)
REMARK    1  A    between atoms: C_2  and  C_3 
REMARK    2  A    between atoms: C_3  and  N_4 
REMARK       I    between atoms: N_4  and  C_5 
REMARK    3  A    between atoms: C_5  and  C_7 
REMARK    4  A    between atoms: C_10  and  N_11 
REMARK    5  A    between atoms: N_11  and  C_12 
REMARK    6  A    between atoms: C_12  and  C_13 
ROOT
HETATM    1  C   UNL     1     -40.809 -47.092  11.082  1.00  0.00     0.047 A 
HETATM    2  C   UNL     1     -39.661 -47.350  11.827  1.00  0.00     0.022 A 
HETATM    3  C   UNL     1     -39.297 -48.668  12.095  1.00  0.00     0.049 A 
HETATM    4  C   UNL     1     -40.069 -49.713  11.598  1.00  0.00     0.100 A 
HETATM    5  N   UNL     1     -41.197 -49.475  10.894  1.00  0.00    -0.352 N 
ATOM      6  HN  UNL     1     -41.776 -50.244  10.558  1.00  0.00     0.166 HD
HETATM    7  C   UNL     1     -41.539 -48.183  10.646  1.00  0.00     0.106 A 
ENDROOT
BRANCH   4   8
HETATM    8  N   UNL     1     -39.580 -51.000  11.750  1.00  0.00    -0.374 N 
HETATM    9  H   UNL     1     -38.630 -51.153  11.440  1.00  0.00     0.161 HD
BRANCH   8  10
HETATM   10  C   UNL     1     -40.085 -51.853  12.819  1.00  0.00     0.155 C 
BRANCH  10  11
HETATM   11  C   UNL     1     -41.083 -52.889  12.239  1.00  0.00     0.167 C 
HETATM   12  C   UNL     1     -41.260 -54.101  13.175  1.00  0.00     0.306 C 
HETATM   13  N   UNL     1     -41.990 -53.736  14.404  1.00  0.00     0.097 N 
HETATM   14  C   UNL     1     -42.137 -54.889  15.296  1.00  0.00     0.273 C 
HETATM   15  C   UNL     1     -43.308 -53.167  14.024  1.00  0.00     0.246 C 
HETATM   16  C   UNL     1     -42.872 -54.490  16.576  1.00  0.00     0.030 C 
HETATM   17  C   UNL     1     -44.231 -53.875  16.265  1.00  0.00     0.004 C 
HETATM   18  C   UNL     1     -44.084 -52.725  15.272  1.00  0.00     0.038 C 
HETATM   19  C   UNL     1     -43.133 -51.976  13.059  1.00  0.00     0.204 C 
HETATM   20  O   UNL     1     -42.375 -52.339  11.899  1.00  0.00    -0.380 OA
ENDBRANCH  10  11
ENDBRANCH   8  10
ENDBRANCH   4   8
BRANCH   1  21
HETATM   21  C   UNL     1     -41.117 -45.693  10.712  1.00  0.00     0.253 C 
HETATM   22  N   UNL     1     -40.358 -44.689  11.277  1.00  0.00    -0.353 N 
HETATM   23  H   UNL     1     -39.547 -44.900  11.841  1.00  0.00     0.163 HD
HETATM   24  O   UNL     1     -42.024 -45.477   9.913  1.00  0.00    -0.268 OA
BRANCH  22  25
HETATM   25  C   UNL     1     -40.623 -43.303  10.977  1.00  0.00     0.149 C 
BRANCH  25  26
HETATM   26  C   UNL     1     -40.273 -42.488  12.181  1.00  0.00    -0.018 C 
HETATM   27  C   UNL     1     -40.169 -42.980  13.423  1.00  0.00     0.008 C 
ENDBRANCH  25  26
ENDBRANCH  22  25
ENDBRANCH   1  21
TORSDOF 6
ENDMDL
