MODEL 1
REMARK VINA RESULT:      -6.0      0.000      0.000
REMARK  2 active torsions:
REMARK  status: ('A' for Active; 'I' for Inactive)
REMARK    1  A    between atoms: C_6  and  C_8 
REMARK       I    between atoms: C_8  and  N_10 
REMARK    2  A    between atoms: N_10  and  C_11 
ROOT
HETATM    1  C   UNL     1     -42.297 -49.436  12.048  1.00  0.00     0.254 C 
HETATM    2  O   UNL     1     -42.930 -49.376  13.099  1.00  0.00    -0.270 OA
HETATM    3  N   UNL     1     -41.704 -50.577  11.550  1.00  0.00    -0.311 N 
HETATM    4  H   UNL     1     -40.870 -50.432  10.989  1.00  0.00     0.170 HD
ENDROOT
BRANCH   3   5
HETATM    5  C   UNL     1     -41.770 -51.801  12.216  1.00  0.00     0.108 A 
HETATM    6  C   UNL     1     -40.617 -52.436  12.678  1.00  0.00     0.055 A 
HETATM    7  C   UNL     1     -40.730 -53.663  13.328  1.00  0.00    -0.057 A 
HETATM    8  C   UNL     1     -39.526 -54.362  13.881  1.00  0.00     0.048 C 
HETATM    9  C   UNL     1     -41.997 -54.234  13.439  1.00  0.00     0.031 A 
HETATM   10  C   UNL     1     -43.100 -53.533  12.952  1.00  0.00     0.007 A 
HETATM   11  C   UNL     1     -44.461 -54.161  12.949  1.00  0.00     0.068 C 
HETATM   12  N   UNL     1     -43.006 -52.299  12.398  1.00  0.00    -0.346 N 
ATOM     13  HN  UNL     1     -43.837 -51.770  12.131  1.00  0.00     0.167 HD
ENDBRANCH   3   5
BRANCH   1  14
HETATM   14  C   UNL     1     -42.181 -48.224  11.112  1.00  0.00     0.241 C 
HETATM   15  O   UNL     1     -41.283 -47.202  11.571  1.00  0.00    -0.373 OA
HETATM   16  C   UNL     1     -41.174 -46.171  10.575  1.00  0.00     0.199 C 
HETATM   17  C   UNL     1     -42.544 -45.545  10.245  1.00  0.00     0.298 C 
HETATM   18  N   UNL     1     -43.588 -46.522   9.877  1.00  0.00     0.089 N 
HETATM   19  C   UNL     1     -43.419 -47.028   8.516  1.00  0.00     0.310 C 
HETATM   20  C   UNL     1     -43.584 -47.626  10.866  1.00  0.00     0.313 C 
ENDBRANCH   1  14
TORSDOF 2
ENDMDL
MODEL 2
REMARK VINA RESULT:      -5.9      3.526      5.244
REMARK  2 active torsions:
REMARK  status: ('A' for Active; 'I' for Inactive)
REMARK    1  A    between atoms: C_6  and  C_8 
REMARK       I    between atoms: C_8  and  N_10 
REMARK    2  A    between atoms: N_10  and  C_11 
ROOT
HETATM    1  C   UNL     1     -42.017 -51.143  12.782  1.00  0.00     0.254 C 
HETATM    2  O   UNL     1     -42.351 -52.146  12.154  1.00  0.00    -0.270 OA
HETATM    3  N   UNL     1     -42.850 -50.422  13.611  1.00  0.00    -0.311 N 
HETATM    4  H   UNL     1     -42.646 -49.430  13.686  1.00  0.00     0.170 HD
ENDROOT
BRANCH   3   5
HETATM    5  C   UNL     1     -44.184 -50.774  13.816  1.00  0.00     0.108 A 
HETATM    6  C   UNL     1     -44.723 -50.849  15.101  1.00  0.00     0.055 A 
HETATM    7  C   UNL     1     -46.057 -51.216  15.258  1.00  0.00    -0.057 A 
HETATM    8  C   UNL     1     -46.693 -51.268  16.614  1.00  0.00     0.048 C 
HETATM    9  C   UNL     1     -46.786 -51.551  14.118  1.00  0.00     0.031 A 
HETATM   10  C   UNL     1     -46.173 -51.448  12.869  1.00  0.00     0.007 A 
HETATM   11  C   UNL     1     -46.884 -51.906  11.632  1.00  0.00     0.068 C 
HETATM   12  N   UNL     1     -44.902 -51.006  12.703  1.00  0.00    -0.346 N 
ATOM     13  HN  UNL     1     -44.507 -50.856  11.775  1.00  0.00     0.167 HD
ENDBRANCH   3   5
BRANCH   1  14
HETATM   14  C   UNL     1     -40.568 -50.637  12.772  1.00  0.00     0.241 C 
HETATM   15  O   UNL     1     -40.100 -50.196  11.488  1.00  0.00    -0.373 OA
HETATM   16  C   UNL     1     -38.776 -49.650  11.617  1.00  0.00     0.199 C 
HETATM   17  C   UNL     1     -37.787 -50.677  12.202  1.00  0.00     0.298 C 
HETATM   18  N   UNL     1     -38.226 -51.293  13.470  1.00  0.00     0.089 N 
HETATM   19  C   UNL     1     -38.064 -50.391  14.609  1.00  0.00     0.310 C 
HETATM   20  C   UNL     1     -39.634 -51.734  13.328  1.00  0.00     0.313 C 
ENDBRANCH   1  14
TORSDOF 2
ENDMDL
MODEL 3
REMARK VINA RESULT:      -5.8      1.428      6.619
REMARK  2 active torsions:
REMARK  status: ('A' for Active; 'I' for Inactive)
REMARK    1  A    between atoms: C_6  and  C_8 
REMARK       I    between atoms: C_8  and  N_10 
REMARK    2  A    between atoms: N_10  and  C_11 
ROOT
HETATM    1  C   UNL     1     -42.362 -50.165  12.519  1.00  0.00     0.254 C 
HETATM    2  O   UNL     1     -43.330 -49.584  13.006  1.00  0.00    -0.270 OA
HETATM    3  N   UNL     1     -41.569 -49.662  11.510  1.00  0.00    -0.311 N 
HETATM    4  H   UNL     1     -41.145 -50.352  10.897  1.00  0.00     0.170 HD
ENDROOT
BRANCH   3   5
HETATM    5  C   UNL     1     -41.802 -48.414  10.932  1.00  0.00     0.108 A 
HETATM    6  C   UNL     1     -40.897 -47.364  11.088  1.00  0.00     0.055 A 
HETATM    7  C   UNL     1     -41.177 -46.131  10.503  1.00  0.00    -0.057 A 
HETATM    8  C   UNL     1     -40.215 -44.987  10.606  1.00  0.00     0.048 C 
HETATM    9  C   UNL     1     -42.387 -45.984   9.829  1.00  0.00     0.031 A 
HETATM   10  C   UNL     1     -43.238 -47.084   9.715  1.00  0.00     0.007 A 
HETATM   11  C   UNL     1     -44.595 -46.937   9.099  1.00  0.00     0.068 C 
HETATM   12  N   UNL     1     -42.930 -48.310  10.207  1.00  0.00    -0.346 N 
ATOM     13  HN  UNL     1     -43.528 -49.118  10.034  1.00  0.00     0.167 HD
ENDBRANCH   3   5
BRANCH   1  14
HETATM   14  C   UNL     1     -41.875 -51.512  13.073  1.00  0.00     0.241 C 
HETATM   15  O   UNL     1     -40.480 -51.774  12.856  1.00  0.00    -0.373 OA
HETATM   16  C   UNL     1     -40.114 -53.005  13.502  1.00  0.00     0.199 C 
HETATM   17  C   UNL     1     -40.949 -54.194  12.986  1.00  0.00     0.298 C 
HETATM   18  N   UNL     1     -42.410 -53.985  13.046  1.00  0.00     0.089 N 
HETATM   19  C   UNL     1     -42.934 -54.122  14.404  1.00  0.00     0.310 C 
HETATM   20  C   UNL     1     -42.728 -52.653  12.477  1.00  0.00     0.313 C 
ENDBRANCH   1  14
TORSDOF 2
ENDMDL
MODEL 4
REMARK VINA RESULT:      -5.8      0.992      2.171
REMARK  2 active torsions:
REMARK  status: ('A' for Active; 'I' for Inactive)
REMARK    1  A    between atoms: C_6  and  C_8 
REMARK       I    between atoms: C_8  and  N_10 
REMARK    2  A    between atoms: N_10  and  C_11 
ROOT
HETATM    1  C   UNL     1     -41.306 -49.818  12.181  1.00  0.00     0.254 C 
HETATM    2  O   UNL     1     -40.694 -49.774  13.246  1.00  0.00    -0.270 OA
HETATM    3  N   UNL     1     -41.973 -50.926  11.702  1.00  0.00    -0.311 N 
HETATM    4  H   UNL     1     -42.020 -51.009  10.691  1.00  0.00     0.170 HD
ENDROOT
BRANCH   3   5
HETATM    5  C   UNL     1     -42.010 -52.132  12.402  1.00  0.00     0.108 A 
HETATM    6  C   UNL     1     -43.222 -52.719  12.766  1.00  0.00     0.055 A 
HETATM    7  C   UNL     1     -43.212 -53.918  13.475  1.00  0.00    -0.057 A 
HETATM    8  C   UNL     1     -44.487 -54.610  13.850  1.00  0.00     0.048 C 
HETATM    9  C   UNL     1     -41.978 -54.454  13.841  1.00  0.00     0.031 A 
HETATM   10  C   UNL     1     -40.812 -53.806  13.437  1.00  0.00     0.007 A 
HETATM   11  C   UNL     1     -39.472 -54.285  13.906  1.00  0.00     0.068 C 
HETATM   12  N   UNL     1     -40.815 -52.687  12.671  1.00  0.00    -0.346 N 
ATOM     13  HN  UNL     1     -39.949 -52.283  12.314  1.00  0.00     0.167 HD
ENDBRANCH   3   5
BRANCH   1  14
HETATM   14  C   UNL     1     -41.469 -48.572  11.298  1.00  0.00     0.241 C 
HETATM   15  O   UNL     1     -40.610 -47.477  11.650  1.00  0.00    -0.373 OA
HETATM   16  C   UNL     1     -40.772 -46.410  10.700  1.00  0.00     0.199 C 
HETATM   17  C   UNL     1     -42.232 -45.920  10.631  1.00  0.00     0.298 C 
HETATM   18  N   UNL     1     -43.224 -46.989  10.395  1.00  0.00     0.089 N 
HETATM   19  C   UNL     1     -43.238 -47.432   9.002  1.00  0.00     0.310 C 
HETATM   20  C   UNL     1     -42.945 -48.117  11.316  1.00  0.00     0.313 C 
ENDBRANCH   1  14
TORSDOF 2
ENDMDL
MODEL 5
REMARK VINA RESULT:      -5.7      2.581      3.866
REMARK  2 active torsions:
REMARK  status: ('A' for Active; 'I' for Inactive)
REMARK    1  A    between atoms: C_6  and  C_8 
REMARK       I    between atoms: C_8  and  N_10 
REMARK    2  A    between atoms: N_10  and  C_11 
ROOT
HETATM    1  C   UNL     1     -42.722 -51.010  12.952  1.00  0.00     0.254 C 
HETATM    2  O   UNL     1     -42.146 -51.843  13.649  1.00  0.00    -0.270 OA
HETATM    3  N   UNL     1     -44.091 -50.865  12.870  1.00  0.00    -0.311 N 
HETATM    4  H   UNL     1     -44.445 -50.520  11.983  1.00  0.00     0.170 HD
ENDROOT
BRANCH   3   5
HETATM    5  C   UNL     1     -44.969 -51.676  13.589  1.00  0.00     0.108 A 
HETATM    6  C   UNL     1     -45.818 -51.141  14.558  1.00  0.00     0.055 A 
HETATM    7  C   UNL     1     -46.670 -51.990  15.260  1.00  0.00    -0.057 A 
HETATM    8  C   UNL     1     -47.631 -51.457  16.279  1.00  0.00     0.048 C 
HETATM    9  C   UNL     1     -46.597 -53.357  14.998  1.00  0.00     0.031 A 
HETATM   10  C   UNL     1     -45.723 -53.812  14.011  1.00  0.00     0.007 A 
HETATM   11  C   UNL     1     -45.531 -55.280  13.780  1.00  0.00     0.068 C 
HETATM   12  N   UNL     1     -44.955 -52.981  13.264  1.00  0.00    -0.346 N 
ATOM     13  HN  UNL     1     -44.391 -53.330  12.489  1.00  0.00     0.167 HD
ENDBRANCH   3   5
BRANCH   1  14
HETATM   14  C   UNL     1     -41.942 -49.957  12.152  1.00  0.00     0.241 C 
HETATM   15  O   UNL     1     -40.584 -49.770  12.579  1.00  0.00    -0.373 OA
HETATM   16  C   UNL     1     -39.924 -48.844  11.699  1.00  0.00     0.199 C 
HETATM   17  C   UNL     1     -40.643 -47.482  11.655  1.00  0.00     0.298 C 
HETATM   18  N   UNL     1     -42.085 -47.563  11.345  1.00  0.00     0.089 N 
HETATM   19  C   UNL     1     -42.332 -47.812   9.926  1.00  0.00     0.310 C 
HETATM   20  C   UNL     1     -42.701 -48.612  12.192  1.00  0.00     0.313 C 
ENDBRANCH   1  14
TORSDOF 2
ENDMDL
MODEL 6
REMARK VINA RESULT:      -5.5      1.543      6.758
REMARK  2 active torsions:
REMARK  status: ('A' for Active; 'I' for Inactive)
REMARK    1  A    between atoms: C_6  and  C_8 
REMARK       I    between atoms: C_8  and  N_10 
REMARK    2  A    between atoms: N_10  and  C_11 
ROOT
HETATM    1  C   UNL     1     -42.365 -50.238  12.395  1.00  0.00     0.254 C 
HETATM    2  O   UNL     1     -43.259 -49.637  12.987  1.00  0.00    -0.270 OA
HETATM    3  N   UNL     1     -41.631 -49.724  11.348  1.00  0.00    -0.311 N 
HETATM    4  H   UNL     1     -41.294 -50.401  10.670  1.00  0.00     0.170 HD
ENDROOT
BRANCH   3   5
HETATM    5  C   UNL     1     -41.845 -48.438  10.849  1.00  0.00     0.108 A 
HETATM    6  C   UNL     1     -40.918 -47.417  11.061  1.00  0.00     0.055 A 
HETATM    7  C   UNL     1     -41.179 -46.146  10.555  1.00  0.00    -0.057 A 
HETATM    8  C   UNL     1     -40.195 -45.028  10.718  1.00  0.00     0.048 C 
HETATM    9  C   UNL     1     -42.393 -45.935   9.903  1.00  0.00     0.031 A 
HETATM   10  C   UNL     1     -43.265 -47.010   9.731  1.00  0.00     0.007 A 
HETATM   11  C   UNL     1     -44.625 -46.800   9.137  1.00  0.00     0.068 C 
HETATM   12  N   UNL     1     -42.977 -48.269  10.143  1.00  0.00    -0.346 N 
ATOM     13  HN  UNL     1     -43.591 -49.054   9.927  1.00  0.00     0.167 HD
ENDBRANCH   3   5
BRANCH   1  14
HETATM   14  C   UNL     1     -41.905 -51.633  12.843  1.00  0.00     0.241 C 
HETATM   15  O   UNL     1     -42.930 -52.637  12.811  1.00  0.00    -0.373 OA
HETATM   16  C   UNL     1     -42.366 -53.916  13.148  1.00  0.00     0.199 C 
HETATM   17  C   UNL     1     -41.701 -53.901  14.539  1.00  0.00     0.298 C 
HETATM   18  N   UNL     1     -40.710 -52.823  14.730  1.00  0.00     0.089 N 
HETATM   19  C   UNL     1     -39.444 -53.109  14.056  1.00  0.00     0.310 C 
HETATM   20  C   UNL     1     -41.293 -51.544  14.259  1.00  0.00     0.313 C 
ENDBRANCH   1  14
TORSDOF 2
ENDMDL
MODEL 7
REMARK VINA RESULT:      -5.4      1.787      6.963
REMARK  2 active torsions:
REMARK  status: ('A' for Active; 'I' for Inactive)
REMARK    1  A    between atoms: C_6  and  C_8 
REMARK       I    between atoms: C_8  and  N_10 
REMARK    2  A    between atoms: N_10  and  C_11 
ROOT
HETATM    1  C   UNL     1     -40.975 -50.254  11.920  1.00  0.00     0.254 C 
HETATM    2  O   UNL     1     -40.070 -50.117  11.099  1.00  0.00    -0.270 OA
HETATM    3  N   UNL     1     -42.016 -49.368  12.098  1.00  0.00    -0.311 N 
HETATM    4  H   UNL     1     -42.397 -49.319  13.038  1.00  0.00     0.170 HD
ENDROOT
BRANCH   3   5
HETATM    5  C   UNL     1     -42.138 -48.201  11.343  1.00  0.00     0.108 A 
HETATM    6  C   UNL     1     -43.278 -47.950  10.579  1.00  0.00     0.055 A 
HETATM    7  C   UNL     1     -43.351 -46.777   9.832  1.00  0.00    -0.057 A 
HETATM    8  C   UNL     1     -44.572 -46.442   9.031  1.00  0.00     0.048 C 
HETATM    9  C   UNL     1     -42.248 -45.925   9.836  1.00  0.00     0.031 A 
HETATM   10  C   UNL     1     -41.147 -46.248  10.628  1.00  0.00     0.007 A 
HETATM   11  C   UNL     1     -39.899 -45.420  10.572  1.00  0.00     0.068 C 
HETATM   12  N   UNL     1     -41.105 -47.343  11.426  1.00  0.00    -0.346 N 
ATOM     13  HN  UNL     1     -40.326 -47.510  12.063  1.00  0.00     0.167 HD
ENDBRANCH   3   5
BRANCH   1  14
HETATM   14  C   UNL     1     -41.083 -51.515  12.789  1.00  0.00     0.241 C 
HETATM   15  O   UNL     1     -40.083 -52.510  12.522  1.00  0.00    -0.373 OA
HETATM   16  C   UNL     1     -40.216 -53.593  13.458  1.00  0.00     0.199 C 
HETATM   17  C   UNL     1     -41.615 -54.237  13.395  1.00  0.00     0.298 C 
HETATM   18  N   UNL     1     -42.733 -53.282  13.534  1.00  0.00     0.089 N 
HETATM   19  C   UNL     1     -42.924 -52.851  14.918  1.00  0.00     0.310 C 
HETATM   20  C   UNL     1     -42.494 -52.126  12.638  1.00  0.00     0.313 C 
ENDBRANCH   1  14
TORSDOF 2
ENDMDL
MODEL 8
REMARK VINA RESULT:      -5.3      5.233      7.719
REMARK  2 active torsions:
REMARK  status: ('A' for Active; 'I' for Inactive)
REMARK    1  A    between atoms: C_6  and  C_8 
REMARK       I    between atoms: C_8  and  N_10 
REMARK    2  A    between atoms: N_10  and  C_11 
ROOT
HETATM    1  C   UNL     1     -43.306 -54.527  14.972  1.00  0.00     0.254 C 
HETATM    2  O   UNL     1     -44.216 -55.320  14.741  1.00  0.00    -0.270 OA
HETATM    3  N   UNL     1     -43.457 -53.159  15.052  1.00  0.00    -0.311 N 
HETATM    4  H   UNL     1     -42.647 -52.609  14.780  1.00  0.00     0.170 HD
ENDROOT
BRANCH   3   5
HETATM    5  C   UNL     1     -44.691 -52.534  14.869  1.00  0.00     0.108 A 
HETATM    6  C   UNL     1     -45.479 -52.157  15.956  1.00  0.00     0.055 A 
HETATM    7  C   UNL     1     -46.710 -51.547  15.725  1.00  0.00    -0.057 A 
HETATM    8  C   UNL     1     -47.572 -51.085  16.860  1.00  0.00     0.048 C 
HETATM    9  C   UNL     1     -47.127 -51.389  14.405  1.00  0.00     0.031 A 
HETATM   10  C   UNL     1     -46.279 -51.791  13.374  1.00  0.00     0.007 A 
HETATM   11  C   UNL     1     -46.737 -51.743  11.948  1.00  0.00     0.068 C 
HETATM   12  N   UNL     1     -45.043 -52.304  13.591  1.00  0.00    -0.346 N 
ATOM     13  HN  UNL     1     -44.407 -52.507  12.820  1.00  0.00     0.167 HD
ENDBRANCH   3   5
BRANCH   1  14
HETATM   14  C   UNL     1     -41.885 -55.010  15.297  1.00  0.00     0.241 C 
HETATM   15  O   UNL     1     -41.773 -55.751  16.522  1.00  0.00    -0.373 OA
HETATM   16  C   UNL     1     -40.429 -56.238  16.671  1.00  0.00     0.199 C 
HETATM   17  C   UNL     1     -39.399 -55.092  16.665  1.00  0.00     0.298 C 
HETATM   18  N   UNL     1     -39.502 -54.185  15.504  1.00  0.00     0.089 N 
HETATM   19  C   UNL     1     -38.947 -54.776  14.288  1.00  0.00     0.310 C 
HETATM   20  C   UNL     1     -40.922 -53.802  15.317  1.00  0.00     0.313 C 
ENDBRANCH   1  14
TORSDOF 2
ENDMDL
MODEL 9
REMARK VINA RESULT:      -5.0      1.487      2.066
REMARK  2 active torsions:
REMARK  status: ('A' for Active; 'I' for Inactive)
REMARK    1  A    between atoms: C_6  and  C_8 
REMARK       I    between atoms: C_8  and  N_10 
REMARK    2  A    between atoms: N_10  and  C_11 
ROOT
HETATM    1  C   UNL     1     -41.874 -49.013  12.853  1.00  0.00     0.254 C 
HETATM    2  O   UNL     1     -42.503 -49.121  13.904  1.00  0.00    -0.270 OA
HETATM    3  N   UNL     1     -41.389 -50.072  12.115  1.00  0.00    -0.311 N 
HETATM    4  H   UNL     1     -40.543 -49.889  11.584  1.00  0.00     0.170 HD
ENDROOT
BRANCH   3   5
HETATM    5  C   UNL     1     -41.571 -51.399  12.508  1.00  0.00     0.108 A 
HETATM    6  C   UNL     1     -40.497 -52.181  12.932  1.00  0.00     0.055 A 
HETATM    7  C   UNL     1     -40.724 -53.504  13.303  1.00  0.00    -0.057 A 
HETATM    8  C   UNL     1     -39.610 -54.371  13.807  1.00  0.00     0.048 C 
HETATM    9  C   UNL     1     -42.018 -54.008  13.181  1.00  0.00     0.031 A 
HETATM   10  C   UNL     1     -43.037 -53.159  12.752  1.00  0.00     0.007 A 
HETATM   11  C   UNL     1     -44.415 -53.690  12.498  1.00  0.00     0.068 C 
HETATM   12  N   UNL     1     -42.839 -51.847  12.473  1.00  0.00    -0.346 N 
ATOM     13  HN  UNL     1     -43.616 -51.227  12.247  1.00  0.00     0.167 HD
ENDBRANCH   3   5
BRANCH   1  14
HETATM   14  C   UNL     1     -41.643 -47.646  12.194  1.00  0.00     0.241 C 
HETATM   15  O   UNL     1     -41.866 -47.623  10.776  1.00  0.00    -0.373 OA
HETATM   16  C   UNL     1     -41.722 -46.280  10.286  1.00  0.00     0.199 C 
HETATM   17  C   UNL     1     -40.328 -45.701  10.598  1.00  0.00     0.298 C 
HETATM   18  N   UNL     1     -39.937 -45.784  12.020  1.00  0.00     0.089 N 
HETATM   19  C   UNL     1     -40.610 -44.778  12.839  1.00  0.00     0.310 C 
HETATM   20  C   UNL     1     -40.214 -47.154  12.515  1.00  0.00     0.313 C 
ENDBRANCH   1  14
TORSDOF 2
ENDMDL
