MODEL 1
REMARK VINA RESULT:      -6.6      0.000      0.000
REMARK  6 active torsions:
REMARK  status: ('A' for Active; 'I' for Inactive)
REMARK    1  A    between atoms: C_2  and  C_5 
REMARK    2  A    between atoms: C_10  and  N_11 
REMARK       I    between atoms: N_11  and  C_12 
REMARK    3  A    between atoms: C_12  and  C_14 
REMARK    4  A    between atoms: C_14  and  O_15 
REMARK    5  A    between atoms: O_15  and  C_16 
REMARK    6  A    between atoms: C_16  and  C_17 
ROOT
HETATM    1  C   UNL     1     -45.232 -47.252   9.188  1.00  0.00     0.065 A 
HETATM    2  C   UNL     1     -45.273 -45.914   9.066  1.00  0.00     0.107 A 
HETATM    3  N   UNL     1     -44.162 -45.149   9.325  1.00  0.00    -0.331 N 
HETATM    4  C   UNL     1     -42.941 -45.667   9.691  1.00  0.00     0.272 A 
HETATM    5  O   UNL     1     -41.948 -44.968   9.871  1.00  0.00    -0.266 OA
HETATM    6  C   UNL     1     -42.871 -47.169   9.854  1.00  0.00     0.104 A 
HETATM    7  C   UNL     1     -43.991 -47.870   9.627  1.00  0.00     0.052 A 
HETATM    8  H   UNL     1     -44.198 -44.142   9.213  1.00  0.00     0.168 HD
ENDROOT
BRANCH   6   9
HETATM    9  N   UNL     1     -41.640 -47.701  10.203  1.00  0.00    -0.321 N 
HETATM   10  C   UNL     1     -41.184 -47.972  11.481  1.00  0.00     0.246 C 
HETATM   11  O   UNL     1     -41.769 -47.660  12.518  1.00  0.00    -0.271 OA
HETATM   12  H   UNL     1     -41.047 -47.927   9.407  1.00  0.00     0.169 HD
BRANCH  10  13
HETATM   13  C   UNL     1     -39.874 -48.750  11.539  1.00  0.00     0.270 C 
BRANCH  13  14
HETATM   14  O   UNL     1     -40.197 -50.121  11.327  1.00  0.00    -0.380 OA
BRANCH  14  15
HETATM   15  C   UNL     1     -40.204 -50.882  12.529  1.00  0.00     0.200 C 
BRANCH  15  16
HETATM   16  C   UNL     1     -40.830 -52.245  12.246  1.00  0.00     0.145 C 
HETATM   17  C   UNL     1     -42.278 -52.376  12.706  1.00  0.00     0.036 C 
HETATM   18  C   UNL     1     -42.396 -53.812  13.176  1.00  0.00     0.029 C 
HETATM   19  C   UNL     1     -41.017 -54.402  12.970  1.00  0.00     0.168 C 
HETATM   20  O   UNL     1     -40.117 -53.290  12.921  1.00  0.00    -0.384 OA
ENDBRANCH  15  16
ENDBRANCH  14  15
ENDBRANCH  13  14
ENDBRANCH  10  13
ENDBRANCH   6   9
BRANCH   1  21
HETATM   21  C   UNL     1     -46.395 -48.142   8.846  1.00  0.00     0.418 C 
HETATM   22  F   UNL     1     -46.313 -48.681   7.604  1.00  0.00    -0.166 F 
HETATM   23  F   UNL     1     -47.569 -47.461   8.897  1.00  0.00    -0.166 F 
HETATM   24  F   UNL     1     -46.505 -49.179   9.715  1.00  0.00    -0.166 F 
ENDBRANCH   1  21
TORSDOF 6
ENDMDL
MODEL 2
REMARK VINA RESULT:      -6.3      3.370      7.295
REMARK  6 active torsions:
REMARK  status: ('A' for Active; 'I' for Inactive)
REMARK    1  A    between atoms: C_2  and  C_5 
REMARK    2  A    between atoms: C_10  and  N_11 
REMARK       I    between atoms: N_11  and  C_12 
REMARK    3  A    between atoms: C_12  and  C_14 
REMARK    4  A    between atoms: C_14  and  O_15 
REMARK    5  A    between atoms: O_15  and  C_16 
REMARK    6  A    between atoms: C_16  and  C_17 
ROOT
HETATM    1  C   UNL     1     -43.706 -54.010  13.568  1.00  0.00     0.065 A 
HETATM    2  C   UNL     1     -42.733 -54.697  14.190  1.00  0.00     0.107 A 
HETATM    3  N   UNL     1     -41.411 -54.395  13.979  1.00  0.00    -0.331 N 
HETATM    4  C   UNL     1     -40.976 -53.377  13.161  1.00  0.00     0.272 A 
HETATM    5  O   UNL     1     -39.790 -53.093  13.023  1.00  0.00    -0.266 OA
HETATM    6  C   UNL     1     -42.049 -52.598  12.433  1.00  0.00     0.104 A 
HETATM    7  C   UNL     1     -43.325 -52.954  12.643  1.00  0.00     0.052 A 
HETATM    8  H   UNL     1     -40.685 -54.909  14.466  1.00  0.00     0.168 HD
ENDROOT
BRANCH   6   9
HETATM    9  N   UNL     1     -41.623 -51.557  11.625  1.00  0.00    -0.321 N 
HETATM   10  C   UNL     1     -41.348 -50.259  12.017  1.00  0.00     0.246 C 
HETATM   11  O   UNL     1     -41.565 -49.801  13.139  1.00  0.00    -0.271 OA
HETATM   12  H   UNL     1     -41.483 -51.820  10.651  1.00  0.00     0.169 HD
BRANCH  10  13
HETATM   13  C   UNL     1     -40.695 -49.393  10.945  1.00  0.00     0.270 C 
BRANCH  13  14
HETATM   14  O   UNL     1     -41.724 -48.587  10.380  1.00  0.00    -0.380 OA
BRANCH  14  15
HETATM   15  C   UNL     1     -41.624 -47.218  10.754  1.00  0.00     0.200 C 
BRANCH  15  16
HETATM   16  C   UNL     1     -42.953 -46.528  10.458  1.00  0.00     0.145 C 
HETATM   17  C   UNL     1     -44.122 -47.484  10.252  1.00  0.00     0.036 C 
HETATM   18  C   UNL     1     -44.969 -46.822   9.182  1.00  0.00     0.029 C 
HETATM   19  C   UNL     1     -44.229 -45.546   8.839  1.00  0.00     0.168 C 
HETATM   20  O   UNL     1     -42.875 -45.752   9.253  1.00  0.00    -0.384 OA
ENDBRANCH  15  16
ENDBRANCH  14  15
ENDBRANCH  13  14
ENDBRANCH  10  13
ENDBRANCH   6   9
BRANCH   1  21
HETATM   21  C   UNL     1     -45.169 -54.249  13.820  1.00  0.00     0.418 C 
HETATM   22  F   UNL     1     -45.485 -54.306  15.138  1.00  0.00    -0.166 F 
HETATM   23  F   UNL     1     -45.579 -55.421  13.272  1.00  0.00    -0.166 F 
HETATM   24  F   UNL     1     -45.937 -53.271  13.276  1.00  0.00    -0.166 F 
ENDBRANCH   1  21
TORSDOF 6
ENDMDL
MODEL 3
REMARK VINA RESULT:      -6.2      5.106      6.998
REMARK  6 active torsions:
REMARK  status: ('A' for Active; 'I' for Inactive)
REMARK    1  A    between atoms: C_2  and  C_5 
REMARK    2  A    between atoms: C_10  and  N_11 
REMARK       I    between atoms: N_11  and  C_12 
REMARK    3  A    between atoms: C_12  and  C_14 
REMARK    4  A    between atoms: C_14  and  O_15 
REMARK    5  A    between atoms: O_15  and  C_16 
REMARK    6  A    between atoms: C_16  and  C_17 
ROOT
HETATM    1  C   UNL     1     -45.242 -52.735  13.648  1.00  0.00     0.065 A 
HETATM    2  C   UNL     1     -45.932 -53.854  13.928  1.00  0.00     0.107 A 
HETATM    3  N   UNL     1     -45.301 -54.963  14.435  1.00  0.00    -0.331 N 
HETATM    4  C   UNL     1     -43.956 -55.018  14.721  1.00  0.00     0.272 A 
HETATM    5  O   UNL     1     -43.421 -56.005  15.219  1.00  0.00    -0.266 OA
HETATM    6  C   UNL     1     -43.151 -53.780  14.399  1.00  0.00     0.104 A 
HETATM    7  C   UNL     1     -43.805 -52.735  13.869  1.00  0.00     0.052 A 
HETATM    8  H   UNL     1     -45.834 -55.796  14.660  1.00  0.00     0.168 HD
ENDROOT
BRANCH   6   9
HETATM    9  N   UNL     1     -41.800 -53.819  14.702  1.00  0.00    -0.321 N 
HETATM   10  C   UNL     1     -40.760 -54.090  13.830  1.00  0.00     0.246 C 
HETATM   11  O   UNL     1     -40.898 -54.463  12.665  1.00  0.00    -0.271 OA
HETATM   12  H   UNL     1     -41.586 -53.594  15.671  1.00  0.00     0.169 HD
BRANCH  10  13
HETATM   13  C   UNL     1     -39.367 -53.853  14.404  1.00  0.00     0.270 C 
BRANCH  13  14
HETATM   14  O   UNL     1     -38.764 -52.831  13.618  1.00  0.00    -0.380 OA
BRANCH  14  15
HETATM   15  C   UNL     1     -38.507 -51.643  14.356  1.00  0.00     0.200 C 
BRANCH  15  16
HETATM   16  C   UNL     1     -37.863 -50.616  13.428  1.00  0.00     0.145 C 
HETATM   17  C   UNL     1     -38.761 -49.433  13.083  1.00  0.00     0.036 C 
HETATM   18  C   UNL     1     -38.415 -49.101  11.645  1.00  0.00     0.029 C 
HETATM   19  C   UNL     1     -37.359 -50.115  11.257  1.00  0.00     0.168 C 
HETATM   20  O   UNL     1     -37.509 -51.208  12.170  1.00  0.00    -0.384 OA
ENDBRANCH  15  16
ENDBRANCH  14  15
ENDBRANCH  13  14
ENDBRANCH  10  13
ENDBRANCH   6   9
BRANCH   1  21
HETATM   21  C   UNL     1     -45.893 -51.470  13.162  1.00  0.00     0.418 C 
HETATM   22  F   UNL     1     -46.807 -50.968  14.030  1.00  0.00    -0.166 F 
HETATM   23  F   UNL     1     -46.543 -51.669  11.987  1.00  0.00    -0.166 F 
HETATM   24  F   UNL     1     -44.981 -50.489  12.945  1.00  0.00    -0.166 F 
ENDBRANCH   1  21
TORSDOF 6
ENDMDL
MODEL 4
REMARK VINA RESULT:      -6.1      3.179      5.882
REMARK  6 active torsions:
REMARK  status: ('A' for Active; 'I' for Inactive)
REMARK    1  A    between atoms: C_2  and  C_5 
REMARK    2  A    between atoms: C_10  and  N_11 
REMARK       I    between atoms: N_11  and  C_12 
REMARK    3  A    between atoms: C_12  and  C_14 
REMARK    4  A    between atoms: C_14  and  O_15 
REMARK    5  A    between atoms: O_15  and  C_16 
REMARK    6  A    between atoms: C_16  and  C_17 
ROOT
HETATM    1  C   UNL     1     -44.953 -51.914  13.217  1.00  0.00     0.065 A 
HETATM    2  C   UNL     1     -44.604 -53.049  12.587  1.00  0.00     0.107 A 
HETATM    3  N   UNL     1     -43.342 -53.208  12.070  1.00  0.00    -0.331 N 
HETATM    4  C   UNL     1     -42.345 -52.265  12.172  1.00  0.00     0.272 A 
HETATM    5  O   UNL     1     -41.209 -52.447  11.744  1.00  0.00    -0.266 OA
HETATM    6  C   UNL     1     -42.715 -50.970  12.860  1.00  0.00     0.104 A 
HETATM    7  C   UNL     1     -43.971 -50.847  13.315  1.00  0.00     0.052 A 
HETATM    8  H   UNL     1     -43.083 -54.075  11.611  1.00  0.00     0.168 HD
ENDROOT
BRANCH   6   9
HETATM    9  N   UNL     1     -41.713 -50.023  12.987  1.00  0.00    -0.321 N 
HETATM   10  C   UNL     1     -40.784 -49.927  14.009  1.00  0.00     0.246 C 
HETATM   11  O   UNL     1     -40.794 -50.607  15.034  1.00  0.00    -0.271 OA
HETATM   12  H   UNL     1     -41.668 -49.361  12.215  1.00  0.00     0.169 HD
BRANCH  10  13
HETATM   13  C   UNL     1     -39.673 -48.910  13.768  1.00  0.00     0.270 C 
BRANCH  13  14
HETATM   14  O   UNL     1     -39.623 -48.677  12.364  1.00  0.00    -0.380 OA
BRANCH  14  15
HETATM   15  C   UNL     1     -39.634 -47.294  12.031  1.00  0.00     0.200 C 
BRANCH  15  16
HETATM   16  C   UNL     1     -40.897 -46.991  11.228  1.00  0.00     0.145 C 
HETATM   17  C   UNL     1     -42.095 -46.581  12.077  1.00  0.00     0.036 C 
HETATM   18  C   UNL     1     -43.289 -47.183  11.362  1.00  0.00     0.029 C 
HETATM   19  C   UNL     1     -42.701 -47.905  10.168  1.00  0.00     0.168 C 
HETATM   20  O   UNL     1     -41.327 -48.143  10.489  1.00  0.00    -0.384 OA
ENDBRANCH  15  16
ENDBRANCH  14  15
ENDBRANCH  13  14
ENDBRANCH  10  13
ENDBRANCH   6   9
BRANCH   1  21
HETATM   21  C   UNL     1     -46.295 -51.716  13.866  1.00  0.00     0.418 C 
HETATM   22  F   UNL     1     -46.248 -50.930  14.971  1.00  0.00    -0.166 F 
HETATM   23  F   UNL     1     -46.834 -52.900  14.255  1.00  0.00    -0.166 F 
HETATM   24  F   UNL     1     -47.183 -51.142  13.016  1.00  0.00    -0.166 F 
ENDBRANCH   1  21
TORSDOF 6
ENDMDL
MODEL 5
REMARK VINA RESULT:      -6.1      2.311      3.485
REMARK  6 active torsions:
REMARK  status: ('A' for Active; 'I' for Inactive)
REMARK    1  A    between atoms: C_2  and  C_5 
REMARK    2  A    between atoms: C_10  and  N_11 
REMARK       I    between atoms: N_11  and  C_12 
REMARK    3  A    between atoms: C_12  and  C_14 
REMARK    4  A    between atoms: C_14  and  O_15 
REMARK    5  A    between atoms: O_15  and  C_16 
REMARK    6  A    between atoms: C_16  and  C_17 
ROOT
HETATM    1  C   UNL     1     -42.542 -46.733   9.936  1.00  0.00     0.065 A 
HETATM    2  C   UNL     1     -41.690 -45.845  10.476  1.00  0.00     0.107 A 
HETATM    3  N   UNL     1     -40.611 -46.263  11.215  1.00  0.00    -0.331 N 
HETATM    4  C   UNL     1     -40.298 -47.585  11.438  1.00  0.00     0.272 A 
HETATM    5  O   UNL     1     -39.302 -47.938  12.062  1.00  0.00    -0.266 OA
HETATM    6  C   UNL     1     -41.250 -48.606  10.857  1.00  0.00     0.104 A 
HETATM    7  C   UNL     1     -42.311 -48.148  10.175  1.00  0.00     0.052 A 
HETATM    8  H   UNL     1     -39.964 -45.586  11.604  1.00  0.00     0.168 HD
ENDROOT
BRANCH   6   9
HETATM    9  N   UNL     1     -40.933 -49.939  11.058  1.00  0.00    -0.321 N 
HETATM   10  C   UNL     1     -41.360 -50.747  12.097  1.00  0.00     0.246 C 
HETATM   11  O   UNL     1     -41.996 -50.358  13.076  1.00  0.00    -0.271 OA
HETATM   12  H   UNL     1     -40.343 -50.339  10.332  1.00  0.00     0.169 HD
BRANCH  10  13
HETATM   13  C   UNL     1     -41.018 -52.225  11.939  1.00  0.00     0.270 C 
BRANCH  13  14
HETATM   14  O   UNL     1     -41.182 -52.828  13.218  1.00  0.00    -0.380 OA
BRANCH  14  15
HETATM   15  C   UNL     1     -41.952 -54.023  13.174  1.00  0.00     0.200 C 
BRANCH  15  16
HETATM   16  C   UNL     1     -43.341 -53.734  13.738  1.00  0.00     0.145 C 
HETATM   17  C   UNL     1     -44.006 -54.932  14.407  1.00  0.00     0.036 C 
HETATM   18  C   UNL     1     -45.478 -54.783  14.073  1.00  0.00     0.029 C 
HETATM   19  C   UNL     1     -45.558 -53.528  13.230  1.00  0.00     0.168 C 
HETATM   20  O   UNL     1     -44.244 -53.325  12.701  1.00  0.00    -0.384 OA
ENDBRANCH  15  16
ENDBRANCH  14  15
ENDBRANCH  13  14
ENDBRANCH  10  13
ENDBRANCH   6   9
BRANCH   1  21
HETATM   21  C   UNL     1     -43.695 -46.333   9.057  1.00  0.00     0.418 C 
HETATM   22  F   UNL     1     -43.491 -46.609   7.744  1.00  0.00    -0.166 F 
HETATM   23  F   UNL     1     -43.939 -45.000   9.140  1.00  0.00    -0.166 F 
HETATM   24  F   UNL     1     -44.841 -46.965   9.416  1.00  0.00    -0.166 F 
ENDBRANCH   1  21
TORSDOF 6
ENDMDL
MODEL 6
REMARK VINA RESULT:      -6.1      3.298      6.624
REMARK  6 active torsions:
REMARK  status: ('A' for Active; 'I' for Inactive)
REMARK    1  A    between atoms: C_2  and  C_5 
REMARK    2  A    between atoms: C_10  and  N_11 
REMARK       I    between atoms: N_11  and  C_12 
REMARK    3  A    between atoms: C_12  and  C_14 
REMARK    4  A    between atoms: C_14  and  O_15 
REMARK    5  A    between atoms: O_15  and  C_16 
REMARK    6  A    between atoms: C_16  and  C_17 
ROOT
HETATM    1  C   UNL     1     -45.160 -52.204  14.130  1.00  0.00     0.065 A 
HETATM    2  C   UNL     1     -44.666 -53.412  14.454  1.00  0.00     0.107 A 
HETATM    3  N   UNL     1     -43.446 -53.825  13.978  1.00  0.00    -0.331 N 
HETATM    4  C   UNL     1     -42.633 -53.055  13.177  1.00  0.00     0.272 A 
HETATM    5  O   UNL     1     -41.524 -53.425  12.802  1.00  0.00    -0.266 OA
HETATM    6  C   UNL     1     -43.172 -51.698  12.782  1.00  0.00     0.104 A 
HETATM    7  C   UNL     1     -44.385 -51.355  13.241  1.00  0.00     0.052 A 
HETATM    8  H   UNL     1     -43.074 -54.730  14.242  1.00  0.00     0.168 HD
ENDROOT
BRANCH   6   9
HETATM    9  N   UNL     1     -42.352 -50.908  11.993  1.00  0.00    -0.321 N 
HETATM   10  C   UNL     1     -41.396 -50.008  12.430  1.00  0.00     0.246 C 
HETATM   11  O   UNL     1     -41.219 -49.684  13.604  1.00  0.00    -0.271 OA
HETATM   12  H   UNL     1     -42.476 -51.052  10.993  1.00  0.00     0.169 HD
BRANCH  10  13
HETATM   13  C   UNL     1     -40.505 -49.440  11.331  1.00  0.00     0.270 C 
BRANCH  13  14
HETATM   14  O   UNL     1     -41.326 -48.607  10.520  1.00  0.00    -0.380 OA
BRANCH  14  15
HETATM   15  C   UNL     1     -41.425 -47.276  11.013  1.00  0.00     0.200 C 
BRANCH  15  16
HETATM   16  C   UNL     1     -42.767 -46.689  10.583  1.00  0.00     0.145 C 
HETATM   17  C   UNL     1     -43.936 -47.662  10.680  1.00  0.00     0.036 C 
HETATM   18  C   UNL     1     -44.819 -47.312   9.498  1.00  0.00     0.029 C 
HETATM   19  C   UNL     1     -44.097 -46.179   8.799  1.00  0.00     0.168 C 
HETATM   20  O   UNL     1     -42.730 -46.269   9.212  1.00  0.00    -0.384 OA
ENDBRANCH  15  16
ENDBRANCH  14  15
ENDBRANCH  13  14
ENDBRANCH  10  13
ENDBRANCH   6   9
BRANCH   1  21
HETATM   21  C   UNL     1     -46.454 -51.673  14.683  1.00  0.00     0.418 C 
HETATM   22  F   UNL     1     -47.197 -51.005  13.765  1.00  0.00    -0.166 F 
HETATM   23  F   UNL     1     -46.235 -50.809  15.707  1.00  0.00    -0.166 F 
HETATM   24  F   UNL     1     -47.237 -52.669  15.170  1.00  0.00    -0.166 F 
ENDBRANCH   1  21
TORSDOF 6
ENDMDL
MODEL 7
REMARK VINA RESULT:      -6.0      2.180      2.415
REMARK  6 active torsions:
REMARK  status: ('A' for Active; 'I' for Inactive)
REMARK    1  A    between atoms: C_2  and  C_5 
REMARK    2  A    between atoms: C_10  and  N_11 
REMARK       I    between atoms: N_11  and  C_12 
REMARK    3  A    between atoms: C_12  and  C_14 
REMARK    4  A    between atoms: C_14  and  O_15 
REMARK    5  A    between atoms: O_15  and  C_16 
REMARK    6  A    between atoms: C_16  and  C_17 
ROOT
HETATM    1  C   UNL     1     -44.694 -47.427   9.303  1.00  0.00     0.065 A 
HETATM    2  C   UNL     1     -43.879 -46.645   8.574  1.00  0.00     0.107 A 
HETATM    3  N   UNL     1     -42.628 -46.311   9.032  1.00  0.00    -0.331 N 
HETATM    4  C   UNL     1     -42.102 -46.755  10.224  1.00  0.00     0.272 A 
HETATM    5  O   UNL     1     -40.963 -46.483  10.593  1.00  0.00    -0.266 OA
HETATM    6  C   UNL     1     -43.005 -47.622  11.074  1.00  0.00     0.104 A 
HETATM    7  C   UNL     1     -44.231 -47.889  10.601  1.00  0.00     0.052 A 
HETATM    8  H   UNL     1     -42.014 -45.735   8.468  1.00  0.00     0.168 HD
ENDROOT
BRANCH   6   9
HETATM    9  N   UNL     1     -42.477 -48.091  12.265  1.00  0.00    -0.321 N 
HETATM   10  C   UNL     1     -42.704 -47.581  13.532  1.00  0.00     0.246 C 
HETATM   11  O   UNL     1     -43.321 -46.543  13.773  1.00  0.00    -0.271 OA
HETATM   12  H   UNL     1     -41.887 -48.913  12.162  1.00  0.00     0.169 HD
BRANCH  10  13
HETATM   13  C   UNL     1     -42.156 -48.434  14.671  1.00  0.00     0.270 C 
BRANCH  13  14
HETATM   14  O   UNL     1     -41.989 -49.751  14.158  1.00  0.00    -0.380 OA
BRANCH  14  15
HETATM   15  C   UNL     1     -42.998 -50.651  14.599  1.00  0.00     0.200 C 
BRANCH  15  16
HETATM   16  C   UNL     1     -43.625 -51.324  13.381  1.00  0.00     0.145 C 
HETATM   17  C   UNL     1     -45.141 -51.184  13.301  1.00  0.00     0.036 C 
HETATM   18  C   UNL     1     -45.612 -52.499  12.710  1.00  0.00     0.029 C 
HETATM   19  C   UNL     1     -44.347 -53.306  12.505  1.00  0.00     0.168 C 
HETATM   20  O   UNL     1     -43.370 -52.736  13.383  1.00  0.00    -0.384 OA
ENDBRANCH  15  16
ENDBRANCH  14  15
ENDBRANCH  13  14
ENDBRANCH  10  13
ENDBRANCH   6   9
BRANCH   1  21
HETATM   21  C   UNL     1     -46.042 -47.884   8.817  1.00  0.00     0.418 C 
HETATM   22  F   UNL     1     -46.000 -48.484   7.601  1.00  0.00    -0.166 F 
HETATM   23  F   UNL     1     -46.905 -46.842   8.706  1.00  0.00    -0.166 F 
HETATM   24  F   UNL     1     -46.608 -48.773   9.672  1.00  0.00    -0.166 F 
ENDBRANCH   1  21
TORSDOF 6
ENDMDL
MODEL 8
REMARK VINA RESULT:      -5.9      3.728      5.427
REMARK  6 active torsions:
REMARK  status: ('A' for Active; 'I' for Inactive)
REMARK    1  A    between atoms: C_2  and  C_5 
REMARK    2  A    between atoms: C_10  and  N_11 
REMARK       I    between atoms: N_11  and  C_12 
REMARK    3  A    between atoms: C_12  and  C_14 
REMARK    4  A    between atoms: C_14  and  O_15 
REMARK    5  A    between atoms: O_15  and  C_16 
REMARK    6  A    between atoms: C_16  and  C_17 
ROOT
HETATM    1  C   UNL     1     -44.961 -51.882  13.215  1.00  0.00     0.065 A 
HETATM    2  C   UNL     1     -44.534 -53.008  12.620  1.00  0.00     0.107 A 
HETATM    3  N   UNL     1     -43.262 -53.098  12.112  1.00  0.00    -0.331 N 
HETATM    4  C   UNL     1     -42.330 -52.087  12.189  1.00  0.00     0.272 A 
HETATM    5  O   UNL     1     -41.182 -52.206  11.770  1.00  0.00    -0.266 OA
HETATM    6  C   UNL     1     -42.790 -50.801  12.838  1.00  0.00     0.104 A 
HETATM    7  C   UNL     1     -44.053 -50.749  13.285  1.00  0.00     0.052 A 
HETATM    8  H   UNL     1     -42.943 -53.958  11.679  1.00  0.00     0.168 HD
ENDROOT
BRANCH   6   9
HETATM    9  N   UNL     1     -41.853 -49.786  12.940  1.00  0.00    -0.321 N 
HETATM   10  C   UNL     1     -41.727 -48.686  12.109  1.00  0.00     0.246 C 
HETATM   11  O   UNL     1     -42.363 -48.512  11.070  1.00  0.00    -0.271 OA
HETATM   12  H   UNL     1     -41.226 -49.879  13.735  1.00  0.00     0.169 HD
BRANCH  10  13
HETATM   13  C   UNL     1     -40.739 -47.630  12.594  1.00  0.00     0.270 C 
BRANCH  13  14
HETATM   14  O   UNL     1     -40.375 -47.983  13.924  1.00  0.00    -0.380 OA
BRANCH  14  15
HETATM   15  C   UNL     1     -38.997 -47.767  14.198  1.00  0.00     0.200 C 
BRANCH  15  16
HETATM   16  C   UNL     1     -38.264 -49.105  14.126  1.00  0.00     0.145 C 
HETATM   17  C   UNL     1     -37.615 -49.391  12.777  1.00  0.00     0.036 C 
HETATM   18  C   UNL     1     -37.774 -50.887  12.591  1.00  0.00     0.029 C 
HETATM   19  C   UNL     1     -38.510 -51.356  13.829  1.00  0.00     0.168 C 
HETATM   20  O   UNL     1     -39.164 -50.198  14.359  1.00  0.00    -0.384 OA
ENDBRANCH  15  16
ENDBRANCH  14  15
ENDBRANCH  13  14
ENDBRANCH  10  13
ENDBRANCH   6   9
BRANCH   1  21
HETATM   21  C   UNL     1     -46.317 -51.755  13.854  1.00  0.00     0.418 C 
HETATM   22  F   UNL     1     -46.309 -51.014  14.991  1.00  0.00    -0.166 F 
HETATM   23  F   UNL     1     -46.820 -52.972  14.189  1.00  0.00    -0.166 F 
HETATM   24  F   UNL     1     -47.214 -51.176  13.016  1.00  0.00    -0.166 F 
ENDBRANCH   1  21
TORSDOF 6
ENDMDL
MODEL 9
REMARK VINA RESULT:      -5.9      2.427      2.902
REMARK  6 active torsions:
REMARK  status: ('A' for Active; 'I' for Inactive)
REMARK    1  A    between atoms: C_2  and  C_5 
REMARK    2  A    between atoms: C_10  and  N_11 
REMARK       I    between atoms: N_11  and  C_12 
REMARK    3  A    between atoms: C_12  and  C_14 
REMARK    4  A    between atoms: C_14  and  O_15 
REMARK    5  A    between atoms: O_15  and  C_16 
REMARK    6  A    between atoms: C_16  and  C_17 
ROOT
HETATM    1  C   UNL     1     -44.626 -47.423   9.344  1.00  0.00     0.065 A 
HETATM    2  C   UNL     1     -43.745 -46.769   8.567  1.00  0.00     0.107 A 
HETATM    3  N   UNL     1     -42.502 -46.431   9.043  1.00  0.00    -0.331 N 
HETATM    4  C   UNL     1     -42.050 -46.746  10.305  1.00  0.00     0.272 A 
HETATM    5  O   UNL     1     -40.917 -46.476  10.693  1.00  0.00    -0.266 OA
HETATM    6  C   UNL     1     -43.028 -47.466  11.206  1.00  0.00     0.104 A 
HETATM    7  C   UNL     1     -44.243 -47.741  10.710  1.00  0.00     0.052 A 
HETATM    8  H   UNL     1     -41.838 -45.953   8.444  1.00  0.00     0.168 HD
ENDROOT
BRANCH   6   9
HETATM    9  N   UNL     1     -42.575 -47.806  12.470  1.00  0.00    -0.321 N 
HETATM   10  C   UNL     1     -42.256 -49.073  12.926  1.00  0.00     0.246 C 
HETATM   11  O   UNL     1     -42.449 -50.115  12.301  1.00  0.00    -0.271 OA
HETATM   12  H   UNL     1     -42.451 -47.010  13.094  1.00  0.00     0.169 HD
BRANCH  10  13
HETATM   13  C   UNL     1     -41.584 -49.109  14.295  1.00  0.00     0.270 C 
BRANCH  13  14
HETATM   14  O   UNL     1     -40.464 -49.981  14.183  1.00  0.00    -0.380 OA
BRANCH  14  15
HETATM   15  C   UNL     1     -39.296 -49.466  14.810  1.00  0.00     0.200 C 
BRANCH  15  16
HETATM   16  C   UNL     1     -38.098 -49.705  13.893  1.00  0.00     0.145 C 
HETATM   17  C   UNL     1     -38.178 -48.975  12.557  1.00  0.00     0.036 C 
HETATM   18  C   UNL     1     -37.541 -49.930  11.566  1.00  0.00     0.029 C 
HETATM   19  C   UNL     1     -37.154 -51.140  12.389  1.00  0.00     0.168 C 
HETATM   20  O   UNL     1     -37.970 -51.095  13.563  1.00  0.00    -0.384 OA
ENDBRANCH  15  16
ENDBRANCH  14  15
ENDBRANCH  13  14
ENDBRANCH  10  13
ENDBRANCH   6   9
BRANCH   1  21
HETATM   21  C   UNL     1     -45.970 -47.883   8.851  1.00  0.00     0.418 C 
HETATM   22  F   UNL     1     -45.915 -48.521   7.654  1.00  0.00    -0.166 F 
HETATM   23  F   UNL     1     -46.822 -46.837   8.693  1.00  0.00    -0.166 F 
HETATM   24  F   UNL     1     -46.558 -48.740   9.723  1.00  0.00    -0.166 F 
ENDBRANCH   1  21
TORSDOF 6
ENDMDL
