MODEL 1
REMARK VINA RESULT:      -7.6      0.000      0.000
REMARK  4 active torsions:
REMARK  status: ('A' for Active; 'I' for Inactive)
REMARK    1  A    between atoms: N_1  and  C_8 
REMARK    2  A    between atoms: N_2  and  C_7 
REMARK    3  A    between atoms: C_8  and  C_9 
REMARK       I    between atoms: C_9  and  N_13 
REMARK    4  A    between atoms: N_13  and  C_16 
ROOT
HETATM    1  C   UNL     1     -39.046 -50.933  12.657  1.00  0.00     0.240 C 
ENDROOT
BRANCH   1   2
HETATM    2  N   UNL     1     -38.907 -49.531  13.065  1.00  0.00    -0.255 N 
HETATM    3  C   UNL     1     -39.546 -48.558  12.286  1.00  0.00     0.334 C 
HETATM    4  N   UNL     1     -39.461 -47.240  12.763  1.00  0.00    -0.279 N 
HETATM    5  O   UNL     1     -40.122 -48.854  11.234  1.00  0.00    -0.246 OA
HETATM    6  C   UNL     1     -38.528 -46.906  13.732  1.00  0.00     0.146 C 
HETATM    7  C   UNL     1     -37.756 -47.816  14.299  1.00  0.00     0.200 C 
HETATM    8  C   UNL     1     -37.914 -49.242  13.986  1.00  0.00     0.292 C 
HETATM    9  F   UNL     1     -36.763 -47.473  15.156  1.00  0.00    -0.199 F 
HETATM   10  O   UNL     1     -37.160 -50.075  14.481  1.00  0.00    -0.264 OA
BRANCH   4  11
HETATM   11  C   UNL     1     -40.197 -46.170  12.079  1.00  0.00     0.232 C 
HETATM   12  O   UNL     1     -39.731 -46.105  10.718  1.00  0.00    -0.366 OA
HETATM   13  C   UNL     1     -39.685 -44.738  10.295  1.00  0.00     0.170 C 
HETATM   14  C   UNL     1     -40.133 -43.866  11.445  1.00  0.00     0.031 C 
HETATM   15  C   UNL     1     -40.014 -44.764  12.656  1.00  0.00     0.056 C 
ENDBRANCH   4  11
ENDBRANCH   1   2
BRANCH   1  16
HETATM   16  C   UNL     1     -40.313 -51.575  13.230  1.00  0.00     0.240 C 
HETATM   17  N   UNL     1     -41.455 -51.209  12.534  1.00  0.00    -0.326 N 
HETATM   18  H   UNL     1     -41.340 -50.492  11.827  1.00  0.00     0.169 HD
HETATM   19  O   UNL     1     -40.266 -52.315  14.208  1.00  0.00    -0.271 OA
BRANCH  17  20
HETATM   20  C   UNL     1     -42.783 -51.631  12.748  1.00  0.00     0.037 C 
HETATM   21  C   UNL     1     -43.282 -52.884  12.388  1.00  0.00     0.069 C 
HETATM   22  C   UNL     1     -44.592 -53.221  12.738  1.00  0.00     0.104 C 
HETATM   23  C   UNL     1     -45.451 -52.267  13.287  1.00  0.00     0.102 C 
HETATM   24  O   UNL     1     -44.987 -54.532  12.649  1.00  0.00    -0.348 OA
HETATM   25  O   UNL     1     -46.768 -52.562  13.505  1.00  0.00    -0.348 OA
HETATM   26  C   UNL     1     -44.977 -51.013  13.613  1.00  0.00     0.042 C 
HETATM   27  C   UNL     1     -46.898 -53.304  14.715  1.00  0.00     0.178 C 
HETATM   28  C   UNL     1     -46.558 -54.781  14.551  1.00  0.00     0.053 C 
HETATM   29  C   UNL     1     -45.161 -55.043  13.986  1.00  0.00     0.178 C 
HETATM   30  C   UNL     1     -43.630 -50.715  13.398  1.00  0.00     0.032 C 
ENDBRANCH  17  20
ENDBRANCH   1  16
TORSDOF 4
ENDMDL
MODEL 2
REMARK VINA RESULT:      -7.4      2.298      2.773
REMARK  4 active torsions:
REMARK  status: ('A' for Active; 'I' for Inactive)
REMARK    1  A    between atoms: N_1  and  C_8 
REMARK    2  A    between atoms: N_2  and  C_7 
REMARK    3  A    between atoms: C_8  and  C_9 
REMARK       I    between atoms: C_9  and  N_13 
REMARK    4  A    between atoms: N_13  and  C_16 
ROOT
HETATM    1  C   UNL     1     -38.137 -51.608  14.527  1.00  0.00     0.240 C 
ENDROOT
BRANCH   1   2
HETATM    2  N   UNL     1     -38.146 -50.620  13.444  1.00  0.00    -0.255 N 
HETATM    3  C   UNL     1     -39.139 -49.632  13.470  1.00  0.00     0.334 C 
HETATM    4  N   UNL     1     -39.055 -48.655  12.465  1.00  0.00    -0.279 N 
HETATM    5  O   UNL     1     -40.040 -49.648  14.315  1.00  0.00    -0.246 OA
HETATM    6  C   UNL     1     -38.259 -48.865  11.350  1.00  0.00     0.146 C 
HETATM    7  C   UNL     1     -37.494 -49.935  11.232  1.00  0.00     0.200 C 
HETATM    8  C   UNL     1     -37.386 -50.912  12.324  1.00  0.00     0.292 C 
HETATM    9  F   UNL     1     -36.811 -50.200  10.091  1.00  0.00    -0.199 F 
HETATM   10  O   UNL     1     -36.710 -51.927  12.187  1.00  0.00    -0.264 OA
BRANCH   4  11
HETATM   11  C   UNL     1     -39.980 -47.515  12.479  1.00  0.00     0.232 C 
HETATM   12  O   UNL     1     -40.232 -47.126  11.116  1.00  0.00    -0.366 OA
HETATM   13  C   UNL     1     -40.334 -45.700  11.039  1.00  0.00     0.170 C 
HETATM   14  C   UNL     1     -40.126 -45.130  12.423  1.00  0.00     0.031 C 
HETATM   15  C   UNL     1     -39.475 -46.258  13.192  1.00  0.00     0.056 C 
ENDBRANCH   4  11
ENDBRANCH   1   2
BRANCH   1  16
HETATM   16  C   UNL     1     -39.165 -52.721  14.297  1.00  0.00     0.240 C 
HETATM   17  N   UNL     1     -40.419 -52.396  14.790  1.00  0.00    -0.326 N 
HETATM   18  H   UNL     1     -40.482 -51.542  15.332  1.00  0.00     0.169 HD
HETATM   19  O   UNL     1     -38.853 -53.770  13.741  1.00  0.00    -0.271 OA
BRANCH  17  20
HETATM   20  C   UNL     1     -41.608 -53.151  14.723  1.00  0.00     0.037 C 
HETATM   21  C   UNL     1     -42.246 -53.721  15.826  1.00  0.00     0.069 C 
HETATM   22  C   UNL     1     -43.470 -54.369  15.644  1.00  0.00     0.104 C 
HETATM   23  C   UNL     1     -43.974 -54.596  14.362  1.00  0.00     0.102 C 
HETATM   24  O   UNL     1     -44.232 -54.670  16.746  1.00  0.00    -0.348 OA
HETATM   25  O   UNL     1     -45.104 -55.344  14.182  1.00  0.00    -0.348 OA
HETATM   26  C   UNL     1     -43.331 -54.067  13.261  1.00  0.00     0.042 C 
HETATM   27  C   UNL     1     -46.254 -54.542  14.438  1.00  0.00     0.178 C 
HETATM   28  C   UNL     1     -46.554 -54.383  15.924  1.00  0.00     0.053 C 
HETATM   29  C   UNL     1     -45.392 -53.814  16.741  1.00  0.00     0.178 C 
HETATM   30  C   UNL     1     -42.182 -53.296  13.447  1.00  0.00     0.032 C 
ENDBRANCH  17  20
ENDBRANCH   1  16
TORSDOF 4
ENDMDL
MODEL 3
REMARK VINA RESULT:      -7.3      2.623      3.316
REMARK  4 active torsions:
REMARK  status: ('A' for Active; 'I' for Inactive)
REMARK    1  A    between atoms: N_1  and  C_8 
REMARK    2  A    between atoms: N_2  and  C_7 
REMARK    3  A    between atoms: C_8  and  C_9 
REMARK       I    between atoms: C_9  and  N_13 
REMARK    4  A    between atoms: N_13  and  C_16 
ROOT
HETATM    1  C   UNL     1     -39.307 -49.090  12.814  1.00  0.00     0.240 C 
ENDROOT
BRANCH   1   2
HETATM    2  N   UNL     1     -40.094 -47.929  12.385  1.00  0.00    -0.255 N 
HETATM    3  C   UNL     1     -40.897 -48.070  11.245  1.00  0.00     0.334 C 
HETATM    4  N   UNL     1     -41.700 -46.965  10.924  1.00  0.00    -0.279 N 
HETATM    5  O   UNL     1     -40.869 -49.099  10.562  1.00  0.00    -0.246 OA
HETATM    6  C   UNL     1     -41.448 -45.727  11.494  1.00  0.00     0.146 C 
HETATM    7  C   UNL     1     -40.514 -45.561  12.412  1.00  0.00     0.200 C 
HETATM    8  C   UNL     1     -39.755 -46.705  12.936  1.00  0.00     0.292 C 
HETATM    9  F   UNL     1     -40.184 -44.331  12.880  1.00  0.00    -0.199 F 
HETATM   10  O   UNL     1     -38.856 -46.534  13.753  1.00  0.00    -0.264 OA
BRANCH   4  11
HETATM   11  C   UNL     1     -42.660 -47.060   9.818  1.00  0.00     0.232 C 
HETATM   12  O   UNL     1     -42.829 -45.746   9.256  1.00  0.00    -0.366 OA
HETATM   13  C   UNL     1     -44.196 -45.562   8.874  1.00  0.00     0.170 C 
HETATM   14  C   UNL     1     -44.961 -46.820   9.214  1.00  0.00     0.031 C 
HETATM   15  C   UNL     1     -44.063 -47.543  10.194  1.00  0.00     0.056 C 
ENDBRANCH   4  11
ENDBRANCH   1   2
BRANCH   1  16
HETATM   16  C   UNL     1     -40.109 -50.022  13.729  1.00  0.00     0.240 C 
HETATM   17  N   UNL     1     -40.936 -50.879  13.020  1.00  0.00    -0.326 N 
HETATM   18  H   UNL     1     -41.003 -50.717  12.022  1.00  0.00     0.169 HD
HETATM   19  O   UNL     1     -39.999 -49.964  14.950  1.00  0.00    -0.271 OA
BRANCH  17  20
HETATM   20  C   UNL     1     -41.781 -51.891  13.520  1.00  0.00     0.037 C 
HETATM   21  C   UNL     1     -42.848 -51.671  14.393  1.00  0.00     0.069 C 
HETATM   22  C   UNL     1     -43.671 -52.742  14.745  1.00  0.00     0.104 C 
HETATM   23  C   UNL     1     -43.344 -54.047  14.371  1.00  0.00     0.102 C 
HETATM   24  O   UNL     1     -44.873 -52.484  15.357  1.00  0.00    -0.348 OA
HETATM   25  O   UNL     1     -44.078 -55.106  14.827  1.00  0.00    -0.348 OA
HETATM   26  C   UNL     1     -42.269 -54.280  13.537  1.00  0.00     0.042 C 
HETATM   27  C   UNL     1     -45.265 -55.234  14.050  1.00  0.00     0.178 C 
HETATM   28  C   UNL     1     -46.359 -54.254  14.460  1.00  0.00     0.053 C 
HETATM   29  C   UNL     1     -45.929 -52.786  14.424  1.00  0.00     0.178 C 
HETATM   30  C   UNL     1     -41.524 -53.197  13.066  1.00  0.00     0.032 C 
ENDBRANCH  17  20
ENDBRANCH   1  16
TORSDOF 4
ENDMDL
MODEL 4
REMARK VINA RESULT:      -7.3      3.830      8.518
REMARK  4 active torsions:
REMARK  status: ('A' for Active; 'I' for Inactive)
REMARK    1  A    between atoms: N_1  and  C_8 
REMARK    2  A    between atoms: N_2  and  C_7 
REMARK    3  A    between atoms: C_8  and  C_9 
REMARK       I    between atoms: C_9  and  N_13 
REMARK    4  A    between atoms: N_13  and  C_16 
ROOT
HETATM    1  C   UNL     1     -44.403 -54.808  14.353  1.00  0.00     0.240 C 
ENDROOT
BRANCH   1   2
HETATM    2  N   UNL     1     -45.251 -53.626  14.544  1.00  0.00    -0.255 N 
HETATM    3  C   UNL     1     -45.852 -53.451  15.798  1.00  0.00     0.334 C 
HETATM    4  N   UNL     1     -46.581 -52.263  15.965  1.00  0.00    -0.279 N 
HETATM    5  O   UNL     1     -45.758 -54.308  16.682  1.00  0.00    -0.246 OA
HETATM    6  C   UNL     1     -46.952 -51.509  14.862  1.00  0.00     0.146 C 
HETATM    7  C   UNL     1     -46.566 -51.827  13.640  1.00  0.00     0.200 C 
HETATM    8  C   UNL     1     -45.649 -52.950  13.404  1.00  0.00     0.292 C 
HETATM    9  F   UNL     1     -47.028 -51.163  12.551  1.00  0.00    -0.199 F 
HETATM   10  O   UNL     1     -45.334 -53.267  12.261  1.00  0.00    -0.264 OA
BRANCH   4  11
HETATM   11  C   UNL     1     -47.148 -51.934  17.278  1.00  0.00     0.232 C 
HETATM   12  O   UNL     1     -48.239 -51.018  17.079  1.00  0.00    -0.366 OA
HETATM   13  C   UNL     1     -48.255 -50.057  18.140  1.00  0.00     0.170 C 
HETATM   14  C   UNL     1     -47.106 -50.358  19.074  1.00  0.00     0.031 C 
HETATM   15  C   UNL     1     -46.195 -51.250  18.261  1.00  0.00     0.056 C 
ENDBRANCH   4  11
ENDBRANCH   1   2
BRANCH   1  16
HETATM   16  C   UNL     1     -42.926 -54.504  14.621  1.00  0.00     0.240 C 
HETATM   17  N   UNL     1     -42.551 -53.249  14.168  1.00  0.00    -0.326 N 
HETATM   18  H   UNL     1     -43.241 -52.742  13.625  1.00  0.00     0.169 HD
HETATM   19  O   UNL     1     -42.197 -55.324  15.172  1.00  0.00    -0.271 OA
BRANCH  17  20
HETATM   20  C   UNL     1     -41.294 -52.618  14.277  1.00  0.00     0.037 C 
HETATM   21  C   UNL     1     -40.385 -52.482  13.227  1.00  0.00     0.069 C 
HETATM   22  C   UNL     1     -39.211 -51.755  13.435  1.00  0.00     0.104 C 
HETATM   23  C   UNL     1     -38.862 -51.312  14.712  1.00  0.00     0.102 C 
HETATM   24  O   UNL     1     -38.464 -51.373  12.348  1.00  0.00    -0.348 OA
HETATM   25  O   UNL     1     -37.652 -50.716  14.936  1.00  0.00    -0.348 OA
HETATM   26  C   UNL     1     -39.739 -51.474  15.766  1.00  0.00     0.042 C 
HETATM   27  C   UNL     1     -37.708 -49.351  14.532  1.00  0.00     0.178 C 
HETATM   28  C   UNL     1     -37.562 -49.166  13.025  1.00  0.00     0.053 C 
HETATM   29  C   UNL     1     -38.584 -49.945  12.196  1.00  0.00     0.178 C 
HETATM   30  C   UNL     1     -40.978 -52.075  15.535  1.00  0.00     0.032 C 
ENDBRANCH  17  20
ENDBRANCH   1  16
TORSDOF 4
ENDMDL
MODEL 5
REMARK VINA RESULT:      -7.3      3.395      8.298
REMARK  4 active torsions:
REMARK  status: ('A' for Active; 'I' for Inactive)
REMARK    1  A    between atoms: N_1  and  C_8 
REMARK    2  A    between atoms: N_2  and  C_7 
REMARK    3  A    between atoms: C_8  and  C_9 
REMARK       I    between atoms: C_9  and  N_13 
REMARK    4  A    between atoms: N_13  and  C_16 
ROOT
HETATM    1  C   UNL     1     -42.074 -52.346  12.013  1.00  0.00     0.240 C 
ENDROOT
BRANCH   1   2
HETATM    2  N   UNL     1     -41.858 -53.181  13.199  1.00  0.00    -0.255 N 
HETATM    3  C   UNL     1     -40.539 -53.371  13.632  1.00  0.00     0.334 C 
HETATM    4  N   UNL     1     -40.385 -54.102  14.821  1.00  0.00    -0.279 N 
HETATM    5  O   UNL     1     -39.581 -52.937  12.984  1.00  0.00    -0.246 OA
HETATM    6  C   UNL     1     -41.435 -54.858  15.318  1.00  0.00     0.146 C 
HETATM    7  C   UNL     1     -42.628 -54.850  14.751  1.00  0.00     0.200 C 
HETATM    8  C   UNL     1     -42.919 -53.968  13.612  1.00  0.00     0.292 C 
HETATM    9  F   UNL     1     -43.618 -55.680  15.162  1.00  0.00    -0.199 F 
HETATM   10  O   UNL     1     -44.016 -54.004  13.062  1.00  0.00    -0.264 OA
BRANCH   4  11
HETATM   11  C   UNL     1     -39.052 -54.252  15.416  1.00  0.00     0.232 C 
HETATM   12  O   UNL     1     -38.731 -55.655  15.449  1.00  0.00    -0.366 OA
HETATM   13  C   UNL     1     -38.012 -55.951  16.650  1.00  0.00     0.170 C 
HETATM   14  C   UNL     1     -37.867 -54.676  17.447  1.00  0.00     0.031 C 
HETATM   15  C   UNL     1     -38.905 -53.750  16.854  1.00  0.00     0.056 C 
ENDBRANCH   4  11
ENDBRANCH   1   2
BRANCH   1  16
HETATM   16  C   UNL     1     -41.973 -50.852  12.336  1.00  0.00     0.240 C 
HETATM   17  N   UNL     1     -41.159 -50.169  11.446  1.00  0.00    -0.326 N 
HETATM   18  H   UNL     1     -40.648 -50.736  10.779  1.00  0.00     0.169 HD
HETATM   19  O   UNL     1     -42.561 -50.368  13.300  1.00  0.00    -0.271 OA
BRANCH  17  20
HETATM   20  C   UNL     1     -40.867 -48.790  11.408  1.00  0.00     0.037 C 
HETATM   21  C   UNL     1     -41.427 -47.888  10.502  1.00  0.00     0.069 C 
HETATM   22  C   UNL     1     -41.130 -46.529  10.625  1.00  0.00     0.104 C 
HETATM   23  C   UNL     1     -40.159 -46.089  11.526  1.00  0.00     0.102 C 
HETATM   24  O   UNL     1     -41.891 -45.618   9.936  1.00  0.00    -0.348 OA
HETATM   25  O   UNL     1     -39.777 -44.776  11.551  1.00  0.00    -0.348 OA
HETATM   26  C   UNL     1     -39.573 -46.979  12.403  1.00  0.00     0.042 C 
HETATM   27  C   UNL     1     -40.732 -44.014  12.284  1.00  0.00     0.178 C 
HETATM   28  C   UNL     1     -41.977 -43.673  11.471  1.00  0.00     0.053 C 
HETATM   29  C   UNL     1     -42.695 -44.890  10.885  1.00  0.00     0.178 C 
HETATM   30  C   UNL     1     -39.969 -48.318  12.382  1.00  0.00     0.032 C 
ENDBRANCH  17  20
ENDBRANCH   1  16
TORSDOF 4
ENDMDL
MODEL 6
REMARK VINA RESULT:      -7.1      3.881      8.116
REMARK  4 active torsions:
REMARK  status: ('A' for Active; 'I' for Inactive)
REMARK    1  A    between atoms: N_1  and  C_8 
REMARK    2  A    between atoms: N_2  and  C_7 
REMARK    3  A    between atoms: C_8  and  C_9 
REMARK       I    between atoms: C_9  and  N_13 
REMARK    4  A    between atoms: N_13  and  C_16 
ROOT
HETATM    1  C   UNL     1     -40.891 -52.685  12.055  1.00  0.00     0.240 C 
ENDROOT
BRANCH   1   2
HETATM    2  N   UNL     1     -41.133 -53.430  13.296  1.00  0.00    -0.255 N 
HETATM    3  C   UNL     1     -40.018 -53.908  13.998  1.00  0.00     0.334 C 
HETATM    4  N   UNL     1     -40.292 -54.537  15.223  1.00  0.00    -0.279 N 
HETATM    5  O   UNL     1     -38.876 -53.799  13.541  1.00  0.00    -0.246 OA
HETATM    6  C   UNL     1     -41.581 -54.947  15.526  1.00  0.00     0.146 C 
HETATM    7  C   UNL     1     -42.600 -54.689  14.727  1.00  0.00     0.200 C 
HETATM    8  C   UNL     1     -42.425 -53.875  13.516  1.00  0.00     0.292 C 
HETATM    9  F   UNL     1     -43.836 -55.194  14.963  1.00  0.00    -0.199 F 
HETATM   10  O   UNL     1     -43.368 -53.682  12.755  1.00  0.00    -0.264 OA
BRANCH   4  11
HETATM   11  C   UNL     1     -39.184 -54.965  16.084  1.00  0.00     0.232 C 
HETATM   12  O   UNL     1     -39.173 -56.404  16.118  1.00  0.00    -0.366 OA
HETATM   13  C   UNL     1     -38.815 -56.848  17.431  1.00  0.00     0.170 C 
HETATM   14  C   UNL     1     -38.592 -55.634  18.301  1.00  0.00     0.031 C 
HETATM   15  C   UNL     1     -39.261 -54.509  17.543  1.00  0.00     0.056 C 
ENDBRANCH   4  11
ENDBRANCH   1   2
BRANCH   1  16
HETATM   16  C   UNL     1     -40.801 -51.175  12.301  1.00  0.00     0.240 C 
HETATM   17  N   UNL     1     -41.793 -50.470  11.639  1.00  0.00    -0.326 N 
HETATM   18  H   UNL     1     -42.371 -51.000  10.997  1.00  0.00     0.169 HD
HETATM   19  O   UNL     1     -39.918 -50.697  13.007  1.00  0.00    -0.271 OA
BRANCH  17  20
HETATM   20  C   UNL     1     -42.045 -49.082  11.663  1.00  0.00     0.037 C 
HETATM   21  C   UNL     1     -42.800 -48.433  12.640  1.00  0.00     0.069 C 
HETATM   22  C   UNL     1     -42.901 -47.040  12.608  1.00  0.00     0.104 C 
HETATM   23  C   UNL     1     -42.400 -46.313  11.527  1.00  0.00     0.102 C 
HETATM   24  O   UNL     1     -43.388 -46.384  13.711  1.00  0.00    -0.348 OA
HETATM   25  O   UNL     1     -42.615 -44.966  11.435  1.00  0.00    -0.348 OA
HETATM   26  C   UNL     1     -41.682 -46.951  10.535  1.00  0.00     0.042 C 
HETATM   27  C   UNL     1     -41.687 -44.276  12.265  1.00  0.00     0.178 C 
HETATM   28  C   UNL     1     -42.085 -44.275  13.737  1.00  0.00     0.053 C 
HETATM   29  C   UNL     1     -42.299 -45.669  14.329  1.00  0.00     0.178 C 
HETATM   30  C   UNL     1     -41.455 -48.325  10.634  1.00  0.00     0.032 C 
ENDBRANCH  17  20
ENDBRANCH   1  16
TORSDOF 4
ENDMDL
MODEL 7
REMARK VINA RESULT:      -7.1      3.140      7.198
REMARK  4 active torsions:
REMARK  status: ('A' for Active; 'I' for Inactive)
REMARK    1  A    between atoms: N_1  and  C_8 
REMARK    2  A    between atoms: N_2  and  C_7 
REMARK    3  A    between atoms: C_8  and  C_9 
REMARK       I    between atoms: C_9  and  N_13 
REMARK    4  A    between atoms: N_13  and  C_16 
ROOT
HETATM    1  C   UNL     1     -39.551 -50.387  14.316  1.00  0.00     0.240 C 
ENDROOT
BRANCH   1   2
HETATM    2  N   UNL     1     -40.197 -51.687  14.101  1.00  0.00    -0.255 N 
HETATM    3  C   UNL     1     -41.530 -51.829  14.507  1.00  0.00     0.334 C 
HETATM    4  N   UNL     1     -42.135 -53.058  14.200  1.00  0.00    -0.279 N 
HETATM    5  O   UNL     1     -42.115 -50.928  15.118  1.00  0.00    -0.246 OA
HETATM    6  C   UNL     1     -41.359 -54.148  13.840  1.00  0.00     0.146 C 
HETATM    7  C   UNL     1     -40.050 -54.052  13.687  1.00  0.00     0.200 C 
HETATM    8  C   UNL     1     -39.368 -52.757  13.810  1.00  0.00     0.292 C 
HETATM    9  F   UNL     1     -39.278 -55.142  13.455  1.00  0.00    -0.199 F 
HETATM   10  O   UNL     1     -38.146 -52.686  13.715  1.00  0.00    -0.264 OA
BRANCH   4  11
HETATM   11  C   UNL     1     -43.562 -53.257  14.480  1.00  0.00     0.232 C 
HETATM   12  O   UNL     1     -43.807 -54.672  14.573  1.00  0.00    -0.366 OA
HETATM   13  C   UNL     1     -45.082 -54.974  13.997  1.00  0.00     0.170 C 
HETATM   14  C   UNL     1     -45.694 -53.689  13.491  1.00  0.00     0.031 C 
HETATM   15  C   UNL     1     -44.528 -52.730  13.417  1.00  0.00     0.056 C 
ENDBRANCH   4  11
ENDBRANCH   1   2
BRANCH   1  16
HETATM   16  C   UNL     1     -39.700 -49.464  13.103  1.00  0.00     0.240 C 
HETATM   17  N   UNL     1     -40.991 -48.983  12.956  1.00  0.00    -0.326 N 
HETATM   18  H   UNL     1     -41.691 -49.377  13.575  1.00  0.00     0.169 HD
HETATM   19  O   UNL     1     -38.747 -49.221  12.368  1.00  0.00    -0.271 OA
BRANCH  17  20
HETATM   20  C   UNL     1     -41.486 -48.087  11.987  1.00  0.00     0.037 C 
HETATM   21  C   UNL     1     -42.071 -48.471  10.779  1.00  0.00     0.069 C 
HETATM   22  C   UNL     1     -42.609 -47.491   9.942  1.00  0.00     0.104 C 
HETATM   23  C   UNL     1     -42.420 -46.136  10.216  1.00  0.00     0.102 C 
HETATM   24  O   UNL     1     -43.431 -47.876   8.912  1.00  0.00    -0.348 OA
HETATM   25  O   UNL     1     -42.833 -45.182   9.328  1.00  0.00    -0.348 OA
HETATM   26  C   UNL     1     -41.810 -45.745  11.391  1.00  0.00     0.042 C 
HETATM   27  C   UNL     1     -44.234 -44.966   9.475  1.00  0.00     0.178 C 
HETATM   28  C   UNL     1     -45.079 -46.028   8.782  1.00  0.00     0.053 C 
HETATM   29  C   UNL     1     -44.775 -47.460   9.227  1.00  0.00     0.178 C 
HETATM   30  C   UNL     1     -41.396 -46.719  12.302  1.00  0.00     0.032 C 
ENDBRANCH  17  20
ENDBRANCH   1  16
TORSDOF 4
ENDMDL
MODEL 8
REMARK VINA RESULT:      -7.0      2.265      2.982
REMARK  4 active torsions:
REMARK  status: ('A' for Active; 'I' for Inactive)
REMARK    1  A    between atoms: N_1  and  C_8 
REMARK    2  A    between atoms: N_2  and  C_7 
REMARK    3  A    between atoms: C_8  and  C_9 
REMARK       I    between atoms: C_9  and  N_13 
REMARK    4  A    between atoms: N_13  and  C_16 
ROOT
HETATM    1  C   UNL     1     -41.470 -51.476  11.761  1.00  0.00     0.240 C 
ENDROOT
BRANCH   1   2
HETATM    2  N   UNL     1     -40.615 -50.345  12.136  1.00  0.00    -0.255 N 
HETATM    3  C   UNL     1     -41.021 -49.062  11.744  1.00  0.00     0.334 C 
HETATM    4  N   UNL     1     -40.220 -48.003  12.200  1.00  0.00    -0.279 N 
HETATM    5  O   UNL     1     -42.008 -48.893  11.021  1.00  0.00    -0.246 OA
HETATM    6  C   UNL     1     -38.951 -48.249  12.700  1.00  0.00     0.146 C 
HETATM    7  C   UNL     1     -38.487 -49.477  12.845  1.00  0.00     0.200 C 
HETATM    8  C   UNL     1     -39.333 -50.644  12.564  1.00  0.00     0.292 C 
HETATM    9  F   UNL     1     -37.204 -49.714  13.217  1.00  0.00    -0.199 F 
HETATM   10  O   UNL     1     -38.876 -51.780  12.655  1.00  0.00    -0.264 OA
BRANCH   4  11
HETATM   11  C   UNL     1     -40.630 -46.617  11.941  1.00  0.00     0.232 C 
HETATM   12  O   UNL     1     -40.152 -46.246  10.635  1.00  0.00    -0.366 OA
HETATM   13  C   UNL     1     -39.731 -44.878  10.652  1.00  0.00     0.170 C 
HETATM   14  C   UNL     1     -39.935 -44.333  12.046  1.00  0.00     0.031 C 
HETATM   15  C   UNL     1     -40.076 -45.568  12.908  1.00  0.00     0.056 C 
ENDBRANCH   4  11
ENDBRANCH   1   2
BRANCH   1  16
HETATM   16  C   UNL     1     -42.331 -51.958  12.933  1.00  0.00     0.240 C 
HETATM   17  N   UNL     1     -43.461 -51.178  13.119  1.00  0.00    -0.326 N 
HETATM   18  H   UNL     1     -43.525 -50.338  12.555  1.00  0.00     0.169 HD
HETATM   19  O   UNL     1     -42.001 -52.930  13.608  1.00  0.00    -0.271 OA
BRANCH  17  20
HETATM   20  C   UNL     1     -44.493 -51.343  14.065  1.00  0.00     0.037 C 
HETATM   21  C   UNL     1     -44.299 -51.392  15.446  1.00  0.00     0.069 C 
HETATM   22  C   UNL     1     -45.411 -51.466  16.287  1.00  0.00     0.104 C 
HETATM   23  C   UNL     1     -46.691 -51.659  15.763  1.00  0.00     0.102 C 
HETATM   24  O   UNL     1     -45.248 -51.222  17.628  1.00  0.00    -0.348 OA
HETATM   25  O   UNL     1     -47.759 -51.862  16.592  1.00  0.00    -0.348 OA
HETATM   26  C   UNL     1     -46.889 -51.649  14.397  1.00  0.00     0.042 C 
HETATM   27  C   UNL     1     -48.211 -50.612  17.104  1.00  0.00     0.178 C 
HETATM   28  C   UNL     1     -47.364 -50.098  18.263  1.00  0.00     0.053 C 
HETATM   29  C   UNL     1     -45.875 -49.962  17.939  1.00  0.00     0.178 C 
HETATM   30  C   UNL     1     -45.799 -51.433  13.551  1.00  0.00     0.032 C 
ENDBRANCH  17  20
ENDBRANCH   1  16
TORSDOF 4
ENDMDL
MODEL 9
REMARK VINA RESULT:      -7.0      2.637      8.095
REMARK  4 active torsions:
REMARK  status: ('A' for Active; 'I' for Inactive)
REMARK    1  A    between atoms: N_1  and  C_8 
REMARK    2  A    between atoms: N_2  and  C_7 
REMARK    3  A    between atoms: C_8  and  C_9 
REMARK       I    between atoms: C_9  and  N_13 
REMARK    4  A    between atoms: N_13  and  C_16 
ROOT
HETATM    1  C   UNL     1     -40.383 -50.085  11.232  1.00  0.00     0.240 C 
ENDROOT
BRANCH   1   2
HETATM    2  N   UNL     1     -41.168 -50.854  12.203  1.00  0.00    -0.255 N 
HETATM    3  C   UNL     1     -42.427 -50.356  12.564  1.00  0.00     0.334 C 
HETATM    4  N   UNL     1     -43.181 -51.168  13.427  1.00  0.00    -0.279 N 
HETATM    5  O   UNL     1     -42.824 -49.258  12.161  1.00  0.00    -0.246 OA
HETATM    6  C   UNL     1     -42.573 -52.200  14.124  1.00  0.00     0.146 C 
HETATM    7  C   UNL     1     -41.303 -52.511  13.942  1.00  0.00     0.200 C 
HETATM    8  C   UNL     1     -40.496 -51.827  12.922  1.00  0.00     0.292 C 
HETATM    9  F   UNL     1     -40.678 -53.437  14.710  1.00  0.00    -0.199 F 
HETATM   10  O   UNL     1     -39.303 -52.089  12.793  1.00  0.00    -0.264 OA
BRANCH   4  11
HETATM   11  C   UNL     1     -44.557 -50.788  13.767  1.00  0.00     0.232 C 
HETATM   12  O   UNL     1     -44.676 -50.771  15.201  1.00  0.00    -0.366 OA
HETATM   13  C   UNL     1     -45.966 -51.262  15.578  1.00  0.00     0.170 C 
HETATM   14  C   UNL     1     -46.724 -51.628  14.324  1.00  0.00     0.031 C 
HETATM   15  C   UNL     1     -45.651 -51.732  13.263  1.00  0.00     0.056 C 
ENDBRANCH   4  11
ENDBRANCH   1   2
BRANCH   1  16
HETATM   16  C   UNL     1     -40.154 -48.642  11.692  1.00  0.00     0.240 C 
HETATM   17  N   UNL     1     -40.806 -47.719  10.890  1.00  0.00    -0.326 N 
HETATM   18  H   UNL     1     -41.245 -48.082  10.052  1.00  0.00     0.169 HD
HETATM   19  O   UNL     1     -39.450 -48.389  12.666  1.00  0.00    -0.271 OA
BRANCH  17  20
HETATM   20  C   UNL     1     -40.855 -46.317  11.032  1.00  0.00     0.037 C 
HETATM   21  C   UNL     1     -41.867 -45.624  11.699  1.00  0.00     0.069 C 
HETATM   22  C   UNL     1     -41.756 -44.241  11.854  1.00  0.00     0.104 C 
HETATM   23  C   UNL     1     -40.742 -43.529  11.211  1.00  0.00     0.102 C 
HETATM   24  O   UNL     1     -42.583 -43.604  12.745  1.00  0.00    -0.348 OA
HETATM   25  O   UNL     1     -40.713 -42.163  11.256  1.00  0.00    -0.348 OA
HETATM   26  C   UNL     1     -39.756 -44.202  10.517  1.00  0.00     0.042 C 
HETATM   27  C   UNL     1     -40.157 -41.738  12.497  1.00  0.00     0.178 C 
HETATM   28  C   UNL     1     -41.153 -41.792  13.650  1.00  0.00     0.053 C 
HETATM   29  C   UNL     1     -41.788 -43.167  13.866  1.00  0.00     0.178 C 
HETATM   30  C   UNL     1     -39.781 -45.597  10.478  1.00  0.00     0.032 C 
ENDBRANCH  17  20
ENDBRANCH   1  16
TORSDOF 4
ENDMDL
