MODEL 1
REMARK VINA RESULT:      -6.2      0.000      0.000
REMARK  6 active torsions:
REMARK  status: ('A' for Active; 'I' for Inactive)
REMARK    1  A    between atoms: O_2  and  C_3 
REMARK    2  A    between atoms: C_3  and  C_4 
REMARK    3  A    between atoms: C_4  and  N_5 
REMARK    4  A    between atoms: C_8  and  C_13 
REMARK       I    between atoms: C_13  and  N_15 
REMARK    5  A    between atoms: N_15  and  C_16 
REMARK    6  A    between atoms: C_16  and  C_18 
ROOT
HETATM    1  N   UNL     1     -43.342 -47.230   9.358  1.00  0.00    -0.255 N 
HETATM    2  N   UNL     1     -42.601 -48.284   9.892  1.00  0.00    -0.290 N 
ATOM      3  HN  UNL     1     -42.845 -49.258   9.711  1.00  0.00     0.187 HD
HETATM    4  C   UNL     1     -41.581 -47.958  10.632  1.00  0.00     0.116 A 
HETATM    5  C   UNL     1     -41.177 -46.580  10.963  1.00  0.00     0.042 A 
HETATM    6  C   UNL     1     -41.874 -45.595  10.401  1.00  0.00     0.078 A 
HETATM    7  C   UNL     1     -43.014 -45.884   9.511  1.00  0.00     0.262 A 
HETATM    8  O   UNL     1     -43.589 -44.942   8.972  1.00  0.00    -0.267 OA
ENDROOT
BRANCH   4   9
HETATM    9  C   UNL     1     -40.705 -49.058  11.234  1.00  0.00     0.269 C 
HETATM   10  O   UNL     1     -41.220 -50.115  11.570  1.00  0.00    -0.266 OA
HETATM   11  N   UNL     1     -39.368 -48.757  11.330  1.00  0.00    -0.351 N 
HETATM   12  H   UNL     1     -39.078 -47.821  11.070  1.00  0.00     0.163 HD
BRANCH  11  13
HETATM   13  C   UNL     1     -38.408 -49.680  11.907  1.00  0.00     0.084 C 
HETATM   14  C   UNL     1     -37.272 -49.938  10.919  1.00  0.00     0.032 C 
BRANCH  13  15
HETATM   15  C   UNL     1     -37.871 -49.184  13.229  1.00  0.00     0.008 A 
HETATM   16  C   UNL     1     -37.508 -50.175  14.311  1.00  0.00     0.007 A 
HETATM   17  C   UNL     1     -38.637 -49.210  14.533  1.00  0.00     0.007 A 
ENDBRANCH  13  15
ENDBRANCH  11  13
ENDBRANCH   4   9
BRANCH   1  18
HETATM   18  C   UNL     1     -44.526 -47.587   8.577  1.00  0.00     0.178 C 
BRANCH  18  19
HETATM   19  C   UNL     1     -45.827 -47.384   9.355  1.00  0.00     0.189 C 
BRANCH  19  20
HETATM   20  O   UNL     1     -46.933 -47.914   8.617  1.00  0.00    -0.394 OA
HETATM   21  C   UNL     1     -46.543 -49.012   7.805  1.00  0.00     0.201 C 
ENDBRANCH  19  20
ENDBRANCH  18  19
ENDBRANCH   1  18
TORSDOF 6
ENDMDL
MODEL 2
REMARK VINA RESULT:      -6.0      2.535      6.738
REMARK  6 active torsions:
REMARK  status: ('A' for Active; 'I' for Inactive)
REMARK    1  A    between atoms: O_2  and  C_3 
REMARK    2  A    between atoms: C_3  and  C_4 
REMARK    3  A    between atoms: C_4  and  N_5 
REMARK    4  A    between atoms: C_8  and  C_13 
REMARK       I    between atoms: C_13  and  N_15 
REMARK    5  A    between atoms: N_15  and  C_16 
REMARK    6  A    between atoms: C_16  and  C_18 
ROOT
HETATM    1  N   UNL     1     -40.583 -51.237  11.953  1.00  0.00    -0.255 N 
HETATM    2  N   UNL     1     -41.358 -50.287  11.288  1.00  0.00    -0.290 N 
ATOM      3  HN  UNL     1     -42.273 -50.516  10.898  1.00  0.00     0.187 HD
HETATM    4  C   UNL     1     -40.851 -49.092  11.190  1.00  0.00     0.116 A 
HETATM    5  C   UNL     1     -39.530 -48.685  11.700  1.00  0.00     0.042 A 
HETATM    6  C   UNL     1     -38.834 -49.600  12.372  1.00  0.00     0.078 A 
HETATM    7  C   UNL     1     -39.363 -50.963  12.567  1.00  0.00     0.262 A 
HETATM    8  O   UNL     1     -38.709 -51.753  13.243  1.00  0.00    -0.267 OA
ENDROOT
BRANCH   4   9
HETATM    9  C   UNL     1     -41.651 -47.989  10.495  1.00  0.00     0.269 C 
HETATM   10  O   UNL     1     -41.257 -46.833  10.562  1.00  0.00    -0.266 OA
HETATM   11  N   UNL     1     -42.768 -48.412   9.817  1.00  0.00    -0.351 N 
HETATM   12  H   UNL     1     -43.016 -49.392   9.889  1.00  0.00     0.163 HD
BRANCH  11  13
HETATM   13  C   UNL     1     -43.651 -47.487   9.130  1.00  0.00     0.084 C 
HETATM   14  C   UNL     1     -43.548 -47.690   7.620  1.00  0.00     0.032 C 
BRANCH  13  15
HETATM   15  C   UNL     1     -45.082 -47.621   9.596  1.00  0.00     0.008 A 
HETATM   16  C   UNL     1     -46.130 -48.170   8.654  1.00  0.00     0.007 A 
HETATM   17  C   UNL     1     -46.224 -46.747   9.126  1.00  0.00     0.007 A 
ENDBRANCH  13  15
ENDBRANCH  11  13
ENDBRANCH   4   9
BRANCH   1  18
HETATM   18  C   UNL     1     -41.117 -52.598  12.012  1.00  0.00     0.178 C 
BRANCH  18  19
HETATM   19  C   UNL     1     -42.569 -52.639  12.491  1.00  0.00     0.189 C 
BRANCH  19  20
HETATM   20  O   UNL     1     -42.619 -52.637  13.921  1.00  0.00    -0.394 OA
HETATM   21  C   UNL     1     -41.723 -53.589  14.478  1.00  0.00     0.201 C 
ENDBRANCH  19  20
ENDBRANCH  18  19
ENDBRANCH   1  18
TORSDOF 6
ENDMDL
MODEL 3
REMARK VINA RESULT:      -5.9      2.337      6.551
REMARK  6 active torsions:
REMARK  status: ('A' for Active; 'I' for Inactive)
REMARK    1  A    between atoms: O_2  and  C_3 
REMARK    2  A    between atoms: C_3  and  C_4 
REMARK    3  A    between atoms: C_4  and  N_5 
REMARK    4  A    between atoms: C_8  and  C_13 
REMARK       I    between atoms: C_13  and  N_15 
REMARK    5  A    between atoms: N_15  and  C_16 
REMARK    6  A    between atoms: C_16  and  C_18 
ROOT
HETATM    1  N   UNL     1     -40.016 -45.979  12.369  1.00  0.00    -0.255 N 
HETATM    2  N   UNL     1     -41.053 -46.231  11.470  1.00  0.00    -0.290 N 
ATOM      3  HN  UNL     1     -41.384 -47.177  11.284  1.00  0.00     0.187 HD
HETATM    4  C   UNL     1     -41.573 -45.193  10.881  1.00  0.00     0.116 A 
HETATM    5  C   UNL     1     -41.136 -43.800  11.073  1.00  0.00     0.042 A 
HETATM    6  C   UNL     1     -40.178 -43.584  11.972  1.00  0.00     0.078 A 
HETATM    7  C   UNL     1     -39.572 -44.705  12.716  1.00  0.00     0.262 A 
HETATM    8  O   UNL     1     -38.732 -44.449  13.576  1.00  0.00    -0.267 OA
ENDROOT
BRANCH   4   9
HETATM    9  C   UNL     1     -42.730 -45.386   9.899  1.00  0.00     0.269 C 
HETATM   10  O   UNL     1     -43.409 -44.421   9.580  1.00  0.00    -0.266 OA
HETATM   11  N   UNL     1     -42.897 -46.667   9.432  1.00  0.00    -0.351 N 
HETATM   12  H   UNL     1     -42.301 -47.389   9.822  1.00  0.00     0.163 HD
BRANCH  11  13
HETATM   13  C   UNL     1     -43.967 -47.023   8.518  1.00  0.00     0.084 C 
HETATM   14  C   UNL     1     -43.461 -48.032   7.489  1.00  0.00     0.032 C 
BRANCH  13  15
HETATM   15  C   UNL     1     -45.178 -47.556   9.247  1.00  0.00     0.008 A 
HETATM   16  C   UNL     1     -46.241 -48.312   8.483  1.00  0.00     0.007 A 
HETATM   17  C   UNL     1     -46.575 -46.992   9.118  1.00  0.00     0.007 A 
ENDBRANCH  13  15
ENDBRANCH  11  13
ENDBRANCH   4   9
BRANCH   1  18
HETATM   18  C   UNL     1     -39.383 -47.144  12.988  1.00  0.00     0.178 C 
BRANCH  18  19
HETATM   19  C   UNL     1     -40.309 -48.360  13.036  1.00  0.00     0.189 C 
BRANCH  19  20
HETATM   20  O   UNL     1     -40.154 -49.147  11.851  1.00  0.00    -0.394 OA
HETATM   21  C   UNL     1     -38.825 -49.627  11.710  1.00  0.00     0.201 C 
ENDBRANCH  19  20
ENDBRANCH  18  19
ENDBRANCH   1  18
TORSDOF 6
ENDMDL
MODEL 4
REMARK VINA RESULT:      -5.9      3.543      4.534
REMARK  6 active torsions:
REMARK  status: ('A' for Active; 'I' for Inactive)
REMARK    1  A    between atoms: O_2  and  C_3 
REMARK    2  A    between atoms: C_3  and  C_4 
REMARK    3  A    between atoms: C_4  and  N_5 
REMARK    4  A    between atoms: C_8  and  C_13 
REMARK       I    between atoms: C_13  and  N_15 
REMARK    5  A    between atoms: N_15  and  C_16 
REMARK    6  A    between atoms: C_16  and  C_18 
ROOT
HETATM    1  N   UNL     1     -42.938 -47.484  10.080  1.00  0.00    -0.255 N 
HETATM    2  N   UNL     1     -43.232 -48.587  10.882  1.00  0.00    -0.290 N 
ATOM      3  HN  UNL     1     -43.559 -49.468  10.485  1.00  0.00     0.187 HD
HETATM    4  C   UNL     1     -43.068 -48.430  12.164  1.00  0.00     0.116 A 
HETATM    5  C   UNL     1     -42.627 -47.187  12.818  1.00  0.00     0.042 A 
HETATM    6  C   UNL     1     -42.307 -46.166  12.025  1.00  0.00     0.078 A 
HETATM    7  C   UNL     1     -42.421 -46.282  10.559  1.00  0.00     0.262 A 
HETATM    8  O   UNL     1     -42.059 -45.333   9.868  1.00  0.00    -0.267 OA
ENDROOT
BRANCH   4   9
HETATM    9  C   UNL     1     -43.348 -49.602  13.107  1.00  0.00     0.269 C 
HETATM   10  O   UNL     1     -42.755 -49.663  14.175  1.00  0.00    -0.266 OA
HETATM   11  N   UNL     1     -44.287 -50.501  12.664  1.00  0.00    -0.351 N 
HETATM   12  H   UNL     1     -44.663 -50.366  11.732  1.00  0.00     0.163 HD
BRANCH  11  13
HETATM   13  C   UNL     1     -44.644 -51.683  13.427  1.00  0.00     0.084 C 
HETATM   14  C   UNL     1     -46.121 -51.631  13.811  1.00  0.00     0.032 C 
BRANCH  13  15
HETATM   15  C   UNL     1     -44.327 -52.956  12.677  1.00  0.00     0.008 A 
HETATM   16  C   UNL     1     -44.733 -54.291  13.259  1.00  0.00     0.007 A 
HETATM   17  C   UNL     1     -43.277 -53.961  13.095  1.00  0.00     0.007 A 
ENDBRANCH  13  15
ENDBRANCH  11  13
ENDBRANCH   4   9
BRANCH   1  18
HETATM   18  C   UNL     1     -43.180 -47.630   8.644  1.00  0.00     0.178 C 
BRANCH  18  19
HETATM   19  C   UNL     1     -44.661 -47.815   8.313  1.00  0.00     0.189 C 
BRANCH  19  20
HETATM   20  O   UNL     1     -45.461 -47.575   9.475  1.00  0.00    -0.394 OA
HETATM   21  C   UNL     1     -46.749 -47.083   9.133  1.00  0.00     0.201 C 
ENDBRANCH  19  20
ENDBRANCH  18  19
ENDBRANCH   1  18
TORSDOF 6
ENDMDL
MODEL 5
REMARK VINA RESULT:      -5.7      4.996      6.391
REMARK  6 active torsions:
REMARK  status: ('A' for Active; 'I' for Inactive)
REMARK    1  A    between atoms: O_2  and  C_3 
REMARK    2  A    between atoms: C_3  and  C_4 
REMARK    3  A    between atoms: C_4  and  N_5 
REMARK    4  A    between atoms: C_8  and  C_13 
REMARK       I    between atoms: C_13  and  N_15 
REMARK    5  A    between atoms: N_15  and  C_16 
REMARK    6  A    between atoms: C_16  and  C_18 
ROOT
HETATM    1  N   UNL     1     -44.849 -53.370  13.173  1.00  0.00    -0.255 N 
HETATM    2  N   UNL     1     -43.813 -52.698  12.525  1.00  0.00    -0.290 N 
ATOM      3  HN  UNL     1     -43.992 -51.946  11.859  1.00  0.00     0.187 HD
HETATM    4  C   UNL     1     -42.603 -53.083  12.816  1.00  0.00     0.116 A 
HETATM    5  C   UNL     1     -42.259 -54.174  13.743  1.00  0.00     0.042 A 
HETATM    6  C   UNL     1     -43.267 -54.765  14.382  1.00  0.00     0.078 A 
HETATM    7  C   UNL     1     -44.662 -54.352  14.143  1.00  0.00     0.262 A 
HETATM    8  O   UNL     1     -45.551 -54.888  14.800  1.00  0.00    -0.267 OA
ENDROOT
BRANCH   4   9
HETATM    9  C   UNL     1     -41.412 -52.379  12.164  1.00  0.00     0.269 C 
HETATM   10  O   UNL     1     -40.444 -53.041  11.817  1.00  0.00    -0.266 OA
HETATM   11  N   UNL     1     -41.548 -51.021  12.003  1.00  0.00    -0.351 N 
HETATM   12  H   UNL     1     -42.378 -50.585  12.388  1.00  0.00     0.163 HD
BRANCH  11  13
HETATM   13  C   UNL     1     -40.495 -50.202  11.430  1.00  0.00     0.084 C 
HETATM   14  C   UNL     1     -41.071 -48.869  10.956  1.00  0.00     0.032 C 
BRANCH  13  15
HETATM   15  C   UNL     1     -39.358 -49.985  12.399  1.00  0.00     0.008 A 
HETATM   16  C   UNL     1     -38.186 -49.117  11.999  1.00  0.00     0.007 A 
HETATM   17  C   UNL     1     -37.976 -50.583  12.251  1.00  0.00     0.007 A 
ENDBRANCH  13  15
ENDBRANCH  11  13
ENDBRANCH   4   9
BRANCH   1  18
HETATM   18  C   UNL     1     -46.213 -52.987  12.805  1.00  0.00     0.178 C 
BRANCH  18  19
HETATM   19  C   UNL     1     -46.514 -51.519  13.111  1.00  0.00     0.189 C 
BRANCH  19  20
HETATM   20  O   UNL     1     -45.952 -51.152  14.375  1.00  0.00    -0.394 OA
HETATM   21  C   UNL     1     -46.861 -51.385  15.441  1.00  0.00     0.201 C 
ENDBRANCH  19  20
ENDBRANCH  18  19
ENDBRANCH   1  18
TORSDOF 6
ENDMDL
MODEL 6
REMARK VINA RESULT:      -5.2      2.465      2.899
REMARK  6 active torsions:
REMARK  status: ('A' for Active; 'I' for Inactive)
REMARK    1  A    between atoms: O_2  and  C_3 
REMARK    2  A    between atoms: C_3  and  C_4 
REMARK    3  A    between atoms: C_4  and  N_5 
REMARK    4  A    between atoms: C_8  and  C_13 
REMARK       I    between atoms: C_13  and  N_15 
REMARK    5  A    between atoms: N_15  and  C_16 
REMARK    6  A    between atoms: C_16  and  C_18 
ROOT
HETATM    1  N   UNL     1     -43.239 -47.363  10.046  1.00  0.00    -0.255 N 
HETATM    2  N   UNL     1     -42.673 -48.514  10.594  1.00  0.00    -0.290 N 
ATOM      3  HN  UNL     1     -43.176 -49.401  10.619  1.00  0.00     0.187 HD
HETATM    4  C   UNL     1     -41.468 -48.395  11.072  1.00  0.00     0.116 A 
HETATM    5  C   UNL     1     -40.684 -47.148  11.100  1.00  0.00     0.042 A 
HETATM    6  C   UNL     1     -41.231 -46.077  10.527  1.00  0.00     0.078 A 
HETATM    7  C   UNL     1     -42.573 -46.146   9.920  1.00  0.00     0.262 A 
HETATM    8  O   UNL     1     -43.010 -45.147   9.353  1.00  0.00    -0.267 OA
ENDROOT
BRANCH   4   9
HETATM    9  C   UNL     1     -40.770 -49.618  11.669  1.00  0.00     0.269 C 
HETATM   10  O   UNL     1     -39.656 -49.925  11.269  1.00  0.00    -0.266 OA
HETATM   11  N   UNL     1     -41.474 -50.276  12.649  1.00  0.00    -0.351 N 
HETATM   12  H   UNL     1     -42.415 -49.953  12.847  1.00  0.00     0.163 HD
BRANCH  11  13
HETATM   13  C   UNL     1     -40.965 -51.473  13.294  1.00  0.00     0.084 C 
HETATM   14  C   UNL     1     -41.017 -51.310  14.812  1.00  0.00     0.032 C 
BRANCH  13  15
HETATM   15  C   UNL     1     -41.714 -52.710  12.859  1.00  0.00     0.008 A 
HETATM   16  C   UNL     1     -42.034 -53.788  13.869  1.00  0.00     0.007 A 
HETATM   17  C   UNL     1     -41.099 -54.087  12.732  1.00  0.00     0.007 A 
ENDBRANCH  13  15
ENDBRANCH  11  13
ENDBRANCH   4   9
BRANCH   1  18
HETATM   18  C   UNL     1     -44.616 -47.472   9.564  1.00  0.00     0.178 C 
BRANCH  18  19
HETATM   19  C   UNL     1     -44.697 -48.004   8.132  1.00  0.00     0.189 C 
BRANCH  19  20
HETATM   20  O   UNL     1     -46.045 -48.364   7.813  1.00  0.00    -0.394 OA
HETATM   21  C   UNL     1     -46.843 -48.494   8.981  1.00  0.00     0.201 C 
ENDBRANCH  19  20
ENDBRANCH  18  19
ENDBRANCH   1  18
TORSDOF 6
ENDMDL
MODEL 7
REMARK VINA RESULT:      -5.2      3.958      6.496
REMARK  6 active torsions:
REMARK  status: ('A' for Active; 'I' for Inactive)
REMARK    1  A    between atoms: O_2  and  C_3 
REMARK    2  A    between atoms: C_3  and  C_4 
REMARK    3  A    between atoms: C_4  and  N_5 
REMARK    4  A    between atoms: C_8  and  C_13 
REMARK       I    between atoms: C_13  and  N_15 
REMARK    5  A    between atoms: N_15  and  C_16 
REMARK    6  A    between atoms: C_16  and  C_18 
ROOT
HETATM    1  N   UNL     1     -40.325 -48.582  12.194  1.00  0.00    -0.255 N 
HETATM    2  N   UNL     1     -41.090 -49.521  12.886  1.00  0.00    -0.290 N 
ATOM      3  HN  UNL     1     -40.662 -50.219  13.495  1.00  0.00     0.187 HD
HETATM    4  C   UNL     1     -42.379 -49.458  12.713  1.00  0.00     0.116 A 
HETATM    5  C   UNL     1     -43.073 -48.502  11.834  1.00  0.00     0.042 A 
HETATM    6  C   UNL     1     -42.322 -47.587  11.224  1.00  0.00     0.078 A 
HETATM    7  C   UNL     1     -40.859 -47.562  11.408  1.00  0.00     0.262 A 
HETATM    8  O   UNL     1     -40.217 -46.664  10.869  1.00  0.00    -0.267 OA
ENDROOT
BRANCH   4   9
HETATM    9  C   UNL     1     -43.286 -50.440  13.457  1.00  0.00     0.269 C 
HETATM   10  O   UNL     1     -43.211 -50.518  14.675  1.00  0.00    -0.266 OA
HETATM   11  N   UNL     1     -44.150 -51.157  12.664  1.00  0.00    -0.351 N 
HETATM   12  H   UNL     1     -44.071 -51.040  11.661  1.00  0.00     0.163 HD
BRANCH  11  13
HETATM   13  C   UNL     1     -45.055 -52.151  13.212  1.00  0.00     0.084 C 
HETATM   14  C   UNL     1     -46.453 -51.962  12.627  1.00  0.00     0.032 C 
BRANCH  13  15
HETATM   15  C   UNL     1     -44.557 -53.558  12.976  1.00  0.00     0.008 A 
HETATM   16  C   UNL     1     -45.284 -54.726  13.603  1.00  0.00     0.007 A 
HETATM   17  C   UNL     1     -43.875 -54.415  14.020  1.00  0.00     0.007 A 
ENDBRANCH  13  15
ENDBRANCH  11  13
ENDBRANCH   4   9
BRANCH   1  18
HETATM   18  C   UNL     1     -38.872 -48.684  12.333  1.00  0.00     0.178 C 
BRANCH  18  19
HETATM   19  C   UNL     1     -38.287 -49.856  11.543  1.00  0.00     0.189 C 
BRANCH  19  20
HETATM   20  O   UNL     1     -38.572 -51.091  12.206  1.00  0.00    -0.394 OA
HETATM   21  C   UNL     1     -37.882 -51.193  13.443  1.00  0.00     0.201 C 
ENDBRANCH  19  20
ENDBRANCH  18  19
ENDBRANCH   1  18
TORSDOF 6
ENDMDL
MODEL 8
REMARK VINA RESULT:      -5.1      1.969      3.919
REMARK  6 active torsions:
REMARK  status: ('A' for Active; 'I' for Inactive)
REMARK    1  A    between atoms: O_2  and  C_3 
REMARK    2  A    between atoms: C_3  and  C_4 
REMARK    3  A    between atoms: C_4  and  N_5 
REMARK    4  A    between atoms: C_8  and  C_13 
REMARK       I    between atoms: C_13  and  N_15 
REMARK    5  A    between atoms: N_15  and  C_16 
REMARK    6  A    between atoms: C_16  and  C_18 
ROOT
HETATM    1  N   UNL     1     -42.174 -45.321  10.810  1.00  0.00    -0.255 N 
HETATM    2  N   UNL     1     -41.462 -46.390  11.354  1.00  0.00    -0.290 N 
ATOM      3  HN  UNL     1     -40.852 -46.274  12.164  1.00  0.00     0.187 HD
HETATM    4  C   UNL     1     -41.617 -47.545  10.773  1.00  0.00     0.116 A 
HETATM    5  C   UNL     1     -42.454 -47.793   9.587  1.00  0.00     0.042 A 
HETATM    6  C   UNL     1     -43.159 -46.764   9.118  1.00  0.00     0.078 A 
HETATM    7  C   UNL     1     -43.074 -45.436   9.753  1.00  0.00     0.262 A 
HETATM    8  O   UNL     1     -43.787 -44.534   9.320  1.00  0.00    -0.267 OA
ENDROOT
BRANCH   4   9
HETATM    9  C   UNL     1     -40.888 -48.770  11.325  1.00  0.00     0.269 C 
HETATM   10  O   UNL     1     -41.538 -49.745  11.675  1.00  0.00    -0.266 OA
HETATM   11  N   UNL     1     -39.518 -48.671  11.363  1.00  0.00    -0.351 N 
HETATM   12  H   UNL     1     -39.105 -47.784  11.098  1.00  0.00     0.163 HD
BRANCH  11  13
HETATM   13  C   UNL     1     -38.681 -49.734  11.888  1.00  0.00     0.084 C 
HETATM   14  C   UNL     1     -37.414 -49.867  11.045  1.00  0.00     0.032 C 
BRANCH  13  15
HETATM   15  C   UNL     1     -38.339 -49.518  13.344  1.00  0.00     0.008 A 
HETATM   16  C   UNL     1     -37.517 -50.549  14.083  1.00  0.00     0.007 A 
HETATM   17  C   UNL     1     -38.940 -50.297  14.493  1.00  0.00     0.007 A 
ENDBRANCH  13  15
ENDBRANCH  11  13
ENDBRANCH   4   9
BRANCH   1  18
HETATM   18  C   UNL     1     -41.957 -44.008  11.418  1.00  0.00     0.178 C 
BRANCH  18  19
HETATM   19  C   UNL     1     -40.603 -43.403  11.044  1.00  0.00     0.189 C 
BRANCH  19  20
HETATM   20  O   UNL     1     -40.008 -42.777  12.184  1.00  0.00    -0.394 OA
HETATM   21  C   UNL     1     -39.647 -43.728  13.176  1.00  0.00     0.201 C 
ENDBRANCH  19  20
ENDBRANCH  18  19
ENDBRANCH   1  18
TORSDOF 6
ENDMDL
MODEL 9
REMARK VINA RESULT:      -5.0      5.347      7.838
REMARK  6 active torsions:
REMARK  status: ('A' for Active; 'I' for Inactive)
REMARK    1  A    between atoms: O_2  and  C_3 
REMARK    2  A    between atoms: C_3  and  C_4 
REMARK    3  A    between atoms: C_4  and  N_5 
REMARK    4  A    between atoms: C_8  and  C_13 
REMARK       I    between atoms: C_13  and  N_15 
REMARK    5  A    between atoms: N_15  and  C_16 
REMARK    6  A    between atoms: C_16  and  C_18 
ROOT
HETATM    1  N   UNL     1     -43.439 -54.214  14.918  1.00  0.00    -0.255 N 
HETATM    2  N   UNL     1     -42.352 -53.596  14.300  1.00  0.00    -0.290 N 
ATOM      3  HN  UNL     1     -41.446 -53.515  14.763  1.00  0.00     0.187 HD
HETATM    4  C   UNL     1     -42.555 -53.129  13.103  1.00  0.00     0.116 A 
HETATM    5  C   UNL     1     -43.836 -53.181  12.377  1.00  0.00     0.042 A 
HETATM    6  C   UNL     1     -44.842 -53.818  12.971  1.00  0.00     0.078 A 
HETATM    7  C   UNL     1     -44.675 -54.417  14.309  1.00  0.00     0.262 A 
HETATM    8  O   UNL     1     -45.616 -55.044  14.790  1.00  0.00    -0.267 OA
ENDROOT
BRANCH   4   9
HETATM    9  C   UNL     1     -41.404 -52.458  12.350  1.00  0.00     0.269 C 
HETATM   10  O   UNL     1     -40.510 -53.151  11.886  1.00  0.00    -0.266 OA
HETATM   11  N   UNL     1     -41.490 -51.091  12.243  1.00  0.00    -0.351 N 
HETATM   12  H   UNL     1     -42.255 -50.631  12.724  1.00  0.00     0.163 HD
BRANCH  11  13
HETATM   13  C   UNL     1     -40.464 -50.302  11.586  1.00  0.00     0.084 C 
HETATM   14  C   UNL     1     -41.065 -49.001  11.057  1.00  0.00     0.032 C 
BRANCH  13  15
HETATM   15  C   UNL     1     -39.295 -50.024  12.501  1.00  0.00     0.008 A 
HETATM   16  C   UNL     1     -38.096 -49.267  11.976  1.00  0.00     0.007 A 
HETATM   17  C   UNL     1     -37.945 -50.700  12.400  1.00  0.00     0.007 A 
ENDBRANCH  13  15
ENDBRANCH  11  13
ENDBRANCH   4   9
BRANCH   1  18
HETATM   18  C   UNL     1     -43.237 -54.686  16.288  1.00  0.00     0.178 C 
BRANCH  18  19
HETATM   19  C   UNL     1     -42.234 -55.837  16.372  1.00  0.00     0.189 C 
BRANCH  19  20
HETATM   20  O   UNL     1     -40.906 -55.353  16.145  1.00  0.00    -0.394 OA
HETATM   21  C   UNL     1     -40.249 -55.034  17.363  1.00  0.00     0.201 C 
ENDBRANCH  19  20
ENDBRANCH  18  19
ENDBRANCH   1  18
TORSDOF 6
ENDMDL
