MODEL 1
REMARK VINA RESULT:      -6.8      0.000      0.000
REMARK  7 active torsions:
REMARK  status: ('A' for Active; 'I' for Inactive)
REMARK    1  A    between atoms: N_2  and  C_3 
REMARK    2  A    between atoms: N_2  and  C_19 
REMARK    3  A    between atoms: C_3  and  C_4 
REMARK    4  A    between atoms: C_4  and  O_5 
REMARK    5  A    between atoms: C_4  and  C_6 
REMARK    6  A    between atoms: C_6  and  N_7 
REMARK    7  A    between atoms: C_19  and  C_20 
ROOT
HETATM    1  C   UNL     1     -41.749 -48.993  11.376  1.00  0.00     0.164 C 
ENDROOT
BRANCH   1   2
HETATM    2  C   UNL     1     -41.769 -47.457  11.586  1.00  0.00     0.305 C 
BRANCH   2   3
HETATM    3  N   UNL     1     -41.436 -46.672  10.375  1.00  0.00     0.091 N 
HETATM    4  C   UNL     1     -40.387 -45.692  10.704  1.00  0.00     0.310 C 
BRANCH   3   5
HETATM    5  C   UNL     1     -42.631 -46.004   9.809  1.00  0.00     0.319 C 
BRANCH   5   6
HETATM    6  C   UNL     1     -43.513 -46.957   9.067  1.00  0.00     0.028 C 
HETATM    7  C   UNL     1     -43.327 -47.537   7.830  1.00  0.00     0.105 C 
HETATM    8  N   UNL     1     -44.388 -48.275   7.347  1.00  0.00    -0.363 N 
HETATM    9  C   UNL     1     -45.367 -48.263   8.230  1.00  0.00     0.047 C 
ATOM     10  HN  UNL     1     -44.411 -48.755   6.448  1.00  0.00     0.165 HD
HETATM   11  C   UNL     1     -46.719 -48.828   7.998  1.00  0.00     0.076 C 
HETATM   12  S   UNL     1     -45.020 -47.462   9.711  1.00  0.00    -0.079 SA
ENDBRANCH   5   6
ENDBRANCH   3   5
ENDBRANCH   2   3
ENDBRANCH   1   2
BRANCH   1  13
HETATM   13  O   UNL     1     -41.036 -49.323  10.178  1.00  0.00    -0.392 OA
HETATM   14  H   UNL     1     -40.088 -49.384  10.384  1.00  0.00     0.210 HD
ENDBRANCH   1  13
BRANCH   1  15
HETATM   15  C   UNL     1     -41.092 -49.705  12.562  1.00  0.00     0.163 C 
BRANCH  15  16
HETATM   16  N   UNL     1     -41.454 -51.112  12.601  1.00  0.00    -0.339 N 
HETATM   17  C   UNL     1     -40.680 -52.129  12.110  1.00  0.00     0.184 A 
HETATM   18  N   UNL     1     -41.280 -53.290  12.206  1.00  0.00    -0.350 N 
HETATM   19  C   UNL     1     -42.510 -53.010  12.747  1.00  0.00     0.060 A 
ATOM     20  HN  UNL     1     -40.913 -54.203  11.937  1.00  0.00     0.166 HD
HETATM   21  C   UNL     1     -43.574 -53.879  13.020  1.00  0.00     0.039 A 
HETATM   22  C   UNL     1     -42.644 -51.655  13.024  1.00  0.00     0.062 A 
HETATM   23  C   UNL     1     -44.771 -53.373  13.566  1.00  0.00    -0.054 A 
HETATM   24  C   UNL     1     -45.897 -54.337  13.821  1.00  0.00     0.049 C 
HETATM   25  C   UNL     1     -44.885 -51.994  13.847  1.00  0.00    -0.054 A 
HETATM   26  C   UNL     1     -46.142 -51.384  14.411  1.00  0.00     0.049 C 
HETATM   27  C   UNL     1     -43.812 -51.117  13.578  1.00  0.00     0.039 A 
ENDBRANCH  15  16
ENDBRANCH   1  15
TORSDOF 7
ENDMDL
MODEL 2
REMARK VINA RESULT:      -6.7      3.487      4.585
REMARK  7 active torsions:
REMARK  status: ('A' for Active; 'I' for Inactive)
REMARK    1  A    between atoms: N_2  and  C_3 
REMARK    2  A    between atoms: N_2  and  C_19 
REMARK    3  A    between atoms: C_3  and  C_4 
REMARK    4  A    between atoms: C_4  and  O_5 
REMARK    5  A    between atoms: C_4  and  C_6 
REMARK    6  A    between atoms: C_6  and  N_7 
REMARK    7  A    between atoms: C_19  and  C_20 
ROOT
HETATM    1  C   UNL     1     -38.024 -50.986  13.122  1.00  0.00     0.164 C 
ENDROOT
BRANCH   1   2
HETATM    2  C   UNL     1     -37.458 -50.013  14.187  1.00  0.00     0.305 C 
BRANCH   2   3
HETATM    3  N   UNL     1     -37.726 -48.583  13.911  1.00  0.00     0.091 N 
HETATM    4  C   UNL     1     -36.995 -47.754  14.885  1.00  0.00     0.310 C 
BRANCH   3   5
HETATM    5  C   UNL     1     -39.176 -48.282  13.935  1.00  0.00     0.319 C 
BRANCH   5   6
HETATM    6  C   UNL     1     -39.593 -47.413  12.792  1.00  0.00     0.028 C 
HETATM    7  C   UNL     1     -39.912 -47.765  11.498  1.00  0.00     0.105 C 
HETATM    8  N   UNL     1     -40.129 -46.717  10.627  1.00  0.00    -0.363 N 
HETATM    9  C   UNL     1     -39.989 -45.576  11.272  1.00  0.00     0.047 C 
ATOM     10  HN  UNL     1     -40.363 -46.810   9.639  1.00  0.00     0.165 HD
HETATM   11  C   UNL     1     -40.007 -44.238  10.633  1.00  0.00     0.076 C 
HETATM   12  S   UNL     1     -39.698 -45.710  12.961  1.00  0.00    -0.079 SA
ENDBRANCH   5   6
ENDBRANCH   3   5
ENDBRANCH   2   3
ENDBRANCH   1   2
BRANCH   1  13
HETATM   13  O   UNL     1     -36.955 -51.636  12.422  1.00  0.00    -0.392 OA
HETATM   14  H   UNL     1     -37.331 -52.316  11.838  1.00  0.00     0.210 HD
ENDBRANCH   1  13
BRANCH   1  15
HETATM   15  C   UNL     1     -38.921 -52.049  13.763  1.00  0.00     0.163 C 
BRANCH  15  16
HETATM   16  N   UNL     1     -40.202 -52.141  13.084  1.00  0.00    -0.339 N 
HETATM   17  C   UNL     1     -40.598 -51.328  12.055  1.00  0.00     0.184 A 
HETATM   18  N   UNL     1     -41.827 -51.580  11.679  1.00  0.00    -0.350 N 
HETATM   19  C   UNL     1     -42.261 -52.570  12.524  1.00  0.00     0.060 A 
ATOM     20  HN  UNL     1     -42.349 -51.136  10.923  1.00  0.00     0.166 HD
HETATM   21  C   UNL     1     -43.520 -53.181  12.599  1.00  0.00     0.039 A 
HETATM   22  C   UNL     1     -41.260 -52.958  13.406  1.00  0.00     0.062 A 
HETATM   23  C   UNL     1     -43.761 -54.177  13.566  1.00  0.00    -0.054 A 
HETATM   24  C   UNL     1     -45.134 -54.789  13.626  1.00  0.00     0.049 C 
HETATM   25  C   UNL     1     -42.727 -54.562  14.448  1.00  0.00    -0.054 A 
HETATM   26  C   UNL     1     -42.924 -55.603  15.519  1.00  0.00     0.049 C 
HETATM   27  C   UNL     1     -41.457 -53.952  14.373  1.00  0.00     0.039 A 
ENDBRANCH  15  16
ENDBRANCH   1  15
TORSDOF 7
ENDMDL
MODEL 3
REMARK VINA RESULT:      -6.4      2.969      7.021
REMARK  7 active torsions:
REMARK  status: ('A' for Active; 'I' for Inactive)
REMARK    1  A    between atoms: N_2  and  C_3 
REMARK    2  A    between atoms: N_2  and  C_19 
REMARK    3  A    between atoms: C_3  and  C_4 
REMARK    4  A    between atoms: C_4  and  O_5 
REMARK    5  A    between atoms: C_4  and  C_6 
REMARK    6  A    between atoms: C_6  and  N_7 
REMARK    7  A    between atoms: C_19  and  C_20 
ROOT
HETATM    1  C   UNL     1     -40.900 -52.835  12.499  1.00  0.00     0.164 C 
ENDROOT
BRANCH   1   2
HETATM    2  C   UNL     1     -41.454 -54.166  13.067  1.00  0.00     0.305 C 
BRANCH   2   3
HETATM    3  N   UNL     1     -41.684 -54.157  14.531  1.00  0.00     0.091 N 
HETATM    4  C   UNL     1     -40.468 -54.628  15.216  1.00  0.00     0.310 C 
BRANCH   3   5
HETATM    5  C   UNL     1     -42.860 -54.976  14.906  1.00  0.00     0.319 C 
BRANCH   5   6
HETATM    6  C   UNL     1     -44.150 -54.297  14.573  1.00  0.00     0.028 C 
HETATM    7  C   UNL     1     -45.162 -54.707  13.731  1.00  0.00     0.105 C 
HETATM    8  N   UNL     1     -46.176 -53.795  13.523  1.00  0.00    -0.363 N 
HETATM    9  C   UNL     1     -45.933 -52.704  14.221  1.00  0.00     0.047 C 
ATOM     10  HN  UNL     1     -46.987 -53.943  12.922  1.00  0.00     0.165 HD
HETATM   11  C   UNL     1     -46.729 -51.455  14.136  1.00  0.00     0.076 C 
HETATM   12  S   UNL     1     -44.546 -52.764  15.234  1.00  0.00    -0.079 SA
ENDBRANCH   5   6
ENDBRANCH   3   5
ENDBRANCH   2   3
ENDBRANCH   1   2
BRANCH   1  13
HETATM   13  O   UNL     1     -41.211 -52.721  11.105  1.00  0.00    -0.392 OA
HETATM   14  H   UNL     1     -41.397 -51.789  10.901  1.00  0.00     0.210 HD
ENDBRANCH   1  13
BRANCH   1  15
HETATM   15  C   UNL     1     -41.485 -51.630  13.242  1.00  0.00     0.163 C 
BRANCH  15  16
HETATM   16  N   UNL     1     -40.621 -50.467  13.126  1.00  0.00    -0.339 N 
HETATM   17  C   UNL     1     -39.523 -50.232  13.909  1.00  0.00     0.184 A 
HETATM   18  N   UNL     1     -38.972 -49.073  13.642  1.00  0.00    -0.350 N 
HETATM   19  C   UNL     1     -39.768 -48.516  12.672  1.00  0.00     0.060 A 
ATOM     20  HN  UNL     1     -38.134 -48.673  14.063  1.00  0.00     0.166 HD
HETATM   21  C   UNL     1     -39.667 -47.261  12.059  1.00  0.00     0.039 A 
HETATM   22  C   UNL     1     -40.802 -49.372  12.313  1.00  0.00     0.062 A 
HETATM   23  C   UNL     1     -40.614 -46.876  11.088  1.00  0.00    -0.054 A 
HETATM   24  C   UNL     1     -40.481 -45.510  10.472  1.00  0.00     0.049 C 
HETATM   25  C   UNL     1     -41.652 -47.764  10.731  1.00  0.00    -0.054 A 
HETATM   26  C   UNL     1     -42.709 -47.407   9.719  1.00  0.00     0.049 C 
HETATM   27  C   UNL     1     -41.754 -49.031  11.345  1.00  0.00     0.039 A 
ENDBRANCH  15  16
ENDBRANCH   1  15
TORSDOF 7
ENDMDL
MODEL 4
REMARK VINA RESULT:      -6.3      2.434      4.347
REMARK  7 active torsions:
REMARK  status: ('A' for Active; 'I' for Inactive)
REMARK    1  A    between atoms: N_2  and  C_3 
REMARK    2  A    between atoms: N_2  and  C_19 
REMARK    3  A    between atoms: C_3  and  C_4 
REMARK    4  A    between atoms: C_4  and  O_5 
REMARK    5  A    between atoms: C_4  and  C_6 
REMARK    6  A    between atoms: C_6  and  N_7 
REMARK    7  A    between atoms: C_19  and  C_20 
ROOT
HETATM    1  C   UNL     1     -41.168 -52.747  12.668  1.00  0.00     0.164 C 
ENDROOT
BRANCH   1   2
HETATM    2  C   UNL     1     -40.076 -52.104  13.561  1.00  0.00     0.305 C 
BRANCH   2   3
HETATM    3  N   UNL     1     -39.334 -50.996  12.916  1.00  0.00     0.091 N 
HETATM    4  C   UNL     1     -37.895 -51.154  13.184  1.00  0.00     0.310 C 
BRANCH   3   5
HETATM    5  C   UNL     1     -39.821 -49.673  13.372  1.00  0.00     0.319 C 
BRANCH   5   6
HETATM    6  C   UNL     1     -40.312 -48.831  12.238  1.00  0.00     0.028 C 
HETATM    7  C   UNL     1     -39.685 -47.790  11.587  1.00  0.00     0.105 C 
HETATM    8  N   UNL     1     -40.451 -47.112  10.661  1.00  0.00    -0.363 N 
HETATM    9  C   UNL     1     -41.652 -47.654  10.606  1.00  0.00     0.047 C 
ATOM     10  HN  UNL     1     -40.138 -46.317  10.106  1.00  0.00     0.165 HD
HETATM   11  C   UNL     1     -42.790 -47.104   9.830  1.00  0.00     0.076 C 
HETATM   12  S   UNL     1     -41.878 -49.055  11.575  1.00  0.00    -0.079 SA
ENDBRANCH   5   6
ENDBRANCH   3   5
ENDBRANCH   2   3
ENDBRANCH   1   2
BRANCH   1  13
HETATM   13  O   UNL     1     -40.564 -53.527  11.627  1.00  0.00    -0.392 OA
HETATM   14  H   UNL     1     -41.198 -53.616  10.895  1.00  0.00     0.210 HD
ENDBRANCH   1  13
BRANCH   1  15
HETATM   15  C   UNL     1     -42.098 -53.644  13.489  1.00  0.00     0.163 C 
BRANCH  15  16
HETATM   16  N   UNL     1     -43.486 -53.232  13.354  1.00  0.00    -0.339 N 
HETATM   17  C   UNL     1     -44.147 -53.102  12.162  1.00  0.00     0.184 A 
HETATM   18  N   UNL     1     -45.363 -52.643  12.326  1.00  0.00    -0.350 N 
HETATM   19  C   UNL     1     -45.483 -52.430  13.677  1.00  0.00     0.060 A 
ATOM     20  HN  UNL     1     -46.067 -52.480  11.606  1.00  0.00     0.166 HD
HETATM   21  C   UNL     1     -46.562 -51.898  14.395  1.00  0.00     0.039 A 
HETATM   22  C   UNL     1     -44.329 -52.805  14.353  1.00  0.00     0.062 A 
HETATM   23  C   UNL     1     -46.467 -51.746  15.793  1.00  0.00    -0.054 A 
HETATM   24  C   UNL     1     -47.640 -51.150  16.522  1.00  0.00     0.049 C 
HETATM   25  C   UNL     1     -45.288 -52.142  16.463  1.00  0.00    -0.054 A 
HETATM   26  C   UNL     1     -45.113 -51.986  17.951  1.00  0.00     0.049 C 
HETATM   27  C   UNL     1     -44.202 -52.681  15.742  1.00  0.00     0.039 A 
ENDBRANCH  15  16
ENDBRANCH   1  15
TORSDOF 7
ENDMDL
MODEL 5
REMARK VINA RESULT:      -6.2      2.322      4.102
REMARK  7 active torsions:
REMARK  status: ('A' for Active; 'I' for Inactive)
REMARK    1  A    between atoms: N_2  and  C_3 
REMARK    2  A    between atoms: N_2  and  C_19 
REMARK    3  A    between atoms: C_3  and  C_4 
REMARK    4  A    between atoms: C_4  and  O_5 
REMARK    5  A    between atoms: C_4  and  C_6 
REMARK    6  A    between atoms: C_6  and  N_7 
REMARK    7  A    between atoms: C_19  and  C_20 
ROOT
HETATM    1  C   UNL     1     -40.998 -52.959  12.688  1.00  0.00     0.164 C 
ENDROOT
BRANCH   1   2
HETATM    2  C   UNL     1     -39.812 -52.334  13.465  1.00  0.00     0.305 C 
BRANCH   2   3
HETATM    3  N   UNL     1     -39.619 -50.885  13.224  1.00  0.00     0.091 N 
HETATM    4  C   UNL     1     -38.519 -50.394  14.070  1.00  0.00     0.310 C 
BRANCH   3   5
HETATM    5  C   UNL     1     -40.864 -50.119  13.468  1.00  0.00     0.319 C 
BRANCH   5   6
HETATM    6  C   UNL     1     -41.366 -49.449  12.229  1.00  0.00     0.028 C 
HETATM    7  C   UNL     1     -40.772 -49.344  10.989  1.00  0.00     0.105 C 
HETATM    8  N   UNL     1     -41.426 -48.542  10.077  1.00  0.00    -0.363 N 
HETATM    9  C   UNL     1     -42.520 -48.055  10.626  1.00  0.00     0.047 C 
ATOM     10  HN  UNL     1     -41.111 -48.355   9.125  1.00  0.00     0.165 HD
HETATM   11  C   UNL     1     -43.401 -47.041   9.997  1.00  0.00     0.076 C 
HETATM   12  S   UNL     1     -42.867 -48.619  12.212  1.00  0.00    -0.079 SA
ENDBRANCH   5   6
ENDBRANCH   3   5
ENDBRANCH   2   3
ENDBRANCH   1   2
BRANCH   1  13
HETATM   13  O   UNL     1     -40.566 -53.408  11.397  1.00  0.00    -0.392 OA
HETATM   14  H   UNL     1     -41.241 -54.005  11.032  1.00  0.00     0.210 HD
ENDBRANCH   1  13
BRANCH   1  15
HETATM   15  C   UNL     1     -41.601 -54.140  13.453  1.00  0.00     0.163 C 
BRANCH  15  16
HETATM   16  N   UNL     1     -42.367 -53.690  14.603  1.00  0.00    -0.339 N 
HETATM   17  C   UNL     1     -42.030 -53.936  15.907  1.00  0.00     0.184 A 
HETATM   18  N   UNL     1     -42.934 -53.483  16.740  1.00  0.00    -0.350 N 
HETATM   19  C   UNL     1     -43.918 -52.954  15.942  1.00  0.00     0.060 A 
ATOM     20  HN  UNL     1     -42.912 -53.516  17.759  1.00  0.00     0.166 HD
HETATM   21  C   UNL     1     -45.141 -52.380  16.310  1.00  0.00     0.039 A 
HETATM   22  C   UNL     1     -43.585 -53.052  14.597  1.00  0.00     0.062 A 
HETATM   23  C   UNL     1     -46.023 -51.910  15.316  1.00  0.00    -0.054 A 
HETATM   24  C   UNL     1     -47.337 -51.322  15.755  1.00  0.00     0.049 C 
HETATM   25  C   UNL     1     -45.663 -52.012  13.954  1.00  0.00    -0.054 A 
HETATM   26  C   UNL     1     -46.568 -51.551  12.842  1.00  0.00     0.049 C 
HETATM   27  C   UNL     1     -44.429 -52.587  13.581  1.00  0.00     0.039 A 
ENDBRANCH  15  16
ENDBRANCH   1  15
TORSDOF 7
ENDMDL
MODEL 6
REMARK VINA RESULT:      -6.0      2.158      2.959
REMARK  7 active torsions:
REMARK  status: ('A' for Active; 'I' for Inactive)
REMARK    1  A    between atoms: N_2  and  C_3 
REMARK    2  A    between atoms: N_2  and  C_19 
REMARK    3  A    between atoms: C_3  and  C_4 
REMARK    4  A    between atoms: C_4  and  O_5 
REMARK    5  A    between atoms: C_4  and  C_6 
REMARK    6  A    between atoms: C_6  and  N_7 
REMARK    7  A    between atoms: C_19  and  C_20 
ROOT
HETATM    1  C   UNL     1     -39.406 -50.454  12.604  1.00  0.00     0.164 C 
ENDROOT
BRANCH   1   2
HETATM    2  C   UNL     1     -38.829 -49.209  13.326  1.00  0.00     0.305 C 
BRANCH   2   3
HETATM    3  N   UNL     1     -39.543 -47.946  13.029  1.00  0.00     0.091 N 
HETATM    4  C   UNL     1     -38.878 -46.835  13.731  1.00  0.00     0.310 C 
BRANCH   3   5
HETATM    5  C   UNL     1     -40.976 -48.027  13.395  1.00  0.00     0.319 C 
BRANCH   5   6
HETATM    6  C   UNL     1     -41.873 -47.807  12.219  1.00  0.00     0.028 C 
HETATM    7  C   UNL     1     -42.514 -48.733  11.423  1.00  0.00     0.105 C 
HETATM    8  N   UNL     1     -43.171 -48.224  10.322  1.00  0.00    -0.363 N 
HETATM    9  C   UNL     1     -43.037 -46.913  10.298  1.00  0.00     0.047 C 
ATOM     10  HN  UNL     1     -43.682 -48.776   9.633  1.00  0.00     0.165 HD
HETATM   11  C   UNL     1     -43.486 -46.039   9.187  1.00  0.00     0.076 C 
HETATM   12  S   UNL     1     -42.215 -46.228  11.643  1.00  0.00    -0.079 SA
ENDBRANCH   5   6
ENDBRANCH   3   5
ENDBRANCH   2   3
ENDBRANCH   1   2
BRANCH   1  13
HETATM   13  O   UNL     1     -38.370 -51.136  11.885  1.00  0.00    -0.392 OA
HETATM   14  H   UNL     1     -37.598 -50.549  11.816  1.00  0.00     0.210 HD
ENDBRANCH   1  13
BRANCH   1  15
HETATM   15  C   UNL     1     -40.047 -51.424  13.599  1.00  0.00     0.163 C 
BRANCH  15  16
HETATM   16  N   UNL     1     -41.353 -51.868  13.140  1.00  0.00    -0.339 N 
HETATM   17  C   UNL     1     -41.585 -52.502  11.949  1.00  0.00     0.184 A 
HETATM   18  N   UNL     1     -42.861 -52.722  11.754  1.00  0.00    -0.350 N 
HETATM   19  C   UNL     1     -43.487 -52.173  12.845  1.00  0.00     0.060 A 
ATOM     20  HN  UNL     1     -43.296 -53.197  10.962  1.00  0.00     0.166 HD
HETATM   21  C   UNL     1     -44.857 -52.081  13.125  1.00  0.00     0.039 A 
HETATM   22  C   UNL     1     -42.568 -51.645  13.743  1.00  0.00     0.062 A 
HETATM   23  C   UNL     1     -45.290 -51.453  14.310  1.00  0.00    -0.054 A 
HETATM   24  C   UNL     1     -46.770 -51.356  14.560  1.00  0.00     0.049 C 
HETATM   25  C   UNL     1     -44.339 -50.929  15.214  1.00  0.00    -0.054 A 
HETATM   26  C   UNL     1     -44.735 -50.227  16.486  1.00  0.00     0.049 C 
HETATM   27  C   UNL     1     -42.959 -51.024  14.936  1.00  0.00     0.039 A 
ENDBRANCH  15  16
ENDBRANCH   1  15
TORSDOF 7
ENDMDL
MODEL 7
REMARK VINA RESULT:      -5.8      1.978      2.585
REMARK  7 active torsions:
REMARK  status: ('A' for Active; 'I' for Inactive)
REMARK    1  A    between atoms: N_2  and  C_3 
REMARK    2  A    between atoms: N_2  and  C_19 
REMARK    3  A    between atoms: C_3  and  C_4 
REMARK    4  A    between atoms: C_4  and  O_5 
REMARK    5  A    between atoms: C_4  and  C_6 
REMARK    6  A    between atoms: C_6  and  N_7 
REMARK    7  A    between atoms: C_19  and  C_20 
ROOT
HETATM    1  C   UNL     1     -40.947 -49.980  13.883  1.00  0.00     0.164 C 
ENDROOT
BRANCH   1   2
HETATM    2  C   UNL     1     -39.758 -49.059  13.510  1.00  0.00     0.305 C 
BRANCH   2   3
HETATM    3  N   UNL     1     -39.565 -48.872  12.053  1.00  0.00     0.091 N 
HETATM    4  C   UNL     1     -38.193 -49.265  11.690  1.00  0.00     0.310 C 
BRANCH   3   5
HETATM    5  C   UNL     1     -39.850 -47.480  11.637  1.00  0.00     0.319 C 
BRANCH   5   6
HETATM    6  C   UNL     1     -41.137 -47.367  10.885  1.00  0.00     0.028 C 
HETATM    7  C   UNL     1     -41.841 -48.338  10.205  1.00  0.00     0.105 C 
HETATM    8  N   UNL     1     -42.936 -47.897   9.491  1.00  0.00    -0.363 N 
HETATM    9  C   UNL     1     -43.065 -46.595   9.647  1.00  0.00     0.047 C 
ATOM     10  HN  UNL     1     -43.550 -48.487   8.930  1.00  0.00     0.165 HD
HETATM   11  C   UNL     1     -44.042 -45.750   8.917  1.00  0.00     0.076 C 
HETATM   12  S   UNL     1     -41.952 -45.865  10.734  1.00  0.00    -0.079 SA
ENDBRANCH   5   6
ENDBRANCH   3   5
ENDBRANCH   2   3
ENDBRANCH   1   2
BRANCH   1  13
HETATM   13  O   UNL     1     -41.967 -49.229  14.555  1.00  0.00    -0.392 OA
HETATM   14  H   UNL     1     -42.132 -49.633  15.424  1.00  0.00     0.210 HD
ENDBRANCH   1  13
BRANCH   1  15
HETATM   15  C   UNL     1     -41.549 -50.640  12.640  1.00  0.00     0.163 C 
BRANCH  15  16
HETATM   16  N   UNL     1     -42.012 -51.988  12.927  1.00  0.00    -0.339 N 
HETATM   17  C   UNL     1     -41.312 -53.128  12.639  1.00  0.00     0.184 A 
HETATM   18  N   UNL     1     -41.994 -54.207  12.934  1.00  0.00    -0.350 N 
HETATM   19  C   UNL     1     -43.202 -53.748  13.396  1.00  0.00     0.060 A 
ATOM     20  HN  UNL     1     -41.693 -55.177  12.839  1.00  0.00     0.166 HD
HETATM   21  C   UNL     1     -44.327 -54.476  13.804  1.00  0.00     0.039 A 
HETATM   22  C   UNL     1     -43.239 -52.360  13.422  1.00  0.00     0.062 A 
HETATM   23  C   UNL     1     -45.485 -53.797  14.232  1.00  0.00    -0.054 A 
HETATM   24  C   UNL     1     -46.678 -54.618  14.639  1.00  0.00     0.049 C 
HETATM   25  C   UNL     1     -45.500 -52.385  14.258  1.00  0.00    -0.054 A 
HETATM   26  C   UNL     1     -46.712 -51.597  14.683  1.00  0.00     0.049 C 
HETATM   27  C   UNL     1     -44.367 -51.649  13.851  1.00  0.00     0.039 A 
ENDBRANCH  15  16
ENDBRANCH   1  15
TORSDOF 7
ENDMDL
MODEL 8
REMARK VINA RESULT:      -5.8      2.543      3.985
REMARK  7 active torsions:
REMARK  status: ('A' for Active; 'I' for Inactive)
REMARK    1  A    between atoms: N_2  and  C_3 
REMARK    2  A    between atoms: N_2  and  C_19 
REMARK    3  A    between atoms: C_3  and  C_4 
REMARK    4  A    between atoms: C_4  and  O_5 
REMARK    5  A    between atoms: C_4  and  C_6 
REMARK    6  A    between atoms: C_6  and  N_7 
REMARK    7  A    between atoms: C_19  and  C_20 
ROOT
HETATM    1  C   UNL     1     -41.079 -50.993  11.883  1.00  0.00     0.164 C 
ENDROOT
BRANCH   1   2
HETATM    2  C   UNL     1     -40.350 -50.263  13.039  1.00  0.00     0.305 C 
BRANCH   2   3
HETATM    3  N   UNL     1     -39.700 -48.992  12.645  1.00  0.00     0.091 N 
HETATM    4  C   UNL     1     -38.400 -48.878  13.327  1.00  0.00     0.310 C 
BRANCH   3   5
HETATM    5  C   UNL     1     -40.561 -47.822  12.938  1.00  0.00     0.319 C 
BRANCH   5   6
HETATM    6  C   UNL     1     -41.123 -47.208  11.696  1.00  0.00     0.028 C 
HETATM    7  C   UNL     1     -40.531 -46.337  10.807  1.00  0.00     0.105 C 
HETATM    8  N   UNL     1     -41.354 -45.835   9.820  1.00  0.00    -0.363 N 
HETATM    9  C   UNL     1     -42.563 -46.342   9.959  1.00  0.00     0.047 C 
ATOM     10  HN  UNL     1     -41.072 -45.175   9.096  1.00  0.00     0.165 HD
HETATM   11  C   UNL     1     -43.748 -45.926   9.169  1.00  0.00     0.076 C 
HETATM   12  S   UNL     1     -42.737 -47.516  11.202  1.00  0.00    -0.079 SA
ENDBRANCH   5   6
ENDBRANCH   3   5
ENDBRANCH   2   3
ENDBRANCH   1   2
BRANCH   1  13
HETATM   13  O   UNL     1     -40.636 -50.488  10.617  1.00  0.00    -0.392 OA
HETATM   14  H   UNL     1     -40.504 -51.237  10.011  1.00  0.00     0.210 HD
ENDBRANCH   1  13
BRANCH   1  15
HETATM   15  C   UNL     1     -40.828 -52.503  11.935  1.00  0.00     0.163 C 
BRANCH  15  16
HETATM   16  N   UNL     1     -41.831 -53.179  12.741  1.00  0.00    -0.339 N 
HETATM   17  C   UNL     1     -43.183 -53.061  12.561  1.00  0.00     0.184 A 
HETATM   18  N   UNL     1     -43.856 -53.717  13.474  1.00  0.00    -0.350 N 
HETATM   19  C   UNL     1     -42.902 -54.251  14.303  1.00  0.00     0.060 A 
ATOM     20  HN  UNL     1     -44.869 -53.810  13.552  1.00  0.00     0.166 HD
HETATM   21  C   UNL     1     -43.068 -55.005  15.472  1.00  0.00     0.039 A 
HETATM   22  C   UNL     1     -41.621 -53.948  13.862  1.00  0.00     0.062 A 
HETATM   23  C   UNL     1     -41.938 -55.445  16.190  1.00  0.00    -0.054 A 
HETATM   24  C   UNL     1     -42.163 -56.232  17.453  1.00  0.00     0.049 C 
HETATM   25  C   UNL     1     -40.644 -55.133  15.720  1.00  0.00    -0.054 A 
HETATM   26  C   UNL     1     -39.395 -55.552  16.451  1.00  0.00     0.049 C 
HETATM   27  C   UNL     1     -40.473 -54.377  14.541  1.00  0.00     0.039 A 
ENDBRANCH  15  16
ENDBRANCH   1  15
TORSDOF 7
ENDMDL
MODEL 9
REMARK VINA RESULT:      -5.6      3.128      6.778
REMARK  7 active torsions:
REMARK  status: ('A' for Active; 'I' for Inactive)
REMARK    1  A    between atoms: N_2  and  C_3 
REMARK    2  A    between atoms: N_2  and  C_19 
REMARK    3  A    between atoms: C_3  and  C_4 
REMARK    4  A    between atoms: C_4  and  O_5 
REMARK    5  A    between atoms: C_4  and  C_6 
REMARK    6  A    between atoms: C_6  and  N_7 
REMARK    7  A    between atoms: C_19  and  C_20 
ROOT
HETATM    1  C   UNL     1     -39.308 -50.869  14.117  1.00  0.00     0.164 C 
ENDROOT
BRANCH   1   2
HETATM    2  C   UNL     1     -39.378 -52.409  13.958  1.00  0.00     0.305 C 
BRANCH   2   3
HETATM    3  N   UNL     1     -40.736 -52.978  14.123  1.00  0.00     0.091 N 
HETATM    4  C   UNL     1     -40.633 -54.301  14.762  1.00  0.00     0.310 C 
BRANCH   3   5
HETATM    5  C   UNL     1     -41.455 -53.062  12.831  1.00  0.00     0.319 C 
BRANCH   5   6
HETATM    6  C   UNL     1     -42.756 -52.325  12.860  1.00  0.00     0.028 C 
HETATM    7  C   UNL     1     -42.993 -50.976  13.017  1.00  0.00     0.105 C 
HETATM    8  N   UNL     1     -44.318 -50.609  13.137  1.00  0.00    -0.363 N 
HETATM    9  C   UNL     1     -45.078 -51.683  13.055  1.00  0.00     0.047 C 
ATOM     10  HN  UNL     1     -44.656 -49.656  13.268  1.00  0.00     0.165 HD
HETATM   11  C   UNL     1     -46.544 -51.697  13.284  1.00  0.00     0.076 C 
HETATM   12  S   UNL     1     -44.252 -53.153  12.725  1.00  0.00    -0.079 SA
ENDBRANCH   5   6
ENDBRANCH   3   5
ENDBRANCH   2   3
ENDBRANCH   1   2
BRANCH   1  13
HETATM   13  O   UNL     1     -38.606 -50.524  15.319  1.00  0.00    -0.392 OA
HETATM   14  H   UNL     1     -38.231 -49.632  15.217  1.00  0.00     0.210 HD
ENDBRANCH   1  13
BRANCH   1  15
HETATM   15  C   UNL     1     -38.604 -50.220  12.923  1.00  0.00     0.163 C 
BRANCH  15  16
HETATM   16  N   UNL     1     -39.535 -49.456  12.110  1.00  0.00    -0.339 N 
HETATM   17  C   UNL     1     -40.267 -49.970  11.073  1.00  0.00     0.184 A 
HETATM   18  N   UNL     1     -40.968 -49.046  10.464  1.00  0.00    -0.350 N 
HETATM   19  C   UNL     1     -40.648 -47.876  11.107  1.00  0.00     0.060 A 
ATOM     20  HN  UNL     1     -41.610 -49.169   9.681  1.00  0.00     0.166 HD
HETATM   21  C   UNL     1     -41.075 -46.571  10.832  1.00  0.00     0.039 A 
HETATM   22  C   UNL     1     -39.766 -48.101  12.156  1.00  0.00     0.062 A 
HETATM   23  C   UNL     1     -40.604 -45.499  11.617  1.00  0.00    -0.054 A 
HETATM   24  C   UNL     1     -41.069 -44.110  11.271  1.00  0.00     0.049 C 
HETATM   25  C   UNL     1     -39.713 -45.749  12.683  1.00  0.00    -0.054 A 
HETATM   26  C   UNL     1     -39.155 -44.647  13.546  1.00  0.00     0.049 C 
HETATM   27  C   UNL     1     -39.285 -47.064  12.966  1.00  0.00     0.039 A 
ENDBRANCH  15  16
ENDBRANCH   1  15
TORSDOF 7
ENDMDL
