MODEL 1
REMARK VINA RESULT:      -7.0      0.000      0.000
REMARK  6 active torsions:
REMARK  status: ('A' for Active; 'I' for Inactive)
REMARK    1  A    between atoms: C_8  and  N_9 
REMARK       I    between atoms: N_9  and  C_10 
REMARK       I    between atoms: C_10  and  N_12 
REMARK    2  A    between atoms: N_12  and  C_13 
REMARK    3  A    between atoms: C_13  and  C_14 
REMARK    4  A    between atoms: C_14  and  O_15 
REMARK    5  A    between atoms: C_14  and  C_16 
REMARK    6  A    between atoms: C_16  and  N_17 
ROOT
HETATM    1  N   UNL     1     -41.539 -48.510   9.937  1.00  0.00    -0.294 N 
HETATM    2  C   UNL     1     -41.533 -49.310  11.063  1.00  0.00     0.321 C 
HETATM    3  O   UNL     1     -42.334 -49.296  11.986  1.00  0.00    -0.247 OA
HETATM    4  N   UNL     1     -40.511 -50.229  11.064  1.00  0.00    -0.340 N 
HETATM    5  H   UNL     1     -40.829 -48.653   9.239  1.00  0.00     0.172 HD
HETATM    6  H   UNL     1     -39.698 -50.029  10.503  1.00  0.00     0.164 HD
ENDROOT
BRANCH   4   7
HETATM    7  C   UNL     1     -40.393 -51.167  12.182  1.00  0.00     0.157 C 
BRANCH   7   8
HETATM    8  C   UNL     1     -41.264 -52.447  12.041  1.00  0.00     0.164 C 
BRANCH   8   9
HETATM    9  O   UNL     1     -40.501 -53.461  11.379  1.00  0.00    -0.392 OA
HETATM   10  H   UNL     1     -40.854 -53.571  10.480  1.00  0.00     0.210 HD
ENDBRANCH   8   9
BRANCH   8  11
HETATM   11  C   UNL     1     -41.661 -52.871  13.471  1.00  0.00     0.305 C 
BRANCH  11  12
HETATM   12  N   UNL     1     -42.913 -52.426  14.108  1.00  0.00     0.090 N 
HETATM   13  C   UNL     1     -43.330 -53.239  15.263  1.00  0.00     0.272 C 
HETATM   14  C   UNL     1     -43.712 -54.681  14.911  1.00  0.00     0.030 C 
HETATM   15  C   UNL     1     -44.711 -54.764  13.755  1.00  0.00     0.003 C 
HETATM   16  C   UNL     1     -44.345 -53.843  12.595  1.00  0.00     0.030 C 
HETATM   17  C   UNL     1     -43.994 -52.435  13.096  1.00  0.00     0.272 C 
ENDBRANCH  11  12
ENDBRANCH   8  11
ENDBRANCH   7   8
ENDBRANCH   4   7
BRANCH   1  18
HETATM   18  C   UNL     1     -42.556 -47.573   9.668  1.00  0.00     0.114 A 
HETATM   19  C   UNL     1     -42.371 -46.203   9.902  1.00  0.00    -0.018 A 
HETATM   20  C   UNL     1     -41.122 -45.602  10.473  1.00  0.00     0.052 C 
HETATM   21  C   UNL     1     -43.424 -45.337   9.548  1.00  0.00     0.012 A 
HETATM   22  C   UNL     1     -44.599 -45.836   9.003  1.00  0.00     0.018 A 
HETATM   23  C   UNL     1     -44.696 -47.195   8.832  1.00  0.00     0.089 A 
HETATM   24  N   UNL     1     -43.706 -48.041   9.158  1.00  0.00    -0.352 N 
ATOM     25  HN  UNL     1     -43.828 -49.043   9.019  1.00  0.00     0.166 HD
ENDBRANCH   1  18
TORSDOF 6
ENDMDL
MODEL 2
REMARK VINA RESULT:      -6.7      1.519      2.628
REMARK  6 active torsions:
REMARK  status: ('A' for Active; 'I' for Inactive)
REMARK    1  A    between atoms: C_8  and  N_9 
REMARK       I    between atoms: N_9  and  C_10 
REMARK       I    between atoms: C_10  and  N_12 
REMARK    2  A    between atoms: N_12  and  C_13 
REMARK    3  A    between atoms: C_13  and  C_14 
REMARK    4  A    between atoms: C_14  and  O_15 
REMARK    5  A    between atoms: C_14  and  C_16 
REMARK    6  A    between atoms: C_16  and  N_17 
ROOT
HETATM    1  N   UNL     1     -41.219 -48.916  10.459  1.00  0.00    -0.294 N 
HETATM    2  C   UNL     1     -41.008 -49.737  11.550  1.00  0.00     0.321 C 
HETATM    3  O   UNL     1     -40.800 -49.396  12.705  1.00  0.00    -0.247 OA
HETATM    4  N   UNL     1     -41.096 -51.074  11.242  1.00  0.00    -0.340 N 
HETATM    5  H   UNL     1     -41.409 -49.338   9.566  1.00  0.00     0.172 HD
HETATM    6  H   UNL     1     -40.939 -51.346  10.284  1.00  0.00     0.164 HD
ENDROOT
BRANCH   4   7
HETATM    7  C   UNL     1     -40.923 -52.066  12.303  1.00  0.00     0.157 C 
BRANCH   7   8
HETATM    8  C   UNL     1     -42.119 -53.045  12.468  1.00  0.00     0.164 C 
BRANCH   8   9
HETATM    9  O   UNL     1     -41.615 -54.364  12.704  1.00  0.00    -0.392 OA
HETATM   10  H   UNL     1     -41.780 -54.593  13.633  1.00  0.00     0.210 HD
ENDBRANCH   8   9
BRANCH   8  11
HETATM   11  C   UNL     1     -42.952 -52.529  13.660  1.00  0.00     0.305 C 
BRANCH  11  12
HETATM   12  N   UNL     1     -44.090 -53.282  14.215  1.00  0.00     0.090 N 
HETATM   13  C   UNL     1     -45.091 -53.695  13.217  1.00  0.00     0.272 C 
HETATM   14  C   UNL     1     -45.841 -52.531  12.559  1.00  0.00     0.030 C 
HETATM   15  C   UNL     1     -46.415 -51.546  13.579  1.00  0.00     0.003 C 
HETATM   16  C   UNL     1     -45.420 -51.193  14.679  1.00  0.00     0.030 C 
HETATM   17  C   UNL     1     -44.753 -52.454  15.248  1.00  0.00     0.272 C 
ENDBRANCH  11  12
ENDBRANCH   8  11
ENDBRANCH   7   8
ENDBRANCH   4   7
BRANCH   1  18
HETATM   18  C   UNL     1     -41.285 -47.512  10.559  1.00  0.00     0.114 A 
HETATM   19  C   UNL     1     -42.512 -46.833  10.535  1.00  0.00    -0.018 A 
HETATM   20  C   UNL     1     -43.846 -47.499  10.375  1.00  0.00     0.052 C 
HETATM   21  C   UNL     1     -42.482 -45.435  10.699  1.00  0.00     0.012 A 
HETATM   22  C   UNL     1     -41.277 -44.766  10.863  1.00  0.00     0.018 A 
HETATM   23  C   UNL     1     -40.125 -45.515  10.851  1.00  0.00     0.089 A 
HETATM   24  N   UNL     1     -40.128 -46.849  10.699  1.00  0.00    -0.352 N 
ATOM     25  HN  UNL     1     -39.245 -47.360  10.689  1.00  0.00     0.166 HD
ENDBRANCH   1  18
TORSDOF 6
ENDMDL
MODEL 3
REMARK VINA RESULT:      -6.4      1.316      1.828
REMARK  6 active torsions:
REMARK  status: ('A' for Active; 'I' for Inactive)
REMARK    1  A    between atoms: C_8  and  N_9 
REMARK       I    between atoms: N_9  and  C_10 
REMARK       I    between atoms: C_10  and  N_12 
REMARK    2  A    between atoms: N_12  and  C_13 
REMARK    3  A    between atoms: C_13  and  C_14 
REMARK    4  A    between atoms: C_14  and  O_15 
REMARK    5  A    between atoms: C_14  and  C_16 
REMARK    6  A    between atoms: C_16  and  N_17 
ROOT
HETATM    1  N   UNL     1     -41.061 -49.131  10.551  1.00  0.00    -0.294 N 
HETATM    2  C   UNL     1     -41.355 -49.996  11.588  1.00  0.00     0.321 C 
HETATM    3  O   UNL     1     -42.238 -49.879  12.423  1.00  0.00    -0.247 OA
HETATM    4  N   UNL     1     -40.552 -51.112  11.598  1.00  0.00    -0.340 N 
HETATM    5  H   UNL     1     -40.319 -49.370   9.916  1.00  0.00     0.172 HD
HETATM    6  H   UNL     1     -39.655 -51.050  11.143  1.00  0.00     0.164 HD
ENDROOT
BRANCH   4   7
HETATM    7  C   UNL     1     -40.763 -52.135  12.623  1.00  0.00     0.157 C 
BRANCH   7   8
HETATM    8  C   UNL     1     -41.692 -53.302  12.184  1.00  0.00     0.164 C 
BRANCH   8   9
HETATM    9  O   UNL     1     -40.991 -54.541  12.337  1.00  0.00    -0.392 OA
HETATM   10  H   UNL     1     -41.210 -54.910  13.209  1.00  0.00     0.210 HD
ENDBRANCH   8   9
BRANCH   8  11
HETATM   11  C   UNL     1     -42.942 -53.236  13.087  1.00  0.00     0.305 C 
BRANCH  11  12
HETATM   12  N   UNL     1     -44.268 -53.695  12.637  1.00  0.00     0.090 N 
HETATM   13  C   UNL     1     -45.256 -52.619  12.456  1.00  0.00     0.272 C 
HETATM   14  C   UNL     1     -45.651 -51.904  13.753  1.00  0.00     0.030 C 
HETATM   15  C   UNL     1     -46.052 -52.875  14.865  1.00  0.00     0.003 C 
HETATM   16  C   UNL     1     -45.091 -54.053  14.991  1.00  0.00     0.030 C 
HETATM   17  C   UNL     1     -44.793 -54.672  13.618  1.00  0.00     0.272 C 
ENDBRANCH  11  12
ENDBRANCH   8  11
ENDBRANCH   7   8
ENDBRANCH   4   7
BRANCH   1  18
HETATM   18  C   UNL     1     -41.824 -47.978  10.277  1.00  0.00     0.114 A 
HETATM   19  C   UNL     1     -41.339 -46.693  10.563  1.00  0.00    -0.018 A 
HETATM   20  C   UNL     1     -40.012 -46.411  11.198  1.00  0.00     0.052 C 
HETATM   21  C   UNL     1     -42.149 -45.600  10.200  1.00  0.00     0.012 A 
HETATM   22  C   UNL     1     -43.383 -45.801   9.598  1.00  0.00     0.018 A 
HETATM   23  C   UNL     1     -43.782 -47.096   9.378  1.00  0.00     0.089 A 
HETATM   24  N   UNL     1     -43.028 -48.155   9.712  1.00  0.00    -0.352 N 
ATOM     25  HN  UNL     1     -43.371 -49.099   9.535  1.00  0.00     0.166 HD
ENDBRANCH   1  18
TORSDOF 6
ENDMDL
MODEL 4
REMARK VINA RESULT:      -6.4      2.802      7.571
REMARK  6 active torsions:
REMARK  status: ('A' for Active; 'I' for Inactive)
REMARK    1  A    between atoms: C_8  and  N_9 
REMARK       I    between atoms: N_9  and  C_10 
REMARK       I    between atoms: C_10  and  N_12 
REMARK    2  A    between atoms: N_12  and  C_13 
REMARK    3  A    between atoms: C_13  and  C_14 
REMARK    4  A    between atoms: C_14  and  O_15 
REMARK    5  A    between atoms: C_14  and  C_16 
REMARK    6  A    between atoms: C_16  and  N_17 
ROOT
HETATM    1  N   UNL     1     -40.347 -49.827  10.750  1.00  0.00    -0.294 N 
HETATM    2  C   UNL     1     -41.478 -49.053  10.923  1.00  0.00     0.321 C 
HETATM    3  O   UNL     1     -42.130 -48.911  11.947  1.00  0.00    -0.247 OA
HETATM    4  N   UNL     1     -41.832 -48.358   9.790  1.00  0.00    -0.340 N 
HETATM    5  H   UNL     1     -39.892 -49.826   9.853  1.00  0.00     0.172 HD
HETATM    6  H   UNL     1     -41.515 -48.715   8.902  1.00  0.00     0.164 HD
ENDROOT
BRANCH   4   7
HETATM    7  C   UNL     1     -42.995 -47.472   9.829  1.00  0.00     0.157 C 
BRANCH   7   8
HETATM    8  C   UNL     1     -42.682 -45.986   9.497  1.00  0.00     0.164 C 
BRANCH   8   9
HETATM    9  O   UNL     1     -43.911 -45.286   9.278  1.00  0.00    -0.392 OA
HETATM   10  H   UNL     1     -44.039 -44.656  10.007  1.00  0.00     0.210 HD
ENDBRANCH   8   9
BRANCH   8  11
HETATM   11  C   UNL     1     -41.907 -45.418  10.705  1.00  0.00     0.305 C 
BRANCH  11  12
HETATM   12  N   UNL     1     -40.442 -45.254  10.699  1.00  0.00     0.090 N 
HETATM   13  C   UNL     1     -39.739 -46.025  11.737  1.00  0.00     0.272 C 
HETATM   14  C   UNL     1     -40.048 -45.577  13.170  1.00  0.00     0.030 C 
HETATM   15  C   UNL     1     -39.891 -44.068  13.366  1.00  0.00     0.003 C 
HETATM   16  C   UNL     1     -40.525 -43.261  12.238  1.00  0.00     0.030 C 
HETATM   17  C   UNL     1     -40.123 -43.818  10.865  1.00  0.00     0.272 C 
ENDBRANCH  11  12
ENDBRANCH   8  11
ENDBRANCH   7   8
ENDBRANCH   4   7
BRANCH   1  18
HETATM   18  C   UNL     1     -39.737 -50.537  11.803  1.00  0.00     0.114 A 
HETATM   19  C   UNL     1     -38.351 -50.487  12.015  1.00  0.00    -0.018 A 
HETATM   20  C   UNL     1     -37.391 -49.722  11.157  1.00  0.00     0.052 C 
HETATM   21  C   UNL     1     -37.841 -51.183  13.128  1.00  0.00     0.012 A 
HETATM   22  C   UNL     1     -38.686 -51.899  13.965  1.00  0.00     0.018 A 
HETATM   23  C   UNL     1     -40.026 -51.908  13.663  1.00  0.00     0.089 A 
HETATM   24  N   UNL     1     -40.537 -51.250  12.610  1.00  0.00    -0.352 N 
ATOM     25  HN  UNL     1     -41.539 -51.293  12.424  1.00  0.00     0.166 HD
ENDBRANCH   1  18
TORSDOF 6
ENDMDL
MODEL 5
REMARK VINA RESULT:      -6.3      1.553      2.355
REMARK  6 active torsions:
REMARK  status: ('A' for Active; 'I' for Inactive)
REMARK    1  A    between atoms: C_8  and  N_9 
REMARK       I    between atoms: N_9  and  C_10 
REMARK       I    between atoms: C_10  and  N_12 
REMARK    2  A    between atoms: N_12  and  C_13 
REMARK    3  A    between atoms: C_13  and  C_14 
REMARK    4  A    between atoms: C_14  and  O_15 
REMARK    5  A    between atoms: C_14  and  C_16 
REMARK    6  A    between atoms: C_16  and  N_17 
ROOT
HETATM    1  N   UNL     1     -41.520 -48.513   9.897  1.00  0.00    -0.294 N 
HETATM    2  C   UNL     1     -41.469 -49.283  11.043  1.00  0.00     0.321 C 
HETATM    3  O   UNL     1     -42.243 -49.258  11.988  1.00  0.00    -0.247 OA
HETATM    4  N   UNL     1     -40.433 -50.187  11.036  1.00  0.00    -0.340 N 
HETATM    5  H   UNL     1     -40.830 -48.662   9.182  1.00  0.00     0.172 HD
HETATM    6  H   UNL     1     -39.640 -49.989  10.445  1.00  0.00     0.164 HD
ENDROOT
BRANCH   4   7
HETATM    7  C   UNL     1     -40.267 -51.094  12.172  1.00  0.00     0.157 C 
BRANCH   7   8
HETATM    8  C   UNL     1     -41.179 -52.352  12.129  1.00  0.00     0.164 C 
BRANCH   8   9
HETATM    9  O   UNL     1     -40.581 -53.334  11.277  1.00  0.00    -0.392 OA
HETATM   10  H   UNL     1     -39.718 -53.579  11.651  1.00  0.00     0.210 HD
ENDBRANCH   8   9
BRANCH   8  11
HETATM   11  C   UNL     1     -41.307 -52.855  13.582  1.00  0.00     0.305 C 
BRANCH  11  12
HETATM   12  N   UNL     1     -40.849 -54.192  13.999  1.00  0.00     0.090 N 
HETATM   13  C   UNL     1     -41.583 -54.757  15.144  1.00  0.00     0.272 C 
HETATM   14  C   UNL     1     -41.388 -53.991  16.456  1.00  0.00     0.030 C 
HETATM   15  C   UNL     1     -39.914 -53.740  16.783  1.00  0.00     0.003 C 
HETATM   16  C   UNL     1     -39.120 -53.255  15.574  1.00  0.00     0.030 C 
HETATM   17  C   UNL     1     -39.409 -54.119  14.339  1.00  0.00     0.272 C 
ENDBRANCH  11  12
ENDBRANCH   8  11
ENDBRANCH   7   8
ENDBRANCH   4   7
BRANCH   1  18
HETATM   18  C   UNL     1     -42.560 -47.599   9.635  1.00  0.00     0.114 A 
HETATM   19  C   UNL     1     -42.404 -46.224   9.869  1.00  0.00    -0.018 A 
HETATM   20  C   UNL     1     -41.165 -45.597  10.432  1.00  0.00     0.052 C 
HETATM   21  C   UNL     1     -43.478 -45.383   9.522  1.00  0.00     0.012 A 
HETATM   22  C   UNL     1     -44.646 -45.907   8.985  1.00  0.00     0.018 A 
HETATM   23  C   UNL     1     -44.713 -47.268   8.814  1.00  0.00     0.089 A 
HETATM   24  N   UNL     1     -43.703 -48.092   9.133  1.00  0.00    -0.352 N 
ATOM     25  HN  UNL     1     -43.804 -49.097   8.994  1.00  0.00     0.166 HD
ENDBRANCH   1  18
TORSDOF 6
ENDMDL
MODEL 6
REMARK VINA RESULT:      -6.3      2.598      4.634
REMARK  6 active torsions:
REMARK  status: ('A' for Active; 'I' for Inactive)
REMARK    1  A    between atoms: C_8  and  N_9 
REMARK       I    between atoms: N_9  and  C_10 
REMARK       I    between atoms: C_10  and  N_12 
REMARK    2  A    between atoms: N_12  and  C_13 
REMARK    3  A    between atoms: C_13  and  C_14 
REMARK    4  A    between atoms: C_14  and  O_15 
REMARK    5  A    between atoms: C_14  and  C_16 
REMARK    6  A    between atoms: C_16  and  N_17 
ROOT
HETATM    1  N   UNL     1     -41.697 -51.302  11.539  1.00  0.00    -0.294 N 
HETATM    2  C   UNL     1     -42.010 -52.396  12.322  1.00  0.00     0.321 C 
HETATM    3  O   UNL     1     -41.346 -52.874  13.229  1.00  0.00    -0.247 OA
HETATM    4  N   UNL     1     -43.240 -52.935  12.023  1.00  0.00    -0.340 N 
HETATM    5  H   UNL     1     -42.357 -51.000  10.843  1.00  0.00     0.172 HD
HETATM    6  H   UNL     1     -43.617 -52.764  11.104  1.00  0.00     0.164 HD
ENDROOT
BRANCH   4   7
HETATM    7  C   UNL     1     -43.723 -54.084  12.790  1.00  0.00     0.157 C 
BRANCH   7   8
HETATM    8  C   UNL     1     -45.071 -53.845  13.525  1.00  0.00     0.164 C 
BRANCH   8   9
HETATM    9  O   UNL     1     -45.869 -55.030  13.436  1.00  0.00    -0.392 OA
HETATM   10  H   UNL     1     -46.497 -55.032  14.178  1.00  0.00     0.210 HD
ENDBRANCH   8   9
BRANCH   8  11
HETATM   11  C   UNL     1     -44.722 -53.497  14.988  1.00  0.00     0.305 C 
BRANCH  11  12
HETATM   12  N   UNL     1     -44.555 -52.109  15.453  1.00  0.00     0.090 N 
HETATM   13  C   UNL     1     -44.938 -51.887  16.857  1.00  0.00     0.272 C 
HETATM   14  C   UNL     1     -46.433 -52.081  17.138  1.00  0.00     0.030 C 
HETATM   15  C   UNL     1     -47.324 -51.305  16.167  1.00  0.00     0.003 C 
HETATM   16  C   UNL     1     -46.870 -51.442  14.717  1.00  0.00     0.030 C 
HETATM   17  C   UNL     1     -45.357 -51.216  14.587  1.00  0.00     0.272 C 
ENDBRANCH  11  12
ENDBRANCH   8  11
ENDBRANCH   7   8
ENDBRANCH   4   7
BRANCH   1  18
HETATM   18  C   UNL     1     -40.540 -50.524  11.740  1.00  0.00     0.114 A 
HETATM   19  C   UNL     1     -40.555 -49.131  11.575  1.00  0.00    -0.018 A 
HETATM   20  C   UNL     1     -41.757 -48.342  11.150  1.00  0.00     0.052 C 
HETATM   21  C   UNL     1     -39.366 -48.432  11.855  1.00  0.00     0.012 A 
HETATM   22  C   UNL     1     -38.225 -49.109  12.263  1.00  0.00     0.018 A 
HETATM   23  C   UNL     1     -38.300 -50.476  12.375  1.00  0.00     0.089 A 
HETATM   24  N   UNL     1     -39.423 -51.165  12.117  1.00  0.00    -0.352 N 
ATOM     25  HN  UNL     1     -39.427 -52.181  12.208  1.00  0.00     0.166 HD
ENDBRANCH   1  18
TORSDOF 6
ENDMDL
MODEL 7
REMARK VINA RESULT:      -6.3      3.510      6.861
REMARK  6 active torsions:
REMARK  status: ('A' for Active; 'I' for Inactive)
REMARK    1  A    between atoms: C_8  and  N_9 
REMARK       I    between atoms: N_9  and  C_10 
REMARK       I    between atoms: C_10  and  N_12 
REMARK    2  A    between atoms: N_12  and  C_13 
REMARK    3  A    between atoms: C_13  and  C_14 
REMARK    4  A    between atoms: C_14  and  O_15 
REMARK    5  A    between atoms: C_14  and  C_16 
REMARK    6  A    between atoms: C_16  and  N_17 
ROOT
HETATM    1  N   UNL     1     -42.437 -52.544  11.769  1.00  0.00    -0.294 N 
HETATM    2  C   UNL     1     -41.760 -51.379  12.075  1.00  0.00     0.321 C 
HETATM    3  O   UNL     1     -42.032 -50.572  12.951  1.00  0.00    -0.247 OA
HETATM    4  N   UNL     1     -40.643 -51.188  11.297  1.00  0.00    -0.340 N 
HETATM    5  H   UNL     1     -42.081 -53.133  11.036  1.00  0.00     0.172 HD
HETATM    6  H   UNL     1     -40.609 -51.649  10.401  1.00  0.00     0.164 HD
ENDROOT
BRANCH   4   7
HETATM    7  C   UNL     1     -39.806 -50.009  11.524  1.00  0.00     0.157 C 
BRANCH   7   8
HETATM    8  C   UNL     1     -38.279 -50.301  11.553  1.00  0.00     0.164 C 
BRANCH   8   9
HETATM    9  O   UNL     1     -37.700 -49.881  10.313  1.00  0.00    -0.392 OA
HETATM   10  H   UNL     1     -38.252 -49.173   9.941  1.00  0.00     0.210 HD
ENDBRANCH   8   9
BRANCH   8  11
HETATM   11  C   UNL     1     -37.702 -49.516  12.750  1.00  0.00     0.305 C 
BRANCH  11  12
HETATM   12  N   UNL     1     -38.509 -49.174  13.935  1.00  0.00     0.090 N 
HETATM   13  C   UNL     1     -38.304 -47.805  14.435  1.00  0.00     0.272 C 
HETATM   14  C   UNL     1     -36.899 -47.541  14.988  1.00  0.00     0.030 C 
HETATM   15  C   UNL     1     -36.453 -48.598  16.000  1.00  0.00     0.003 C 
HETATM   16  C   UNL     1     -36.758 -50.019  15.537  1.00  0.00     0.030 C 
HETATM   17  C   UNL     1     -38.198 -50.135  15.017  1.00  0.00     0.272 C 
ENDBRANCH  11  12
ENDBRANCH   8  11
ENDBRANCH   7   8
ENDBRANCH   4   7
BRANCH   1  18
HETATM   18  C   UNL     1     -43.547 -53.001  12.508  1.00  0.00     0.114 A 
HETATM   19  C   UNL     1     -43.399 -53.908  13.567  1.00  0.00    -0.018 A 
HETATM   20  C   UNL     1     -42.091 -54.499  13.999  1.00  0.00     0.052 C 
HETATM   21  C   UNL     1     -44.558 -54.262  14.284  1.00  0.00     0.012 A 
HETATM   22  C   UNL     1     -45.795 -53.737  13.936  1.00  0.00     0.018 A 
HETATM   23  C   UNL     1     -45.843 -52.872  12.870  1.00  0.00     0.089 A 
HETATM   24  N   UNL     1     -44.753 -52.517  12.172  1.00  0.00    -0.352 N 
ATOM     25  HN  UNL     1     -44.841 -51.877  11.383  1.00  0.00     0.166 HD
ENDBRANCH   1  18
TORSDOF 6
ENDMDL
MODEL 8
REMARK VINA RESULT:      -6.3      2.631      6.638
REMARK  6 active torsions:
REMARK  status: ('A' for Active; 'I' for Inactive)
REMARK    1  A    between atoms: C_8  and  N_9 
REMARK       I    between atoms: N_9  and  C_10 
REMARK       I    between atoms: C_10  and  N_12 
REMARK    2  A    between atoms: N_12  and  C_13 
REMARK    3  A    between atoms: C_13  and  C_14 
REMARK    4  A    between atoms: C_14  and  O_15 
REMARK    5  A    between atoms: C_14  and  C_16 
REMARK    6  A    between atoms: C_16  and  N_17 
ROOT
HETATM    1  N   UNL     1     -43.950 -50.726  12.893  1.00  0.00    -0.294 N 
HETATM    2  C   UNL     1     -42.601 -50.994  13.028  1.00  0.00     0.321 C 
HETATM    3  O   UNL     1     -42.016 -51.365  14.034  1.00  0.00    -0.247 OA
HETATM    4  N   UNL     1     -41.904 -50.846  11.852  1.00  0.00    -0.340 N 
HETATM    5  H   UNL     1     -44.302 -50.455  11.991  1.00  0.00     0.172 HD
HETATM    6  H   UNL     1     -42.300 -50.248  11.143  1.00  0.00     0.164 HD
ENDROOT
BRANCH   4   7
HETATM    7  C   UNL     1     -40.468 -51.124  11.831  1.00  0.00     0.157 C 
BRANCH   7   8
HETATM    8  C   UNL     1     -39.570 -49.856  11.756  1.00  0.00     0.164 C 
BRANCH   8   9
HETATM    9  O   UNL     1     -38.575 -50.048  10.745  1.00  0.00    -0.392 OA
HETATM   10  H   UNL     1     -38.899 -49.652   9.918  1.00  0.00     0.210 HD
ENDBRANCH   8   9
BRANCH   8  11
HETATM   11  C   UNL     1     -40.504 -48.673  11.425  1.00  0.00     0.305 C 
BRANCH  11  12
HETATM   12  N   UNL     1     -40.770 -47.584  12.382  1.00  0.00     0.090 N 
HETATM   13  C   UNL     1     -42.189 -47.207  12.495  1.00  0.00     0.272 C 
HETATM   14  C   UNL     1     -42.779 -46.590  11.222  1.00  0.00     0.030 C 
HETATM   15  C   UNL     1     -41.922 -45.451  10.664  1.00  0.00     0.003 C 
HETATM   16  C   UNL     1     -40.435 -45.792  10.642  1.00  0.00     0.030 C 
HETATM   17  C   UNL     1     -39.986 -46.394  11.981  1.00  0.00     0.272 C 
ENDBRANCH  11  12
ENDBRANCH   8  11
ENDBRANCH   7   8
ENDBRANCH   4   7
BRANCH   1  18
HETATM   18  C   UNL     1     -44.876 -50.917  13.938  1.00  0.00     0.114 A 
HETATM   19  C   UNL     1     -46.157 -51.433  13.696  1.00  0.00    -0.018 A 
HETATM   20  C   UNL     1     -46.680 -51.799  12.340  1.00  0.00     0.052 C 
HETATM   21  C   UNL     1     -46.992 -51.644  14.810  1.00  0.00     0.012 A 
HETATM   22  C   UNL     1     -46.556 -51.334  16.091  1.00  0.00     0.018 A 
HETATM   23  C   UNL     1     -45.292 -50.812  16.226  1.00  0.00     0.089 A 
HETATM   24  N   UNL     1     -44.477 -50.605  15.181  1.00  0.00    -0.352 N 
ATOM     25  HN  UNL     1     -43.549 -50.209  15.331  1.00  0.00     0.166 HD
ENDBRANCH   1  18
TORSDOF 6
ENDMDL
MODEL 9
REMARK VINA RESULT:      -6.2      2.585      7.703
REMARK  6 active torsions:
REMARK  status: ('A' for Active; 'I' for Inactive)
REMARK    1  A    between atoms: C_8  and  N_9 
REMARK       I    between atoms: N_9  and  C_10 
REMARK       I    between atoms: C_10  and  N_12 
REMARK    2  A    between atoms: N_12  and  C_13 
REMARK    3  A    between atoms: C_13  and  C_14 
REMARK    4  A    between atoms: C_14  and  O_15 
REMARK    5  A    between atoms: C_14  and  C_16 
REMARK    6  A    between atoms: C_16  and  N_17 
ROOT
HETATM    1  N   UNL     1     -41.651 -52.907  12.108  1.00  0.00    -0.294 N 
HETATM    2  C   UNL     1     -41.728 -51.531  12.004  1.00  0.00     0.321 C 
HETATM    3  O   UNL     1     -42.565 -50.795  12.504  1.00  0.00    -0.247 OA
HETATM    4  N   UNL     1     -40.693 -50.990  11.278  1.00  0.00    -0.340 N 
HETATM    5  H   UNL     1     -40.884 -53.384  11.666  1.00  0.00     0.172 HD
HETATM    6  H   UNL     1     -40.219 -51.587  10.618  1.00  0.00     0.164 HD
ENDROOT
BRANCH   4   7
HETATM    7  C   UNL     1     -40.623 -49.538  11.104  1.00  0.00     0.157 C 
BRANCH   7   8
HETATM    8  C   UNL     1     -39.417 -48.864  11.816  1.00  0.00     0.164 C 
BRANCH   8   9
HETATM    9  O   UNL     1     -38.203 -49.307  11.200  1.00  0.00    -0.392 OA
HETATM   10  H   UNL     1     -38.432 -49.876  10.447  1.00  0.00     0.210 HD
ENDBRANCH   8   9
BRANCH   8  11
HETATM   11  C   UNL     1     -39.612 -47.340  11.667  1.00  0.00     0.305 C 
BRANCH  11  12
HETATM   12  N   UNL     1     -40.606 -46.589  12.454  1.00  0.00     0.090 N 
HETATM   13  C   UNL     1     -41.080 -45.351  11.814  1.00  0.00     0.272 C 
HETATM   14  C   UNL     1     -40.001 -44.273  11.654  1.00  0.00     0.030 C 
HETATM   15  C   UNL     1     -39.244 -43.997  12.954  1.00  0.00     0.003 C 
HETATM   16  C   UNL     1     -38.840 -45.276  13.681  1.00  0.00     0.030 C 
HETATM   17  C   UNL     1     -40.018 -46.256  13.771  1.00  0.00     0.272 C 
ENDBRANCH  11  12
ENDBRANCH   8  11
ENDBRANCH   7   8
ENDBRANCH   4   7
BRANCH   1  18
HETATM   18  C   UNL     1     -42.539 -53.665  12.896  1.00  0.00     0.114 A 
HETATM   19  C   UNL     1     -42.117 -54.297  14.075  1.00  0.00    -0.018 A 
HETATM   20  C   UNL     1     -40.712 -54.264  14.597  1.00  0.00     0.052 C 
HETATM   21  C   UNL     1     -43.090 -54.984  14.826  1.00  0.00     0.012 A 
HETATM   22  C   UNL     1     -44.409 -55.038  14.398  1.00  0.00     0.018 A 
HETATM   23  C   UNL     1     -44.723 -54.406  13.219  1.00  0.00     0.089 A 
HETATM   24  N   UNL     1     -43.815 -53.743  12.486  1.00  0.00    -0.352 N 
ATOM     25  HN  UNL     1     -44.095 -53.296  11.614  1.00  0.00     0.166 HD
ENDBRANCH   1  18
TORSDOF 6
ENDMDL
