MODEL 1
REMARK VINA RESULT:      -5.3      0.000      0.000
REMARK  3 active torsions:
REMARK  status: ('A' for Active; 'I' for Inactive)
REMARK    1  A    between atoms: O_2  and  C_3 
REMARK    2  A    between atoms: C_7  and  N_8 
REMARK       I    between atoms: N_8  and  C_9 
REMARK       I    between atoms: C_9  and  N_11 
REMARK    3  A    between atoms: N_11  and  C_12 
ROOT
HETATM    1  N   UNL     1     -40.773 -47.029  10.773  1.00  0.00    -0.336 N 
HETATM    2  C   UNL     1     -41.463 -48.142  10.406  1.00  0.00     0.323 C 
HETATM    3  O   UNL     1     -42.569 -48.107   9.870  1.00  0.00    -0.247 OA
HETATM    4  N   UNL     1     -40.902 -49.346  10.707  1.00  0.00    -0.274 N 
HETATM    5  H   UNL     1     -39.787 -47.164  10.989  1.00  0.00     0.164 HD
HETATM    6  H   UNL     1     -41.456 -50.165  10.539  1.00  0.00     0.174 HD
ENDROOT
BRANCH   1   7
HETATM    7  C   UNL     1     -41.212 -45.671  10.504  1.00  0.00     0.115 C 
HETATM    8  C   UNL     1     -40.027 -44.703  10.310  1.00  0.00     0.143 C 
HETATM    9  C   UNL     1     -39.634 -44.284  11.731  1.00  0.00     0.034 C 
HETATM   10  C   UNL     1     -40.856 -44.519  12.614  1.00  0.00     0.005 C 
HETATM   11  C   UNL     1     -41.944 -45.092  11.711  1.00  0.00     0.028 C 
BRANCH   8  12
HETATM   12  O   UNL     1     -38.887 -45.276   9.672  1.00  0.00    -0.389 OA
HETATM   13  C   UNL     1     -38.411 -44.516   8.570  1.00  0.00     0.202 C 
ENDBRANCH   8  12
ENDBRANCH   1   7
BRANCH   4  14
HETATM   14  C   UNL     1     -39.677 -49.503  11.274  1.00  0.00     0.231 A 
HETATM   15  N   UNL     1     -38.567 -49.971  10.739  1.00  0.00    -0.330 N 
HETATM   16  C   UNL     1     -37.649 -49.874  11.747  1.00  0.00     0.116 A 
ATOM     17  HN  UNL     1     -38.426 -50.323   9.792  1.00  0.00     0.168 HD
HETATM   18  C   UNL     1     -38.236 -49.322  12.856  1.00  0.00     0.162 A 
HETATM   19  O   UNL     1     -39.553 -49.108  12.576  1.00  0.00    -0.290 OA
ENDBRANCH   4  14
TORSDOF 3
ENDMDL
MODEL 2
REMARK VINA RESULT:      -5.2      6.470      8.322
REMARK  3 active torsions:
REMARK  status: ('A' for Active; 'I' for Inactive)
REMARK    1  A    between atoms: O_2  and  C_3 
REMARK    2  A    between atoms: C_7  and  N_8 
REMARK       I    between atoms: N_8  and  C_9 
REMARK       I    between atoms: C_9  and  N_11 
REMARK    3  A    between atoms: N_11  and  C_12 
ROOT
HETATM    1  N   UNL     1     -44.285 -53.685  14.196  1.00  0.00    -0.336 N 
HETATM    2  C   UNL     1     -43.402 -54.677  14.487  1.00  0.00     0.323 C 
HETATM    3  O   UNL     1     -43.688 -55.662  15.166  1.00  0.00    -0.247 OA
HETATM    4  N   UNL     1     -42.126 -54.521  14.037  1.00  0.00    -0.274 N 
HETATM    5  H   UNL     1     -44.016 -53.049  13.448  1.00  0.00     0.164 HD
HETATM    6  H   UNL     1     -41.447 -55.193  14.344  1.00  0.00     0.174 HD
ENDROOT
BRANCH   1   7
HETATM    7  C   UNL     1     -45.688 -53.705  14.573  1.00  0.00     0.115 C 
HETATM    8  C   UNL     1     -46.554 -52.827  13.647  1.00  0.00     0.143 C 
HETATM    9  C   UNL     1     -46.428 -51.413  14.225  1.00  0.00     0.034 C 
HETATM   10  C   UNL     1     -46.018 -51.569  15.686  1.00  0.00     0.005 C 
HETATM   11  C   UNL     1     -45.886 -53.067  15.945  1.00  0.00     0.028 C 
BRANCH   8  12
HETATM   12  O   UNL     1     -46.131 -52.801  12.284  1.00  0.00    -0.389 OA
HETATM   13  C   UNL     1     -46.897 -51.925  11.469  1.00  0.00     0.202 C 
ENDBRANCH   8  12
ENDBRANCH   1   7
BRANCH   4  14
HETATM   14  C   UNL     1     -41.705 -53.489  13.261  1.00  0.00     0.231 A 
HETATM   15  N   UNL     1     -41.119 -53.522  12.081  1.00  0.00    -0.330 N 
HETATM   16  C   UNL     1     -40.950 -52.204  11.759  1.00  0.00     0.116 A 
ATOM     17  HN  UNL     1     -40.853 -54.341  11.534  1.00  0.00     0.168 HD
HETATM   18  C   UNL     1     -41.469 -51.416  12.754  1.00  0.00     0.162 A 
HETATM   19  O   UNL     1     -41.931 -52.232  13.744  1.00  0.00    -0.290 OA
ENDBRANCH   4  14
TORSDOF 3
ENDMDL
MODEL 3
REMARK VINA RESULT:      -5.1      2.300      2.989
REMARK  3 active torsions:
REMARK  status: ('A' for Active; 'I' for Inactive)
REMARK    1  A    between atoms: O_2  and  C_3 
REMARK    2  A    between atoms: C_7  and  N_8 
REMARK       I    between atoms: N_8  and  C_9 
REMARK       I    between atoms: C_9  and  N_11 
REMARK    3  A    between atoms: N_11  and  C_12 
ROOT
HETATM    1  N   UNL     1     -42.621 -45.127  10.933  1.00  0.00    -0.336 N 
HETATM    2  C   UNL     1     -43.268 -45.518   9.802  1.00  0.00     0.323 C 
HETATM    3  O   UNL     1     -43.861 -44.740   9.057  1.00  0.00    -0.247 OA
HETATM    4  N   UNL     1     -43.293 -46.853   9.534  1.00  0.00    -0.274 N 
HETATM    5  H   UNL     1     -41.980 -45.804  11.340  1.00  0.00     0.164 HD
HETATM    6  H   UNL     1     -43.862 -47.155   8.765  1.00  0.00     0.174 HD
ENDROOT
BRANCH   1   7
HETATM    7  C   UNL     1     -42.475 -43.744  11.352  1.00  0.00     0.115 C 
HETATM    8  C   UNL     1     -41.030 -43.233  11.185  1.00  0.00     0.143 C 
HETATM    9  C   UNL     1     -40.310 -43.685  12.460  1.00  0.00     0.034 C 
HETATM   10  C   UNL     1     -41.386 -43.907  13.519  1.00  0.00     0.005 C 
HETATM   11  C   UNL     1     -42.724 -43.606  12.852  1.00  0.00     0.028 C 
BRANCH   8  12
HETATM   12  O   UNL     1     -40.336 -43.764  10.057  1.00  0.00    -0.389 OA
HETATM   13  C   UNL     1     -39.469 -44.842  10.380  1.00  0.00     0.202 C 
ENDBRANCH   8  12
ENDBRANCH   1   7
BRANCH   4  14
HETATM   14  C   UNL     1     -42.654 -47.797  10.272  1.00  0.00     0.231 A 
HETATM   15  N   UNL     1     -41.531 -48.437  10.012  1.00  0.00    -0.330 N 
HETATM   16  C   UNL     1     -41.349 -49.240  11.103  1.00  0.00     0.116 A 
ATOM     17  HN  UNL     1     -40.937 -48.353   9.187  1.00  0.00     0.168 HD
HETATM   18  C   UNL     1     -42.362 -49.035  12.003  1.00  0.00     0.162 A 
HETATM   19  O   UNL     1     -43.229 -48.130  11.466  1.00  0.00    -0.290 OA
ENDBRANCH   4  14
TORSDOF 3
ENDMDL
MODEL 4
REMARK VINA RESULT:      -5.0      6.325      8.632
REMARK  3 active torsions:
REMARK  status: ('A' for Active; 'I' for Inactive)
REMARK    1  A    between atoms: O_2  and  C_3 
REMARK    2  A    between atoms: C_7  and  N_8 
REMARK       I    between atoms: N_8  and  C_9 
REMARK       I    between atoms: C_9  and  N_11 
REMARK    3  A    between atoms: N_11  and  C_12 
ROOT
HETATM    1  N   UNL     1     -43.249 -54.023  14.049  1.00  0.00    -0.336 N 
HETATM    2  C   UNL     1     -43.946 -53.904  12.887  1.00  0.00     0.323 C 
HETATM    3  O   UNL     1     -44.977 -54.530  12.648  1.00  0.00    -0.247 OA
HETATM    4  N   UNL     1     -43.423 -53.084  11.933  1.00  0.00    -0.274 N 
HETATM    5  H   UNL     1     -42.556 -53.301  14.232  1.00  0.00     0.164 HD
HETATM    6  H   UNL     1     -43.873 -53.080  11.036  1.00  0.00     0.174 HD
ENDROOT
BRANCH   1   7
HETATM    7  C   UNL     1     -43.677 -54.830  15.178  1.00  0.00     0.115 C 
HETATM    8  C   UNL     1     -44.223 -53.971  16.336  1.00  0.00     0.143 C 
HETATM    9  C   UNL     1     -42.979 -53.547  17.123  1.00  0.00     0.034 C 
HETATM   10  C   UNL     1     -41.885 -54.559  16.796  1.00  0.00     0.005 C 
HETATM   11  C   UNL     1     -42.488 -55.551  15.807  1.00  0.00     0.028 C 
BRANCH   8  12
HETATM   12  O   UNL     1     -44.926 -52.798  15.928  1.00  0.00    -0.389 OA
HETATM   13  C   UNL     1     -46.321 -53.003  15.755  1.00  0.00     0.202 C 
ENDBRANCH   8  12
ENDBRANCH   1   7
BRANCH   4  14
HETATM   14  C   UNL     1     -42.307 -52.328  12.097  1.00  0.00     0.231 A 
HETATM   15  N   UNL     1     -41.197 -52.318  11.386  1.00  0.00    -0.330 N 
HETATM   16  C   UNL     1     -40.434 -51.351  11.977  1.00  0.00     0.116 A 
ATOM     17  HN  UNL     1     -40.962 -52.899  10.580  1.00  0.00     0.168 HD
HETATM   18  C   UNL     1     -41.127 -50.787  13.017  1.00  0.00     0.162 A 
HETATM   19  O   UNL     1     -42.325 -51.430  13.126  1.00  0.00    -0.290 OA
ENDBRANCH   4  14
TORSDOF 3
ENDMDL
MODEL 5
REMARK VINA RESULT:      -4.9      2.907      4.215
REMARK  3 active torsions:
REMARK  status: ('A' for Active; 'I' for Inactive)
REMARK    1  A    between atoms: O_2  and  C_3 
REMARK    2  A    between atoms: C_7  and  N_8 
REMARK       I    between atoms: N_8  and  C_9 
REMARK       I    between atoms: C_9  and  N_11 
REMARK    3  A    between atoms: N_11  and  C_12 
ROOT
HETATM    1  N   UNL     1     -41.409 -49.468  11.209  1.00  0.00    -0.336 N 
HETATM    2  C   UNL     1     -40.307 -50.233  11.433  1.00  0.00     0.323 C 
HETATM    3  O   UNL     1     -39.163 -49.867  11.168  1.00  0.00    -0.247 OA
HETATM    4  N   UNL     1     -40.513 -51.486  11.924  1.00  0.00    -0.274 N 
HETATM    5  H   UNL     1     -42.265 -49.767  11.672  1.00  0.00     0.164 HD
HETATM    6  H   UNL     1     -39.716 -52.091  11.985  1.00  0.00     0.174 HD
ENDROOT
BRANCH   1   7
HETATM    7  C   UNL     1     -41.367 -48.102  10.716  1.00  0.00     0.115 C 
HETATM    8  C   UNL     1     -41.546 -47.068  11.846  1.00  0.00     0.143 C 
HETATM    9  C   UNL     1     -43.064 -46.947  12.024  1.00  0.00     0.034 C 
HETATM   10  C   UNL     1     -43.699 -47.415  10.718  1.00  0.00     0.005 C 
HETATM   11  C   UNL     1     -42.554 -47.824   9.797  1.00  0.00     0.028 C 
BRANCH   8  12
HETATM   12  O   UNL     1     -40.969 -47.445  13.096  1.00  0.00    -0.389 OA
HETATM   13  C   UNL     1     -39.642 -46.970  13.275  1.00  0.00     0.202 C 
ENDBRANCH   8  12
ENDBRANCH   1   7
BRANCH   4  14
HETATM   14  C   UNL     1     -41.728 -51.984  12.274  1.00  0.00     0.231 A 
HETATM   15  N   UNL     1     -42.499 -52.830  11.620  1.00  0.00    -0.330 N 
HETATM   16  C   UNL     1     -43.575 -53.001  12.445  1.00  0.00     0.116 A 
ATOM     17  HN  UNL     1     -42.332 -53.257  10.709  1.00  0.00     0.168 HD
HETATM   18  C   UNL     1     -43.401 -52.267  13.590  1.00  0.00     0.162 A 
HETATM   19  O   UNL     1     -42.228 -51.581  13.479  1.00  0.00    -0.290 OA
ENDBRANCH   4  14
TORSDOF 3
ENDMDL
MODEL 6
REMARK VINA RESULT:      -4.9      2.405      4.520
REMARK  3 active torsions:
REMARK  status: ('A' for Active; 'I' for Inactive)
REMARK    1  A    between atoms: O_2  and  C_3 
REMARK    2  A    between atoms: C_7  and  N_8 
REMARK       I    between atoms: N_8  and  C_9 
REMARK       I    between atoms: C_9  and  N_11 
REMARK    3  A    between atoms: N_11  and  C_12 
ROOT
HETATM    1  N   UNL     1     -41.310 -45.888  11.212  1.00  0.00    -0.336 N 
HETATM    2  C   UNL     1     -40.711 -47.099  11.049  1.00  0.00     0.323 C 
HETATM    3  O   UNL     1     -39.621 -47.387  11.538  1.00  0.00    -0.247 OA
HETATM    4  N   UNL     1     -41.348 -48.001  10.253  1.00  0.00    -0.274 N 
HETATM    5  H   UNL     1     -42.296 -45.838  10.965  1.00  0.00     0.164 HD
HETATM    6  H   UNL     1     -40.859 -48.851  10.040  1.00  0.00     0.174 HD
ENDROOT
BRANCH   1   7
HETATM    7  C   UNL     1     -40.783 -44.824  12.048  1.00  0.00     0.115 C 
HETATM    8  C   UNL     1     -41.804 -44.350  13.102  1.00  0.00     0.143 C 
HETATM    9  C   UNL     1     -42.674 -43.326  12.364  1.00  0.00     0.034 C 
HETATM   10  C   UNL     1     -41.855 -42.822  11.181  1.00  0.00     0.005 C 
HETATM   11  C   UNL     1     -40.524 -43.567  11.221  1.00  0.00     0.028 C 
BRANCH   8  12
HETATM   12  O   UNL     1     -42.647 -45.378  13.619  1.00  0.00    -0.389 OA
HETATM   13  C   UNL     1     -43.221 -45.061  14.879  1.00  0.00     0.202 C 
ENDBRANCH   8  12
ENDBRANCH   1   7
BRANCH   4  14
HETATM   14  C   UNL     1     -42.565 -47.800   9.682  1.00  0.00     0.231 A 
HETATM   15  N   UNL     1     -42.912 -47.880   8.413  1.00  0.00    -0.330 N 
HETATM   16  C   UNL     1     -44.251 -47.611   8.419  1.00  0.00     0.116 A 
ATOM     17  HN  UNL     1     -42.317 -48.094   7.612  1.00  0.00     0.168 HD
HETATM   18  C   UNL     1     -44.675 -47.403   9.706  1.00  0.00     0.162 A 
HETATM   19  O   UNL     1     -43.591 -47.490  10.529  1.00  0.00    -0.290 OA
ENDBRANCH   4  14
TORSDOF 3
ENDMDL
MODEL 7
REMARK VINA RESULT:      -4.8      5.033      7.688
REMARK  3 active torsions:
REMARK  status: ('A' for Active; 'I' for Inactive)
REMARK    1  A    between atoms: O_2  and  C_3 
REMARK    2  A    between atoms: C_7  and  N_8 
REMARK       I    between atoms: N_8  and  C_9 
REMARK       I    between atoms: C_9  and  N_11 
REMARK    3  A    between atoms: N_11  and  C_12 
ROOT
HETATM    1  N   UNL     1     -42.551 -52.668  12.813  1.00  0.00    -0.336 N 
HETATM    2  C   UNL     1     -41.324 -52.463  12.264  1.00  0.00     0.323 C 
HETATM    3  O   UNL     1     -40.521 -53.367  12.041  1.00  0.00    -0.247 OA
HETATM    4  N   UNL     1     -40.969 -51.173  12.007  1.00  0.00    -0.274 N 
HETATM    5  H   UNL     1     -43.211 -51.896  12.738  1.00  0.00     0.164 HD
HETATM    6  H   UNL     1     -40.026 -51.009  11.707  1.00  0.00     0.174 HD
ENDROOT
BRANCH   1   7
HETATM    7  C   UNL     1     -43.098 -53.977  13.123  1.00  0.00     0.115 C 
HETATM    8  C   UNL     1     -44.640 -53.985  13.106  1.00  0.00     0.143 C 
HETATM    9  C   UNL     1     -45.044 -53.497  14.501  1.00  0.00     0.034 C 
HETATM   10  C   UNL     1     -43.856 -53.759  15.422  1.00  0.00     0.005 C 
HETATM   11  C   UNL     1     -42.761 -54.376  14.557  1.00  0.00     0.028 C 
BRANCH   8  12
HETATM   12  O   UNL     1     -45.230 -53.124  12.133  1.00  0.00    -0.389 OA
HETATM   13  C   UNL     1     -46.237 -52.274  12.663  1.00  0.00     0.202 C 
ENDBRANCH   8  12
ENDBRANCH   1   7
BRANCH   4  14
HETATM   14  C   UNL     1     -41.782 -50.101  12.190  1.00  0.00     0.231 A 
HETATM   15  N   UNL     1     -42.285 -49.276  11.294  1.00  0.00    -0.330 N 
HETATM   16  C   UNL     1     -43.048 -48.413  12.030  1.00  0.00     0.116 A 
ATOM     17  HN  UNL     1     -42.139 -49.280  10.284  1.00  0.00     0.168 HD
HETATM   18  C   UNL     1     -42.999 -48.767  13.353  1.00  0.00     0.162 A 
HETATM   19  O   UNL     1     -42.160 -49.835  13.476  1.00  0.00    -0.290 OA
ENDBRANCH   4  14
TORSDOF 3
ENDMDL
MODEL 8
REMARK VINA RESULT:      -4.7      3.826      5.059
REMARK  3 active torsions:
REMARK  status: ('A' for Active; 'I' for Inactive)
REMARK    1  A    between atoms: O_2  and  C_3 
REMARK    2  A    between atoms: C_7  and  N_8 
REMARK       I    between atoms: N_8  and  C_9 
REMARK       I    between atoms: C_9  and  N_11 
REMARK    3  A    between atoms: N_11  and  C_12 
ROOT
HETATM    1  N   UNL     1     -40.212 -50.154  12.911  1.00  0.00    -0.336 N 
HETATM    2  C   UNL     1     -40.645 -50.287  11.629  1.00  0.00     0.323 C 
HETATM    3  O   UNL     1     -40.606 -49.378  10.802  1.00  0.00    -0.247 OA
HETATM    4  N   UNL     1     -41.195 -51.484  11.283  1.00  0.00    -0.274 N 
HETATM    5  H   UNL     1     -40.076 -51.018  13.431  1.00  0.00     0.164 HD
HETATM    6  H   UNL     1     -41.615 -51.550  10.374  1.00  0.00     0.174 HD
ENDROOT
BRANCH   1   7
HETATM    7  C   UNL     1     -39.577 -48.958  13.437  1.00  0.00     0.115 C 
HETATM    8  C   UNL     1     -38.038 -49.040  13.375  1.00  0.00     0.143 C 
HETATM    9  C   UNL     1     -37.639 -49.799  14.645  1.00  0.00     0.034 C 
HETATM   10  C   UNL     1     -38.789 -49.640  15.634  1.00  0.00     0.005 C 
HETATM   11  C   UNL     1     -39.859 -48.810  14.930  1.00  0.00     0.028 C 
BRANCH   8  12
HETATM   12  O   UNL     1     -37.524 -49.741  12.243  1.00  0.00    -0.389 OA
HETATM   13  C   UNL     1     -37.080 -51.057  12.544  1.00  0.00     0.202 C 
ENDBRANCH   8  12
ENDBRANCH   1   7
BRANCH   4  14
HETATM   14  C   UNL     1     -41.267 -52.564  12.105  1.00  0.00     0.231 A 
HETATM   15  N   UNL     1     -42.321 -53.270  12.459  1.00  0.00    -0.330 N 
HETATM   16  C   UNL     1     -41.809 -54.246  13.267  1.00  0.00     0.116 A 
ATOM     17  HN  UNL     1     -43.295 -53.123  12.191  1.00  0.00     0.168 HD
HETATM   18  C   UNL     1     -40.448 -54.108  13.352  1.00  0.00     0.162 A 
HETATM   19  O   UNL     1     -40.088 -53.007  12.633  1.00  0.00    -0.290 OA
ENDBRANCH   4  14
TORSDOF 3
ENDMDL
MODEL 9
REMARK VINA RESULT:      -4.5      3.995      6.370
REMARK  3 active torsions:
REMARK  status: ('A' for Active; 'I' for Inactive)
REMARK    1  A    between atoms: O_2  and  C_3 
REMARK    2  A    between atoms: C_7  and  N_8 
REMARK       I    between atoms: N_8  and  C_9 
REMARK       I    between atoms: C_9  and  N_11 
REMARK    3  A    between atoms: N_11  and  C_12 
ROOT
HETATM    1  N   UNL     1     -41.604 -51.110  13.176  1.00  0.00    -0.336 N 
HETATM    2  C   UNL     1     -40.866 -51.673  12.181  1.00  0.00     0.323 C 
HETATM    3  O   UNL     1     -40.525 -52.854  12.175  1.00  0.00    -0.247 OA
HETATM    4  N   UNL     1     -40.450 -50.850  11.179  1.00  0.00    -0.274 N 
HETATM    5  H   UNL     1     -42.020 -50.205  12.969  1.00  0.00     0.164 HD
HETATM    6  H   UNL     1     -39.814 -51.235  10.504  1.00  0.00     0.174 HD
ENDROOT
BRANCH   1   7
HETATM    7  C   UNL     1     -42.151 -51.847  14.302  1.00  0.00     0.115 C 
HETATM    8  C   UNL     1     -43.642 -52.190  14.106  1.00  0.00     0.143 C 
HETATM    9  C   UNL     1     -44.391 -50.937  14.574  1.00  0.00     0.034 C 
HETATM   10  C   UNL     1     -43.449 -50.183  15.507  1.00  0.00     0.005 C 
HETATM   11  C   UNL     1     -42.152 -50.984  15.561  1.00  0.00     0.028 C 
BRANCH   8  12
HETATM   12  O   UNL     1     -44.018 -52.469  12.758  1.00  0.00    -0.389 OA
HETATM   13  C   UNL     1     -45.393 -52.790  12.608  1.00  0.00     0.202 C 
ENDBRANCH   8  12
ENDBRANCH   1   7
BRANCH   4  14
HETATM   14  C   UNL     1     -40.787 -49.538  11.071  1.00  0.00     0.231 A 
HETATM   15  N   UNL     1     -41.550 -48.947  10.174  1.00  0.00    -0.330 N 
HETATM   16  C   UNL     1     -41.565 -47.638  10.565  1.00  0.00     0.116 A 
ATOM     17  HN  UNL     1     -42.020 -49.369   9.373  1.00  0.00     0.168 HD
HETATM   18  C   UNL     1     -40.826 -47.489  11.710  1.00  0.00     0.162 A 
HETATM   19  O   UNL     1     -40.291 -48.701  12.030  1.00  0.00    -0.290 OA
ENDBRANCH   4  14
TORSDOF 3
ENDMDL
