MODEL 1
REMARK VINA RESULT:      -6.2      0.000      0.000
REMARK  7 active torsions:
REMARK  status: ('A' for Active; 'I' for Inactive)
REMARK    1  A    between atoms: C_6  and  O_7 
REMARK    2  A    between atoms: O_7  and  C_8 
REMARK    3  A    between atoms: C_8  and  C_9 
REMARK    4  A    between atoms: C_9  and  N_10 
REMARK    5  A    between atoms: C_11  and  C_12 
REMARK    6  A    between atoms: C_12  and  C_13 
REMARK    7  A    between atoms: C_13  and  O_14 
ROOT
HETATM    1  N   UNL     1     -40.509 -49.416  12.455  1.00  0.00    -0.333 N 
HETATM    2  C   UNL     1     -39.276 -48.881  12.105  1.00  0.00     0.086 A 
HETATM    3  N   UNL     1     -39.421 -47.794  11.377  1.00  0.00    -0.344 N 
ATOM      4  HN  UNL     1     -38.680 -47.193  11.014  1.00  0.00     0.167 HD
HETATM    5  C   UNL     1     -40.768 -47.636  11.205  1.00  0.00     0.060 A 
HETATM    6  C   UNL     1     -41.444 -46.635  10.487  1.00  0.00     0.032 A 
HETATM    7  C   UNL     1     -42.839 -46.654  10.435  1.00  0.00     0.002 A 
HETATM    8  C   UNL     1     -43.548 -47.668  11.069  1.00  0.00     0.002 A 
HETATM    9  C   UNL     1     -42.889 -48.687  11.767  1.00  0.00     0.032 A 
HETATM   10  C   UNL     1     -41.486 -48.647  11.846  1.00  0.00     0.062 A 
ENDROOT
BRANCH   1  11
HETATM   11  C   UNL     1     -40.655 -50.637  13.228  1.00  0.00     0.157 C 
BRANCH  11  12
HETATM   12  C   UNL     1     -40.804 -51.961  12.479  1.00  0.00     0.196 C 
BRANCH  12  13
HETATM   13  O   UNL     1     -42.164 -52.169  12.067  1.00  0.00    -0.350 OA
BRANCH  13  14
HETATM   14  C   UNL     1     -42.851 -53.104  12.799  1.00  0.00     0.069 A 
HETATM   15  C   UNL     1     -44.185 -53.303  12.450  1.00  0.00     0.037 A 
HETATM   16  C   UNL     1     -44.968 -54.215  13.161  1.00  0.00     0.003 A 
HETATM   17  C   UNL     1     -44.426 -54.920  14.239  1.00  0.00     0.007 A 
HETATM   18  C   UNL     1     -43.093 -54.722  14.604  1.00  0.00    -0.059 A 
HETATM   19  C   UNL     1     -42.476 -55.442  15.766  1.00  0.00     0.048 C 
HETATM   20  C   UNL     1     -42.313 -53.815  13.875  1.00  0.00     0.043 A 
ENDBRANCH  13  14
ENDBRANCH  12  13
ENDBRANCH  11  12
ENDBRANCH   1  11
BRANCH   2  21
HETATM   21  C   UNL     1     -37.957 -49.464  12.524  1.00  0.00     0.102 C 
BRANCH  21  22
HETATM   22  C   UNL     1     -37.380 -50.434  11.492  1.00  0.00     0.171 C 
BRANCH  22  23
HETATM   23  O   UNL     1     -37.524 -49.925  10.167  1.00  0.00    -0.400 OA
HETATM   24  H   UNL     1     -36.933 -49.143  10.133  1.00  0.00     0.209 HD
ENDBRANCH  22  23
ENDBRANCH  21  22
ENDBRANCH   2  21
TORSDOF 7
ENDMDL
MODEL 2
REMARK VINA RESULT:      -6.1      2.324      5.702
REMARK  7 active torsions:
REMARK  status: ('A' for Active; 'I' for Inactive)
REMARK    1  A    between atoms: C_6  and  O_7 
REMARK    2  A    between atoms: O_7  and  C_8 
REMARK    3  A    between atoms: C_8  and  C_9 
REMARK    4  A    between atoms: C_9  and  N_10 
REMARK    5  A    between atoms: C_11  and  C_12 
REMARK    6  A    between atoms: C_12  and  C_13 
REMARK    7  A    between atoms: C_13  and  O_14 
ROOT
HETATM    1  N   UNL     1     -42.352 -51.922  12.736  1.00  0.00    -0.333 N 
HETATM    2  C   UNL     1     -42.483 -50.540  12.708  1.00  0.00     0.086 A 
HETATM    3  N   UNL     1     -43.717 -50.175  12.984  1.00  0.00    -0.344 N 
ATOM      4  HN  UNL     1     -44.075 -49.223  13.058  1.00  0.00     0.167 HD
HETATM    5  C   UNL     1     -44.421 -51.335  13.151  1.00  0.00     0.060 A 
HETATM    6  C   UNL     1     -45.786 -51.492  13.443  1.00  0.00     0.032 A 
HETATM    7  C   UNL     1     -46.314 -52.779  13.575  1.00  0.00     0.002 A 
HETATM    8  C   UNL     1     -45.499 -53.890  13.395  1.00  0.00     0.002 A 
HETATM    9  C   UNL     1     -44.142 -53.751  13.079  1.00  0.00     0.032 A 
HETATM   10  C   UNL     1     -43.606 -52.456  12.980  1.00  0.00     0.062 A 
ENDROOT
BRANCH   1  11
HETATM   11  C   UNL     1     -41.108 -52.609  12.435  1.00  0.00     0.157 C 
BRANCH  11  12
HETATM   12  C   UNL     1     -40.212 -53.039  13.597  1.00  0.00     0.196 C 
BRANCH  12  13
HETATM   13  O   UNL     1     -38.838 -52.717  13.334  1.00  0.00    -0.350 OA
BRANCH  13  14
HETATM   14  C   UNL     1     -38.515 -51.393  13.498  1.00  0.00     0.069 A 
HETATM   15  C   UNL     1     -37.936 -50.759  12.401  1.00  0.00     0.037 A 
HETATM   16  C   UNL     1     -37.549 -49.419  12.489  1.00  0.00     0.003 A 
HETATM   17  C   UNL     1     -37.721 -48.713  13.683  1.00  0.00     0.007 A 
HETATM   18  C   UNL     1     -38.291 -49.342  14.791  1.00  0.00    -0.059 A 
HETATM   19  C   UNL     1     -38.475 -48.627  16.097  1.00  0.00     0.048 C 
HETATM   20  C   UNL     1     -38.687 -50.681  14.687  1.00  0.00     0.043 A 
ENDBRANCH  13  14
ENDBRANCH  12  13
ENDBRANCH  11  12
ENDBRANCH   1  11
BRANCH   2  21
HETATM   21  C   UNL     1     -41.353 -49.594  12.418  1.00  0.00     0.102 C 
BRANCH  21  22
HETATM   22  C   UNL     1     -41.351 -49.094  10.973  1.00  0.00     0.171 C 
BRANCH  22  23
HETATM   23  O   UNL     1     -40.492 -49.884  10.154  1.00  0.00    -0.400 OA
HETATM   24  H   UNL     1     -39.603 -49.484  10.263  1.00  0.00     0.209 HD
ENDBRANCH  22  23
ENDBRANCH  21  22
ENDBRANCH   2  21
TORSDOF 7
ENDMDL
MODEL 3
REMARK VINA RESULT:      -6.0      2.577      4.437
REMARK  7 active torsions:
REMARK  status: ('A' for Active; 'I' for Inactive)
REMARK    1  A    between atoms: C_6  and  O_7 
REMARK    2  A    between atoms: O_7  and  C_8 
REMARK    3  A    between atoms: C_8  and  C_9 
REMARK    4  A    between atoms: C_9  and  N_10 
REMARK    5  A    between atoms: C_11  and  C_12 
REMARK    6  A    between atoms: C_12  and  C_13 
REMARK    7  A    between atoms: C_13  and  O_14 
ROOT
HETATM    1  N   UNL     1     -40.749 -48.958  12.836  1.00  0.00    -0.333 N 
HETATM    2  C   UNL     1     -40.945 -48.892  11.462  1.00  0.00     0.086 A 
HETATM    3  N   UNL     1     -39.959 -49.475  10.814  1.00  0.00    -0.344 N 
ATOM      4  HN  UNL     1     -39.871 -49.593   9.805  1.00  0.00     0.167 HD
HETATM    5  C   UNL     1     -39.077 -49.891  11.772  1.00  0.00     0.060 A 
HETATM    6  C   UNL     1     -37.850 -50.553  11.598  1.00  0.00     0.032 A 
HETATM    7  C   UNL     1     -37.092 -50.894  12.721  1.00  0.00     0.002 A 
HETATM    8  C   UNL     1     -37.538 -50.558  13.993  1.00  0.00     0.002 A 
HETATM    9  C   UNL     1     -38.746 -49.876  14.182  1.00  0.00     0.032 A 
HETATM   10  C   UNL     1     -39.523 -49.564  13.054  1.00  0.00     0.062 A 
ENDROOT
BRANCH   1  11
HETATM   11  C   UNL     1     -41.661 -48.365  13.798  1.00  0.00     0.157 C 
BRANCH  11  12
HETATM   12  C   UNL     1     -42.409 -49.290  14.759  1.00  0.00     0.196 C 
BRANCH  12  13
HETATM   13  O   UNL     1     -42.776 -50.517  14.111  1.00  0.00    -0.350 OA
BRANCH  13  14
HETATM   14  C   UNL     1     -44.115 -50.818  14.161  1.00  0.00     0.069 A 
HETATM   15  C   UNL     1     -44.697 -50.829  15.427  1.00  0.00     0.037 A 
HETATM   16  C   UNL     1     -46.048 -51.153  15.575  1.00  0.00     0.003 A 
HETATM   17  C   UNL     1     -46.819 -51.486  14.457  1.00  0.00     0.007 A 
HETATM   18  C   UNL     1     -46.244 -51.486  13.186  1.00  0.00    -0.059 A 
HETATM   19  C   UNL     1     -47.030 -51.857  11.963  1.00  0.00     0.048 C 
HETATM   20  C   UNL     1     -44.892 -51.148  13.048  1.00  0.00     0.043 A 
ENDBRANCH  13  14
ENDBRANCH  12  13
ENDBRANCH  11  12
ENDBRANCH   1  11
BRANCH   2  21
HETATM   21  C   UNL     1     -42.140 -48.254  10.813  1.00  0.00     0.102 C 
BRANCH  21  22
HETATM   22  C   UNL     1     -41.898 -46.794  10.427  1.00  0.00     0.171 C 
BRANCH  22  23
HETATM   23  O   UNL     1     -40.508 -46.534  10.236  1.00  0.00    -0.400 OA
HETATM   24  H   UNL     1     -40.120 -46.570  11.137  1.00  0.00     0.209 HD
ENDBRANCH  22  23
ENDBRANCH  21  22
ENDBRANCH   2  21
TORSDOF 7
ENDMDL
MODEL 4
REMARK VINA RESULT:      -6.0      3.559      5.385
REMARK  7 active torsions:
REMARK  status: ('A' for Active; 'I' for Inactive)
REMARK    1  A    between atoms: C_6  and  O_7 
REMARK    2  A    between atoms: O_7  and  C_8 
REMARK    3  A    between atoms: C_8  and  C_9 
REMARK    4  A    between atoms: C_9  and  N_10 
REMARK    5  A    between atoms: C_11  and  C_12 
REMARK    6  A    between atoms: C_12  and  C_13 
REMARK    7  A    between atoms: C_13  and  O_14 
ROOT
HETATM    1  N   UNL     1     -41.689 -53.965  14.889  1.00  0.00    -0.333 N 
HETATM    2  C   UNL     1     -40.409 -54.374  15.240  1.00  0.00     0.086 A 
HETATM    3  N   UNL     1     -39.497 -53.600  14.689  1.00  0.00    -0.344 N 
ATOM      4  HN  UNL     1     -38.485 -53.661  14.806  1.00  0.00     0.167 HD
HETATM    5  C   UNL     1     -40.184 -52.697  13.927  1.00  0.00     0.060 A 
HETATM    6  C   UNL     1     -39.671 -51.665  13.122  1.00  0.00     0.032 A 
HETATM    7  C   UNL     1     -40.553 -50.845  12.417  1.00  0.00     0.002 A 
HETATM    8  C   UNL     1     -41.924 -51.064  12.493  1.00  0.00     0.002 A 
HETATM    9  C   UNL     1     -42.450 -52.103  13.270  1.00  0.00     0.032 A 
HETATM   10  C   UNL     1     -41.563 -52.906  14.005  1.00  0.00     0.062 A 
ENDROOT
BRANCH   1  11
HETATM   11  C   UNL     1     -42.890 -54.655  15.323  1.00  0.00     0.157 C 
BRANCH  11  12
HETATM   12  C   UNL     1     -43.860 -55.171  14.259  1.00  0.00     0.196 C 
BRANCH  12  13
HETATM   13  O   UNL     1     -45.217 -55.099  14.722  1.00  0.00    -0.350 OA
BRANCH  13  14
HETATM   14  C   UNL     1     -45.814 -53.872  14.570  1.00  0.00     0.069 A 
HETATM   15  C   UNL     1     -45.744 -53.304  13.300  1.00  0.00     0.037 A 
HETATM   16  C   UNL     1     -46.299 -52.045  13.062  1.00  0.00     0.003 A 
HETATM   17  C   UNL     1     -46.910 -51.337  14.101  1.00  0.00     0.007 A 
HETATM   18  C   UNL     1     -46.978 -51.891  15.380  1.00  0.00    -0.059 A 
HETATM   19  C   UNL     1     -47.607 -51.158  16.527  1.00  0.00     0.048 C 
HETATM   20  C   UNL     1     -46.430 -53.161  15.603  1.00  0.00     0.043 A 
ENDBRANCH  13  14
ENDBRANCH  12  13
ENDBRANCH  11  12
ENDBRANCH   1  11
BRANCH   2  21
HETATM   21  C   UNL     1     -40.115 -55.535  16.145  1.00  0.00     0.102 C 
BRANCH  21  22
HETATM   22  C   UNL     1     -38.627 -55.678  16.466  1.00  0.00     0.171 C 
BRANCH  22  23
HETATM   23  O   UNL     1     -37.872 -55.979  15.295  1.00  0.00    -0.400 OA
HETATM   24  H   UNL     1     -38.210 -56.850  14.995  1.00  0.00     0.209 HD
ENDBRANCH  22  23
ENDBRANCH  21  22
ENDBRANCH   2  21
TORSDOF 7
ENDMDL
MODEL 5
REMARK VINA RESULT:      -6.0      1.328      1.943
REMARK  7 active torsions:
REMARK  status: ('A' for Active; 'I' for Inactive)
REMARK    1  A    between atoms: C_6  and  O_7 
REMARK    2  A    between atoms: O_7  and  C_8 
REMARK    3  A    between atoms: C_8  and  C_9 
REMARK    4  A    between atoms: C_9  and  N_10 
REMARK    5  A    between atoms: C_11  and  C_12 
REMARK    6  A    between atoms: C_12  and  C_13 
REMARK    7  A    between atoms: C_13  and  O_14 
ROOT
HETATM    1  N   UNL     1     -40.440 -49.632  11.694  1.00  0.00    -0.333 N 
HETATM    2  C   UNL     1     -39.150 -49.272  12.063  1.00  0.00     0.086 A 
HETATM    3  N   UNL     1     -38.956 -47.979  11.906  1.00  0.00    -0.344 N 
ATOM      4  HN  UNL     1     -38.111 -47.452  12.129  1.00  0.00     0.167 HD
HETATM    5  C   UNL     1     -40.118 -47.488  11.381  1.00  0.00     0.060 A 
HETATM    6  C   UNL     1     -40.419 -46.165  11.013  1.00  0.00     0.032 A 
HETATM    7  C   UNL     1     -41.680 -45.870  10.491  1.00  0.00     0.002 A 
HETATM    8  C   UNL     1     -42.617 -46.881  10.316  1.00  0.00     0.002 A 
HETATM    9  C   UNL     1     -42.325 -48.208  10.653  1.00  0.00     0.032 A 
HETATM   10  C   UNL     1     -41.068 -48.497  11.210  1.00  0.00     0.062 A 
ENDROOT
BRANCH   1  11
HETATM   11  C   UNL     1     -40.923 -51.001  11.730  1.00  0.00     0.157 C 
BRANCH  11  12
HETATM   12  C   UNL     1     -42.131 -51.325  12.610  1.00  0.00     0.196 C 
BRANCH  12  13
HETATM   13  O   UNL     1     -42.788 -52.520  12.161  1.00  0.00    -0.350 OA
BRANCH  13  14
HETATM   14  C   UNL     1     -43.906 -52.866  12.878  1.00  0.00     0.069 A 
HETATM   15  C   UNL     1     -44.194 -54.228  12.952  1.00  0.00     0.037 A 
HETATM   16  C   UNL     1     -45.329 -54.668  13.638  1.00  0.00     0.003 A 
HETATM   17  C   UNL     1     -46.193 -53.747  14.237  1.00  0.00     0.007 A 
HETATM   18  C   UNL     1     -45.919 -52.380  14.161  1.00  0.00    -0.059 A 
HETATM   19  C   UNL     1     -46.829 -51.357  14.772  1.00  0.00     0.048 C 
HETATM   20  C   UNL     1     -44.771 -51.951  13.483  1.00  0.00     0.043 A 
ENDBRANCH  13  14
ENDBRANCH  12  13
ENDBRANCH  11  12
ENDBRANCH   1  11
BRANCH   2  21
HETATM   21  C   UNL     1     -38.126 -50.235  12.590  1.00  0.00     0.102 C 
BRANCH  21  22
HETATM   22  C   UNL     1     -37.107 -50.659  11.532  1.00  0.00     0.171 C 
BRANCH  22  23
HETATM   23  O   UNL     1     -37.410 -50.083  10.263  1.00  0.00    -0.400 OA
HETATM   24  H   UNL     1     -37.930 -49.277  10.471  1.00  0.00     0.209 HD
ENDBRANCH  22  23
ENDBRANCH  21  22
ENDBRANCH   2  21
TORSDOF 7
ENDMDL
MODEL 6
REMARK VINA RESULT:      -5.9      1.563      2.120
REMARK  7 active torsions:
REMARK  status: ('A' for Active; 'I' for Inactive)
REMARK    1  A    between atoms: C_6  and  O_7 
REMARK    2  A    between atoms: O_7  and  C_8 
REMARK    3  A    between atoms: C_8  and  C_9 
REMARK    4  A    between atoms: C_9  and  N_10 
REMARK    5  A    between atoms: C_11  and  C_12 
REMARK    6  A    between atoms: C_12  and  C_13 
REMARK    7  A    between atoms: C_13  and  O_14 
ROOT
HETATM    1  N   UNL     1     -40.484 -49.418  12.419  1.00  0.00    -0.333 N 
HETATM    2  C   UNL     1     -39.244 -48.892  12.080  1.00  0.00     0.086 A 
HETATM    3  N   UNL     1     -39.375 -47.784  11.382  1.00  0.00    -0.344 N 
ATOM      4  HN  UNL     1     -38.626 -47.184  11.034  1.00  0.00     0.167 HD
HETATM    5  C   UNL     1     -40.719 -47.601  11.219  1.00  0.00     0.060 A 
HETATM    6  C   UNL     1     -41.382 -46.572  10.529  1.00  0.00     0.032 A 
HETATM    7  C   UNL     1     -42.778 -46.569  10.481  1.00  0.00     0.002 A 
HETATM    8  C   UNL     1     -43.500 -47.590  11.089  1.00  0.00     0.002 A 
HETATM    9  C   UNL     1     -42.854 -48.637  11.757  1.00  0.00     0.032 A 
HETATM   10  C   UNL     1     -41.451 -48.619  11.834  1.00  0.00     0.062 A 
ENDROOT
BRANCH   1  11
HETATM   11  C   UNL     1     -40.646 -50.657  13.159  1.00  0.00     0.157 C 
BRANCH  11  12
HETATM   12  C   UNL     1     -41.125 -51.899  12.407  1.00  0.00     0.196 C 
BRANCH  12  13
HETATM   13  O   UNL     1     -40.157 -52.955  12.488  1.00  0.00    -0.350 OA
BRANCH  13  14
HETATM   14  C   UNL     1     -40.261 -53.749  13.603  1.00  0.00     0.069 A 
HETATM   15  C   UNL     1     -41.549 -53.969  14.086  1.00  0.00     0.037 A 
HETATM   16  C   UNL     1     -41.746 -54.741  15.234  1.00  0.00     0.003 A 
HETATM   17  C   UNL     1     -40.652 -55.281  15.916  1.00  0.00     0.007 A 
HETATM   18  C   UNL     1     -39.356 -55.059  15.446  1.00  0.00    -0.059 A 
HETATM   19  C   UNL     1     -38.154 -55.603  16.159  1.00  0.00     0.048 C 
HETATM   20  C   UNL     1     -39.172 -54.295  14.287  1.00  0.00     0.043 A 
ENDBRANCH  13  14
ENDBRANCH  12  13
ENDBRANCH  11  12
ENDBRANCH   1  11
BRANCH   2  21
HETATM   21  C   UNL     1     -37.933 -49.505  12.480  1.00  0.00     0.102 C 
BRANCH  21  22
HETATM   22  C   UNL     1     -37.388 -50.479  11.434  1.00  0.00     0.171 C 
BRANCH  22  23
HETATM   23  O   UNL     1     -37.455 -49.920  10.124  1.00  0.00    -0.400 OA
HETATM   24  H   UNL     1     -38.034 -50.531   9.619  1.00  0.00     0.209 HD
ENDBRANCH  22  23
ENDBRANCH  21  22
ENDBRANCH   2  21
TORSDOF 7
ENDMDL
MODEL 7
REMARK VINA RESULT:      -5.9      2.511      6.287
REMARK  7 active torsions:
REMARK  status: ('A' for Active; 'I' for Inactive)
REMARK    1  A    between atoms: C_6  and  O_7 
REMARK    2  A    between atoms: O_7  and  C_8 
REMARK    3  A    between atoms: C_8  and  C_9 
REMARK    4  A    between atoms: C_9  and  N_10 
REMARK    5  A    between atoms: C_11  and  C_12 
REMARK    6  A    between atoms: C_12  and  C_13 
REMARK    7  A    between atoms: C_13  and  O_14 
ROOT
HETATM    1  N   UNL     1     -42.479 -51.790  13.785  1.00  0.00    -0.333 N 
HETATM    2  C   UNL     1     -42.062 -52.780  12.906  1.00  0.00     0.086 A 
HETATM    3  N   UNL     1     -43.087 -53.330  12.291  1.00  0.00    -0.344 N 
ATOM      4  HN  UNL     1     -43.058 -54.058  11.576  1.00  0.00     0.167 HD
HETATM    5  C   UNL     1     -44.200 -52.726  12.806  1.00  0.00     0.060 A 
HETATM    6  C   UNL     1     -45.548 -52.970  12.495  1.00  0.00     0.032 A 
HETATM    7  C   UNL     1     -46.544 -52.236  13.143  1.00  0.00     0.002 A 
HETATM    8  C   UNL     1     -46.202 -51.290  14.102  1.00  0.00     0.002 A 
HETATM    9  C   UNL     1     -44.865 -51.053  14.443  1.00  0.00     0.032 A 
HETATM   10  C   UNL     1     -43.863 -51.769  13.766  1.00  0.00     0.062 A 
ENDROOT
BRANCH   1  11
HETATM   11  C   UNL     1     -41.565 -51.037  14.626  1.00  0.00     0.157 C 
BRANCH  11  12
HETATM   12  C   UNL     1     -41.249 -49.590  14.247  1.00  0.00     0.196 C 
BRANCH  12  13
HETATM   13  O   UNL     1     -40.570 -49.526  12.983  1.00  0.00    -0.350 OA
BRANCH  13  14
HETATM   14  C   UNL     1     -41.004 -48.528  12.146  1.00  0.00     0.069 A 
HETATM   15  C   UNL     1     -42.305 -48.653  11.660  1.00  0.00     0.037 A 
HETATM   16  C   UNL     1     -42.819 -47.698  10.779  1.00  0.00     0.003 A 
HETATM   17  C   UNL     1     -42.027 -46.624  10.364  1.00  0.00     0.007 A 
HETATM   18  C   UNL     1     -40.721 -46.494  10.837  1.00  0.00    -0.059 A 
HETATM   19  C   UNL     1     -39.831 -45.368  10.401  1.00  0.00     0.048 C 
HETATM   20  C   UNL     1     -40.220 -47.450  11.730  1.00  0.00     0.043 A 
ENDBRANCH  13  14
ENDBRANCH  12  13
ENDBRANCH  11  12
ENDBRANCH   1  11
BRANCH   2  21
HETATM   21  C   UNL     1     -40.625 -53.153  12.679  1.00  0.00     0.102 C 
BRANCH  21  22
HETATM   22  C   UNL     1     -40.160 -54.304  13.573  1.00  0.00     0.171 C 
BRANCH  22  23
HETATM   23  O   UNL     1     -38.805 -54.654  13.301  1.00  0.00    -0.400 OA
HETATM   24  H   UNL     1     -38.767 -54.775  12.328  1.00  0.00     0.209 HD
ENDBRANCH  22  23
ENDBRANCH  21  22
ENDBRANCH   2  21
TORSDOF 7
ENDMDL
MODEL 8
REMARK VINA RESULT:      -5.8      3.770      6.608
REMARK  7 active torsions:
REMARK  status: ('A' for Active; 'I' for Inactive)
REMARK    1  A    between atoms: C_6  and  O_7 
REMARK    2  A    between atoms: O_7  and  C_8 
REMARK    3  A    between atoms: C_8  and  C_9 
REMARK    4  A    between atoms: C_9  and  N_10 
REMARK    5  A    between atoms: C_11  and  C_12 
REMARK    6  A    between atoms: C_12  and  C_13 
REMARK    7  A    between atoms: C_13  and  O_14 
ROOT
HETATM    1  N   UNL     1     -41.100 -54.350  14.981  1.00  0.00    -0.333 N 
HETATM    2  C   UNL     1     -40.310 -54.170  13.853  1.00  0.00     0.086 A 
HETATM    3  N   UNL     1     -39.100 -54.651  14.041  1.00  0.00    -0.344 N 
ATOM      4  HN  UNL     1     -38.335 -54.675  13.365  1.00  0.00     0.167 HD
HETATM    5  C   UNL     1     -39.076 -55.113  15.327  1.00  0.00     0.060 A 
HETATM    6  C   UNL     1     -38.008 -55.704  16.022  1.00  0.00     0.032 A 
HETATM    7  C   UNL     1     -38.195 -56.111  17.345  1.00  0.00     0.002 A 
HETATM    8  C   UNL     1     -39.418 -55.910  17.972  1.00  0.00     0.002 A 
HETATM    9  C   UNL     1     -40.485 -55.298  17.302  1.00  0.00     0.032 A 
HETATM   10  C   UNL     1     -40.306 -54.921  15.961  1.00  0.00     0.062 A 
ENDROOT
BRANCH   1  11
HETATM   11  C   UNL     1     -42.473 -53.885  15.072  1.00  0.00     0.157 C 
BRANCH  11  12
HETATM   12  C   UNL     1     -43.600 -54.913  14.969  1.00  0.00     0.196 C 
BRANCH  12  13
HETATM   13  O   UNL     1     -44.391 -54.693  13.791  1.00  0.00    -0.350 OA
BRANCH  13  14
HETATM   14  C   UNL     1     -45.247 -53.623  13.863  1.00  0.00     0.069 A 
HETATM   15  C   UNL     1     -45.418 -52.889  12.691  1.00  0.00     0.037 A 
HETATM   16  C   UNL     1     -46.249 -51.766  12.681  1.00  0.00     0.003 A 
HETATM   17  C   UNL     1     -46.900 -51.361  13.850  1.00  0.00     0.007 A 
HETATM   18  C   UNL     1     -46.729 -52.084  15.031  1.00  0.00    -0.059 A 
HETATM   19  C   UNL     1     -47.393 -51.672  16.312  1.00  0.00     0.048 C 
HETATM   20  C   UNL     1     -45.904 -53.215  15.027  1.00  0.00     0.043 A 
ENDBRANCH  13  14
ENDBRANCH  12  13
ENDBRANCH  11  12
ENDBRANCH   1  11
BRANCH   2  21
HETATM   21  C   UNL     1     -40.791 -53.528  12.583  1.00  0.00     0.102 C 
BRANCH  21  22
HETATM   22  C   UNL     1     -40.429 -52.045  12.493  1.00  0.00     0.171 C 
BRANCH  22  23
HETATM   23  O   UNL     1     -39.040 -51.837  12.739  1.00  0.00    -0.400 OA
HETATM   24  H   UNL     1     -38.990 -51.559  13.679  1.00  0.00     0.209 HD
ENDBRANCH  22  23
ENDBRANCH  21  22
ENDBRANCH   2  21
TORSDOF 7
ENDMDL
MODEL 9
REMARK VINA RESULT:      -5.8      2.561      5.854
REMARK  7 active torsions:
REMARK  status: ('A' for Active; 'I' for Inactive)
REMARK    1  A    between atoms: C_6  and  O_7 
REMARK    2  A    between atoms: O_7  and  C_8 
REMARK    3  A    between atoms: C_8  and  C_9 
REMARK    4  A    between atoms: C_9  and  N_10 
REMARK    5  A    between atoms: C_11  and  C_12 
REMARK    6  A    between atoms: C_12  and  C_13 
REMARK    7  A    between atoms: C_13  and  O_14 
ROOT
HETATM    1  N   UNL     1     -43.137 -52.600  14.487  1.00  0.00    -0.333 N 
HETATM    2  C   UNL     1     -42.676 -53.523  13.556  1.00  0.00     0.086 A 
HETATM    3  N   UNL     1     -43.555 -53.701  12.592  1.00  0.00    -0.344 N 
ATOM      4  HN  UNL     1     -43.454 -54.299  11.771  1.00  0.00     0.167 HD
HETATM    5  C   UNL     1     -44.629 -52.921  12.915  1.00  0.00     0.060 A 
HETATM    6  C   UNL     1     -45.840 -52.771  12.218  1.00  0.00     0.032 A 
HETATM    7  C   UNL     1     -46.820 -51.915  12.725  1.00  0.00     0.002 A 
HETATM    8  C   UNL     1     -46.606 -51.238  13.919  1.00  0.00     0.002 A 
HETATM    9  C   UNL     1     -45.416 -51.396  14.640  1.00  0.00     0.032 A 
HETATM   10  C   UNL     1     -44.418 -52.232  14.111  1.00  0.00     0.062 A 
ENDROOT
BRANCH   1  11
HETATM   11  C   UNL     1     -42.391 -52.233  15.677  1.00  0.00     0.157 C 
BRANCH  11  12
HETATM   12  C   UNL     1     -41.426 -51.050  15.598  1.00  0.00     0.196 C 
BRANCH  12  13
HETATM   13  O   UNL     1     -42.106 -49.860  15.169  1.00  0.00    -0.350 OA
BRANCH  13  14
HETATM   14  C   UNL     1     -41.911 -49.528  13.852  1.00  0.00     0.069 A 
HETATM   15  C   UNL     1     -40.681 -49.882  13.301  1.00  0.00     0.037 A 
HETATM   16  C   UNL     1     -40.387 -49.557  11.974  1.00  0.00     0.003 A 
HETATM   17  C   UNL     1     -41.316 -48.859  11.197  1.00  0.00     0.007 A 
HETATM   18  C   UNL     1     -42.547 -48.492  11.741  1.00  0.00    -0.059 A 
HETATM   19  C   UNL     1     -43.564 -47.725  10.949  1.00  0.00     0.048 C 
HETATM   20  C   UNL     1     -42.837 -48.834  13.068  1.00  0.00     0.043 A 
ENDBRANCH  13  14
ENDBRANCH  12  13
ENDBRANCH  11  12
ENDBRANCH   1  11
BRANCH   2  21
HETATM   21  C   UNL     1     -41.341 -54.205  13.638  1.00  0.00     0.102 C 
BRANCH  21  22
HETATM   22  C   UNL     1     -40.250 -53.473  12.855  1.00  0.00     0.171 C 
BRANCH  22  23
HETATM   23  O   UNL     1     -40.643 -53.254  11.502  1.00  0.00    -0.400 OA
HETATM   24  H   UNL     1     -40.369 -52.332  11.307  1.00  0.00     0.209 HD
ENDBRANCH  22  23
ENDBRANCH  21  22
ENDBRANCH   2  21
TORSDOF 7
ENDMDL
