MODEL 1
REMARK VINA RESULT:      -7.5      0.000      0.000
REMARK  3 active torsions:
REMARK  status: ('A' for Active; 'I' for Inactive)
REMARK    1  A    between atoms: C_2  and  C_5 
REMARK    2  A    between atoms: C_8  and  N_9 
REMARK       I    between atoms: N_9  and  C_10 
REMARK       I    between atoms: C_10  and  N_12 
REMARK    3  A    between atoms: N_12  and  C_13 
ROOT
HETATM    1  N   UNL     1     -40.674 -49.848  12.775  1.00  0.00    -0.294 N 
HETATM    2  C   UNL     1     -40.878 -51.112  13.273  1.00  0.00     0.322 C 
HETATM    3  O   UNL     1     -40.073 -51.605  14.056  1.00  0.00    -0.247 OA
HETATM    4  N   UNL     1     -42.014 -51.738  12.859  1.00  0.00    -0.333 N 
HETATM    5  H   UNL     1     -39.848 -49.393  13.135  1.00  0.00     0.172 HD
HETATM    6  H   UNL     1     -42.488 -51.268  12.093  1.00  0.00     0.165 HD
ENDROOT
BRANCH   1   7
HETATM    7  C   UNL     1     -41.496 -49.155  11.873  1.00  0.00     0.123 A 
HETATM    8  C   UNL     1     -42.622 -48.493  12.314  1.00  0.00     0.052 A 
HETATM    9  C   UNL     1     -43.420 -47.844  11.368  1.00  0.00     0.031 A 
HETATM   10  C   UNL     1     -43.063 -47.880  10.021  1.00  0.00     0.033 A 
HETATM   11  N   UNL     1     -41.943 -48.520   9.643  1.00  0.00    -0.303 N 
HETATM   12  N   UNL     1     -41.172 -49.146  10.566  1.00  0.00    -0.285 N 
ATOM     13  HN  UNL     1     -41.673 -48.536   8.660  1.00  0.00     0.186 HD
ATOM     14  HN  UNL     1     -40.323 -49.623  10.263  1.00  0.00     0.188 HD
BRANCH  10  15
HETATM   15  C   UNL     1     -43.896 -47.246   8.913  1.00  0.00    -0.007 C 
HETATM   16  C   UNL     1     -45.389 -47.531   9.145  1.00  0.00     0.021 C 
HETATM   17  C   UNL     1     -43.450 -47.802   7.551  1.00  0.00     0.021 C 
HETATM   18  C   UNL     1     -43.709 -45.708   8.877  1.00  0.00     0.021 C 
ENDBRANCH  10  15
ENDBRANCH   1   7
BRANCH   4  19
HETATM   19  C   UNL     1     -42.516 -53.066  13.213  1.00  0.00     0.044 C 
HETATM   20  C   UNL     1     -41.433 -54.119  12.934  1.00  0.00     0.039 C 
HETATM   21  C   UNL     1     -43.837 -53.352  12.471  1.00  0.00     0.046 C 
HETATM   22  C   UNL     1     -44.657 -54.376  13.252  1.00  0.00     0.143 C 
HETATM   23  S   UNL     1     -44.065 -54.352  14.928  1.00  0.00     0.146 S 
HETATM   24  O   UNL     1     -45.119 -53.873  15.796  1.00  0.00    -0.228 OA
HETATM   25  O   UNL     1     -43.364 -55.594  15.194  1.00  0.00    -0.228 OA
HETATM   26  C   UNL     1     -42.877 -53.056  14.710  1.00  0.00     0.170 C 
ENDBRANCH   4  19
TORSDOF 3
ENDMDL
MODEL 2
REMARK VINA RESULT:      -7.2      3.802      5.122
REMARK  3 active torsions:
REMARK  status: ('A' for Active; 'I' for Inactive)
REMARK    1  A    between atoms: C_2  and  C_5 
REMARK    2  A    between atoms: C_8  and  N_9 
REMARK       I    between atoms: N_9  and  C_10 
REMARK       I    between atoms: C_10  and  N_12 
REMARK    3  A    between atoms: N_12  and  C_13 
ROOT
HETATM    1  N   UNL     1     -42.773 -53.490  12.149  1.00  0.00    -0.294 N 
HETATM    2  C   UNL     1     -43.982 -53.325  12.779  1.00  0.00     0.322 C 
HETATM    3  O   UNL     1     -44.889 -54.130  12.594  1.00  0.00    -0.247 OA
HETATM    4  N   UNL     1     -44.079 -52.250  13.609  1.00  0.00    -0.333 N 
HETATM    5  H   UNL     1     -42.717 -54.320  11.577  1.00  0.00     0.172 HD
HETATM    6  H   UNL     1     -43.305 -51.597  13.529  1.00  0.00     0.165 HD
ENDROOT
BRANCH   1   7
HETATM    7  C   UNL     1     -41.648 -52.658  12.255  1.00  0.00     0.123 A 
HETATM    8  C   UNL     1     -40.782 -52.776  13.321  1.00  0.00     0.052 A 
HETATM    9  C   UNL     1     -39.695 -51.902  13.390  1.00  0.00     0.031 A 
HETATM   10  C   UNL     1     -39.513 -50.944  12.394  1.00  0.00     0.033 A 
HETATM   11  N   UNL     1     -40.372 -50.883  11.362  1.00  0.00    -0.303 N 
HETATM   12  N   UNL     1     -41.424 -51.736  11.299  1.00  0.00    -0.285 N 
ATOM     13  HN  UNL     1     -40.233 -50.192  10.624  1.00  0.00     0.186 HD
ATOM     14  HN  UNL     1     -42.063 -51.679  10.507  1.00  0.00     0.188 HD
BRANCH  10  15
HETATM   15  C   UNL     1     -38.387 -49.916  12.410  1.00  0.00    -0.007 C 
HETATM   16  C   UNL     1     -37.552 -50.067  13.692  1.00  0.00     0.021 C 
HETATM   17  C   UNL     1     -38.981 -48.501  12.320  1.00  0.00     0.021 C 
HETATM   18  C   UNL     1     -37.436 -50.104  11.202  1.00  0.00     0.021 C 
ENDBRANCH  10  15
ENDBRANCH   1   7
BRANCH   4  19
HETATM   19  C   UNL     1     -45.215 -51.813  14.422  1.00  0.00     0.044 C 
HETATM   20  C   UNL     1     -46.377 -51.399  13.506  1.00  0.00     0.039 C 
HETATM   21  C   UNL     1     -44.780 -50.690  15.384  1.00  0.00     0.046 C 
HETATM   22  C   UNL     1     -45.704 -50.664  16.599  1.00  0.00     0.143 C 
HETATM   23  S   UNL     1     -46.480 -52.260  16.701  1.00  0.00     0.146 S 
HETATM   24  O   UNL     1     -46.045 -52.922  17.912  1.00  0.00    -0.228 OA
HETATM   25  O   UNL     1     -47.885 -52.118  16.372  1.00  0.00    -0.228 OA
HETATM   26  C   UNL     1     -45.638 -52.988  15.322  1.00  0.00     0.170 C 
ENDBRANCH   4  19
TORSDOF 3
ENDMDL
MODEL 3
REMARK VINA RESULT:      -7.2      2.321      2.925
REMARK  3 active torsions:
REMARK  status: ('A' for Active; 'I' for Inactive)
REMARK    1  A    between atoms: C_2  and  C_5 
REMARK    2  A    between atoms: C_8  and  N_9 
REMARK       I    between atoms: N_9  and  C_10 
REMARK       I    between atoms: C_10  and  N_12 
REMARK    3  A    between atoms: N_12  and  C_13 
ROOT
HETATM    1  N   UNL     1     -39.971 -51.220  11.557  1.00  0.00    -0.294 N 
HETATM    2  C   UNL     1     -40.844 -52.096  12.155  1.00  0.00     0.322 C 
HETATM    3  O   UNL     1     -40.603 -53.298  12.164  1.00  0.00    -0.247 OA
HETATM    4  N   UNL     1     -41.944 -51.538  12.733  1.00  0.00    -0.333 N 
HETATM    5  H   UNL     1     -39.144 -51.658  11.178  1.00  0.00     0.172 HD
HETATM    6  H   UNL     1     -42.079 -50.558  12.500  1.00  0.00     0.165 HD
ENDROOT
BRANCH   1   7
HETATM    7  C   UNL     1     -40.108 -49.827  11.461  1.00  0.00     0.123 A 
HETATM    8  C   UNL     1     -39.439 -48.992  12.330  1.00  0.00     0.052 A 
HETATM    9  C   UNL     1     -39.636 -47.614  12.207  1.00  0.00     0.031 A 
HETATM   10  C   UNL     1     -40.492 -47.123  11.222  1.00  0.00     0.033 A 
HETATM   11  N   UNL     1     -41.105 -47.977  10.384  1.00  0.00    -0.303 N 
HETATM   12  N   UNL     1     -40.907 -49.313  10.507  1.00  0.00    -0.285 N 
ATOM     13  HN  UNL     1     -41.721 -47.619   9.653  1.00  0.00     0.186 HD
ATOM     14  HN  UNL     1     -41.376 -49.946   9.859  1.00  0.00     0.188 HD
BRANCH  10  15
HETATM   15  C   UNL     1     -40.808 -45.643  11.044  1.00  0.00    -0.007 C 
HETATM   16  C   UNL     1     -42.201 -45.471  10.417  1.00  0.00     0.021 C 
HETATM   17  C   UNL     1     -39.737 -44.990  10.155  1.00  0.00     0.021 C 
HETATM   18  C   UNL     1     -40.807 -44.899  12.403  1.00  0.00     0.021 C 
ENDBRANCH  10  15
ENDBRANCH   1   7
BRANCH   4  19
HETATM   19  C   UNL     1     -43.040 -52.190  13.449  1.00  0.00     0.044 C 
HETATM   20  C   UNL     1     -42.506 -52.834  14.737  1.00  0.00     0.039 C 
HETATM   21  C   UNL     1     -43.754 -53.198  12.526  1.00  0.00     0.046 C 
HETATM   22  C   UNL     1     -45.191 -53.402  12.998  1.00  0.00     0.143 C 
HETATM   23  S   UNL     1     -45.620 -51.994  13.995  1.00  0.00     0.146 S 
HETATM   24  O   UNL     1     -46.674 -51.251  13.338  1.00  0.00    -0.228 OA
HETATM   25  O   UNL     1     -45.734 -52.417  15.377  1.00  0.00    -0.228 OA
HETATM   26  C   UNL     1     -44.094 -51.120  13.785  1.00  0.00     0.170 C 
ENDBRANCH   4  19
TORSDOF 3
ENDMDL
MODEL 4
REMARK VINA RESULT:      -7.2      2.498      3.165
REMARK  3 active torsions:
REMARK  status: ('A' for Active; 'I' for Inactive)
REMARK    1  A    between atoms: C_2  and  C_5 
REMARK    2  A    between atoms: C_8  and  N_9 
REMARK       I    between atoms: N_9  and  C_10 
REMARK       I    between atoms: C_10  and  N_12 
REMARK    3  A    between atoms: N_12  and  C_13 
ROOT
HETATM    1  N   UNL     1     -40.493 -51.098  11.304  1.00  0.00    -0.294 N 
HETATM    2  C   UNL     1     -41.404 -51.865  11.989  1.00  0.00     0.322 C 
HETATM    3  O   UNL     1     -41.363 -53.088  11.912  1.00  0.00    -0.247 OA
HETATM    4  N   UNL     1     -42.307 -51.183  12.747  1.00  0.00    -0.333 N 
HETATM    5  H   UNL     1     -39.810 -51.633  10.789  1.00  0.00     0.172 HD
HETATM    6  H   UNL     1     -42.312 -50.181  12.578  1.00  0.00     0.165 HD
ENDROOT
BRANCH   1   7
HETATM    7  C   UNL     1     -40.415 -49.698  11.288  1.00  0.00     0.123 A 
HETATM    8  C   UNL     1     -39.601 -49.027  12.176  1.00  0.00     0.052 A 
HETATM    9  C   UNL     1     -39.585 -47.631  12.134  1.00  0.00     0.031 A 
HETATM   10  C   UNL     1     -40.380 -46.957  11.208  1.00  0.00     0.033 A 
HETATM   11  N   UNL     1     -41.141 -47.656  10.348  1.00  0.00    -0.303 N 
HETATM   12  N   UNL     1     -41.150 -49.012  10.392  1.00  0.00    -0.285 N 
ATOM     13  HN  UNL     1     -41.713 -47.166   9.660  1.00  0.00     0.186 HD
ATOM     14  HN  UNL     1     -41.729 -49.526   9.729  1.00  0.00     0.188 HD
BRANCH  10  15
HETATM   15  C   UNL     1     -40.467 -45.438  11.121  1.00  0.00    -0.007 C 
HETATM   16  C   UNL     1     -41.915 -45.006  10.838  1.00  0.00     0.021 C 
HETATM   17  C   UNL     1     -39.530 -44.931  10.011  1.00  0.00     0.021 C 
HETATM   18  C   UNL     1     -40.026 -44.772  12.448  1.00  0.00     0.021 C 
ENDBRANCH  10  15
ENDBRANCH   1   7
BRANCH   4  19
HETATM   19  C   UNL     1     -43.383 -51.703  13.591  1.00  0.00     0.044 C 
HETATM   20  C   UNL     1     -44.112 -50.538  14.276  1.00  0.00     0.039 C 
HETATM   21  C   UNL     1     -42.824 -52.734  14.592  1.00  0.00     0.046 C 
HETATM   22  C   UNL     1     -43.931 -53.697  15.013  1.00  0.00     0.143 C 
HETATM   23  S   UNL     1     -45.192 -53.625  13.763  1.00  0.00     0.146 S 
HETATM   24  O   UNL     1     -45.278 -54.908  13.099  1.00  0.00    -0.228 OA
HETATM   25  O   UNL     1     -46.364 -52.975  14.318  1.00  0.00    -0.228 OA
HETATM   26  C   UNL     1     -44.357 -52.487  12.692  1.00  0.00     0.170 C 
ENDBRANCH   4  19
TORSDOF 3
ENDMDL
MODEL 5
REMARK VINA RESULT:      -6.8      2.091      2.690
REMARK  3 active torsions:
REMARK  status: ('A' for Active; 'I' for Inactive)
REMARK    1  A    between atoms: C_2  and  C_5 
REMARK    2  A    between atoms: C_8  and  N_9 
REMARK       I    between atoms: N_9  and  C_10 
REMARK       I    between atoms: C_10  and  N_12 
REMARK    3  A    between atoms: N_12  and  C_13 
ROOT
HETATM    1  N   UNL     1     -40.070 -51.336  11.654  1.00  0.00    -0.294 N 
HETATM    2  C   UNL     1     -40.963 -52.225  12.200  1.00  0.00     0.322 C 
HETATM    3  O   UNL     1     -40.708 -53.424  12.219  1.00  0.00    -0.247 OA
HETATM    4  N   UNL     1     -42.101 -51.684  12.717  1.00  0.00    -0.333 N 
HETATM    5  H   UNL     1     -39.217 -51.762  11.321  1.00  0.00     0.172 HD
HETATM    6  H   UNL     1     -42.236 -50.705  12.480  1.00  0.00     0.165 HD
ENDROOT
BRANCH   1   7
HETATM    7  C   UNL     1     -40.220 -49.945  11.555  1.00  0.00     0.123 A 
HETATM    8  C   UNL     1     -39.743 -49.112  12.545  1.00  0.00     0.052 A 
HETATM    9  C   UNL     1     -39.947 -47.737  12.408  1.00  0.00     0.031 A 
HETATM   10  C   UNL     1     -40.616 -47.245  11.289  1.00  0.00     0.033 A 
HETATM   11  N   UNL     1     -41.044 -48.095  10.339  1.00  0.00    -0.303 N 
HETATM   12  N   UNL     1     -40.840 -49.429  10.477  1.00  0.00    -0.285 N 
ATOM     13  HN  UNL     1     -41.522 -47.736   9.513  1.00  0.00     0.186 HD
ATOM     14  HN  UNL     1     -41.166 -50.058   9.744  1.00  0.00     0.188 HD
BRANCH  10  15
HETATM   15  C   UNL     1     -40.929 -45.768  11.078  1.00  0.00    -0.007 C 
HETATM   16  C   UNL     1     -42.271 -45.611  10.344  1.00  0.00     0.021 C 
HETATM   17  C   UNL     1     -39.797 -45.112  10.270  1.00  0.00     0.021 C 
HETATM   18  C   UNL     1     -41.039 -45.017  12.428  1.00  0.00     0.021 C 
ENDBRANCH  10  15
ENDBRANCH   1   7
BRANCH   4  19
HETATM   19  C   UNL     1     -43.227 -52.353  13.369  1.00  0.00     0.044 C 
HETATM   20  C   UNL     1     -43.873 -53.347  12.392  1.00  0.00     0.039 C 
HETATM   21  C   UNL     1     -44.224 -51.311  13.912  1.00  0.00     0.046 C 
HETATM   22  C   UNL     1     -45.015 -51.909  15.072  1.00  0.00     0.143 C 
HETATM   23  S   UNL     1     -44.074 -53.283  15.695  1.00  0.00     0.146 S 
HETATM   24  O   UNL     1     -43.644 -52.990  17.046  1.00  0.00    -0.228 OA
HETATM   25  O   UNL     1     -44.768 -54.513  15.366  1.00  0.00    -0.228 OA
HETATM   26  C   UNL     1     -42.689 -53.095  14.606  1.00  0.00     0.170 C 
ENDBRANCH   4  19
TORSDOF 3
ENDMDL
MODEL 6
REMARK VINA RESULT:      -6.7      2.282      3.012
REMARK  3 active torsions:
REMARK  status: ('A' for Active; 'I' for Inactive)
REMARK    1  A    between atoms: C_2  and  C_5 
REMARK    2  A    between atoms: C_8  and  N_9 
REMARK       I    between atoms: N_9  and  C_10 
REMARK       I    between atoms: C_10  and  N_12 
REMARK    3  A    between atoms: N_12  and  C_13 
ROOT
HETATM    1  N   UNL     1     -38.095 -50.230  11.617  1.00  0.00    -0.294 N 
HETATM    2  C   UNL     1     -38.046 -51.208  12.580  1.00  0.00     0.322 C 
HETATM    3  O   UNL     1     -37.015 -51.849  12.757  1.00  0.00    -0.247 OA
HETATM    4  N   UNL     1     -39.183 -51.385  13.308  1.00  0.00    -0.333 N 
HETATM    5  H   UNL     1     -37.224 -50.092  11.126  1.00  0.00     0.172 HD
HETATM    6  H   UNL     1     -39.991 -50.894  12.936  1.00  0.00     0.165 HD
ENDROOT
BRANCH   1   7
HETATM    7  C   UNL     1     -39.195 -49.421  11.295  1.00  0.00     0.123 A 
HETATM    8  C   UNL     1     -39.331 -48.165  11.847  1.00  0.00     0.052 A 
HETATM    9  C   UNL     1     -40.461 -47.414  11.513  1.00  0.00     0.031 A 
HETATM   10  C   UNL     1     -41.410 -47.944  10.641  1.00  0.00     0.033 A 
HETATM   11  N   UNL     1     -41.222 -49.165  10.111  1.00  0.00    -0.303 N 
HETATM   12  N   UNL     1     -40.122 -49.888  10.437  1.00  0.00    -0.285 N 
ATOM     13  HN  UNL     1     -41.909 -49.549   9.462  1.00  0.00     0.186 HD
ATOM     14  HN  UNL     1     -39.993 -50.810  10.022  1.00  0.00     0.188 HD
BRANCH  10  15
HETATM   15  C   UNL     1     -42.697 -47.222  10.259  1.00  0.00    -0.007 C 
HETATM   16  C   UNL     1     -43.829 -47.610  11.225  1.00  0.00     0.021 C 
HETATM   17  C   UNL     1     -43.080 -47.582   8.814  1.00  0.00     0.021 C 
HETATM   18  C   UNL     1     -42.522 -45.684  10.329  1.00  0.00     0.021 C 
ENDBRANCH  10  15
ENDBRANCH   1   7
BRANCH   4  19
HETATM   19  C   UNL     1     -39.443 -52.325  14.398  1.00  0.00     0.044 C 
HETATM   20  C   UNL     1     -38.803 -51.804  15.694  1.00  0.00     0.039 C 
HETATM   21  C   UNL     1     -38.955 -53.736  14.014  1.00  0.00     0.046 C 
HETATM   22  C   UNL     1     -39.736 -54.785  14.800  1.00  0.00     0.143 C 
HETATM   23  S   UNL     1     -41.242 -54.016  15.348  1.00  0.00     0.146 S 
HETATM   24  O   UNL     1     -42.366 -54.662  14.706  1.00  0.00    -0.228 OA
HETATM   25  O   UNL     1     -41.182 -53.843  16.786  1.00  0.00    -0.228 OA
HETATM   26  C   UNL     1     -40.968 -52.448  14.569  1.00  0.00     0.170 C 
ENDBRANCH   4  19
TORSDOF 3
ENDMDL
MODEL 7
REMARK VINA RESULT:      -6.4      4.274      7.112
REMARK  3 active torsions:
REMARK  status: ('A' for Active; 'I' for Inactive)
REMARK    1  A    between atoms: C_2  and  C_5 
REMARK    2  A    between atoms: C_8  and  N_9 
REMARK       I    between atoms: N_9  and  C_10 
REMARK       I    between atoms: C_10  and  N_12 
REMARK    3  A    between atoms: N_12  and  C_13 
ROOT
HETATM    1  N   UNL     1     -40.163 -51.447  11.927  1.00  0.00    -0.294 N 
HETATM    2  C   UNL     1     -39.710 -50.151  11.878  1.00  0.00     0.322 C 
HETATM    3  O   UNL     1     -38.622 -49.897  11.372  1.00  0.00    -0.247 OA
HETATM    4  N   UNL     1     -40.545 -49.209  12.396  1.00  0.00    -0.333 N 
HETATM    5  H   UNL     1     -39.543 -52.117  11.495  1.00  0.00     0.172 HD
HETATM    6  H   UNL     1     -41.328 -49.594  12.918  1.00  0.00     0.165 HD
ENDROOT
BRANCH   1   7
HETATM    7  C   UNL     1     -41.375 -51.896  12.474  1.00  0.00     0.123 A 
HETATM    8  C   UNL     1     -41.590 -51.859  13.836  1.00  0.00     0.052 A 
HETATM    9  C   UNL     1     -42.804 -52.345  14.327  1.00  0.00     0.031 A 
HETATM   10  C   UNL     1     -43.756 -52.848  13.443  1.00  0.00     0.033 A 
HETATM   11  N   UNL     1     -43.509 -52.843  12.121  1.00  0.00    -0.303 N 
HETATM   12  N   UNL     1     -42.330 -52.367  11.650  1.00  0.00    -0.285 N 
ATOM     13  HN  UNL     1     -44.210 -53.198  11.471  1.00  0.00     0.186 HD
ATOM     14  HN  UNL     1     -42.162 -52.366  10.644  1.00  0.00     0.188 HD
BRANCH  10  15
HETATM   15  C   UNL     1     -45.086 -53.446  13.888  1.00  0.00    -0.007 C 
HETATM   16  C   UNL     1     -46.248 -52.756  13.155  1.00  0.00     0.021 C 
HETATM   17  C   UNL     1     -45.240 -53.282  15.409  1.00  0.00     0.021 C 
HETATM   18  C   UNL     1     -45.158 -54.960  13.569  1.00  0.00     0.021 C 
ENDBRANCH  10  15
ENDBRANCH   1   7
BRANCH   4  19
HETATM   19  C   UNL     1     -40.360 -47.760  12.482  1.00  0.00     0.044 C 
HETATM   20  C   UNL     1     -39.105 -47.447  13.310  1.00  0.00     0.039 C 
HETATM   21  C   UNL     1     -41.631 -47.092  13.042  1.00  0.00     0.046 C 
HETATM   22  C   UNL     1     -41.704 -45.642  12.572  1.00  0.00     0.143 C 
HETATM   23  S   UNL     1     -40.670 -45.506  11.133  1.00  0.00     0.146 S 
HETATM   24  O   UNL     1     -41.493 -45.195   9.984  1.00  0.00    -0.228 OA
HETATM   25  O   UNL     1     -39.502 -44.716  11.469  1.00  0.00    -0.228 OA
HETATM   26  C   UNL     1     -40.204 -47.214  11.051  1.00  0.00     0.170 C 
ENDBRANCH   4  19
TORSDOF 3
ENDMDL
MODEL 8
REMARK VINA RESULT:      -6.3      4.729      6.470
REMARK  3 active torsions:
REMARK  status: ('A' for Active; 'I' for Inactive)
REMARK    1  A    between atoms: C_2  and  C_5 
REMARK    2  A    between atoms: C_8  and  N_9 
REMARK       I    between atoms: N_9  and  C_10 
REMARK       I    between atoms: C_10  and  N_12 
REMARK    3  A    between atoms: N_12  and  C_13 
ROOT
HETATM    1  N   UNL     1     -40.460 -51.909  11.882  1.00  0.00    -0.294 N 
HETATM    2  C   UNL     1     -39.417 -51.227  12.461  1.00  0.00     0.322 C 
HETATM    3  O   UNL     1     -38.316 -51.210  11.922  1.00  0.00    -0.247 OA
HETATM    4  N   UNL     1     -39.703 -50.580  13.625  1.00  0.00    -0.333 N 
HETATM    5  H   UNL     1     -40.229 -52.339  10.998  1.00  0.00     0.172 HD
HETATM    6  H   UNL     1     -40.606 -50.823  14.021  1.00  0.00     0.165 HD
ENDROOT
BRANCH   1   7
HETATM    7  C   UNL     1     -41.768 -52.025  12.376  1.00  0.00     0.123 A 
HETATM    8  C   UNL     1     -42.167 -53.159  13.051  1.00  0.00     0.052 A 
HETATM    9  C   UNL     1     -43.490 -53.232  13.495  1.00  0.00     0.031 A 
HETATM   10  C   UNL     1     -44.362 -52.173  13.249  1.00  0.00     0.033 A 
HETATM   11  N   UNL     1     -43.919 -51.079  12.605  1.00  0.00    -0.303 N 
HETATM   12  N   UNL     1     -42.634 -51.013  12.179  1.00  0.00    -0.285 N 
ATOM     13  HN  UNL     1     -44.552 -50.297  12.436  1.00  0.00     0.186 HD
ATOM     14  HN  UNL     1     -42.313 -50.173  11.697  1.00  0.00     0.188 HD
BRANCH  10  15
HETATM   15  C   UNL     1     -45.833 -52.184  13.650  1.00  0.00    -0.007 C 
HETATM   16  C   UNL     1     -46.251 -53.597  14.089  1.00  0.00     0.021 C 
HETATM   17  C   UNL     1     -46.693 -51.715  12.464  1.00  0.00     0.021 C 
HETATM   18  C   UNL     1     -46.101 -51.222  14.834  1.00  0.00     0.021 C 
ENDBRANCH  10  15
ENDBRANCH   1   7
BRANCH   4  19
HETATM   19  C   UNL     1     -38.824 -49.769  14.468  1.00  0.00     0.044 C 
HETATM   20  C   UNL     1     -37.710 -50.650  15.053  1.00  0.00     0.039 C 
HETATM   21  C   UNL     1     -39.646 -49.043  15.551  1.00  0.00     0.046 C 
HETATM   22  C   UNL     1     -38.910 -47.784  16.001  1.00  0.00     0.143 C 
HETATM   23  S   UNL     1     -37.763 -47.358  14.711  1.00  0.00     0.146 S 
HETATM   24  O   UNL     1     -38.150 -46.090  14.131  1.00  0.00    -0.228 OA
HETATM   25  O   UNL     1     -36.415 -47.599  15.187  1.00  0.00    -0.228 OA
HETATM   26  C   UNL     1     -38.219 -48.656  13.593  1.00  0.00     0.170 C 
ENDBRANCH   4  19
TORSDOF 3
ENDMDL
MODEL 9
REMARK VINA RESULT:      -6.2      4.717      6.426
REMARK  3 active torsions:
REMARK  status: ('A' for Active; 'I' for Inactive)
REMARK    1  A    between atoms: C_2  and  C_5 
REMARK    2  A    between atoms: C_8  and  N_9 
REMARK       I    between atoms: N_9  and  C_10 
REMARK       I    between atoms: C_10  and  N_12 
REMARK    3  A    between atoms: N_12  and  C_13 
ROOT
HETATM    1  N   UNL     1     -40.337 -51.883  12.106  1.00  0.00    -0.294 N 
HETATM    2  C   UNL     1     -39.383 -51.151  12.769  1.00  0.00     0.322 C 
HETATM    3  O   UNL     1     -38.242 -51.080  12.326  1.00  0.00    -0.247 OA
HETATM    4  N   UNL     1     -39.798 -50.518  13.901  1.00  0.00    -0.333 N 
HETATM    5  H   UNL     1     -40.012 -52.303  11.248  1.00  0.00     0.172 HD
HETATM    6  H   UNL     1     -40.719 -50.805  14.220  1.00  0.00     0.165 HD
ENDROOT
BRANCH   1   7
HETATM    7  C   UNL     1     -41.676 -52.063  12.487  1.00  0.00     0.123 A 
HETATM    8  C   UNL     1     -42.096 -53.254  13.040  1.00  0.00     0.052 A 
HETATM    9  C   UNL     1     -43.447 -53.388  13.374  1.00  0.00     0.031 A 
HETATM   10  C   UNL     1     -44.324 -52.330  13.144  1.00  0.00     0.033 A 
HETATM   11  N   UNL     1     -43.862 -51.180  12.623  1.00  0.00    -0.303 N 
HETATM   12  N   UNL     1     -42.550 -51.056  12.304  1.00  0.00    -0.285 N 
ATOM     13  HN  UNL     1     -44.499 -50.400  12.466  1.00  0.00     0.186 HD
ATOM     14  HN  UNL     1     -42.215 -50.174  11.914  1.00  0.00     0.188 HD
BRANCH  10  15
HETATM   15  C   UNL     1     -45.820 -52.401  13.428  1.00  0.00    -0.007 C 
HETATM   16  C   UNL     1     -46.189 -53.787  13.981  1.00  0.00     0.021 C 
HETATM   17  C   UNL     1     -46.603 -52.114  12.136  1.00  0.00     0.021 C 
HETATM   18  C   UNL     1     -46.244 -51.344  14.478  1.00  0.00     0.021 C 
ENDBRANCH  10  15
ENDBRANCH   1   7
BRANCH   4  19
HETATM   19  C   UNL     1     -39.036 -49.664  14.812  1.00  0.00     0.044 C 
HETATM   20  C   UNL     1     -39.979 -49.050  15.857  1.00  0.00     0.039 C 
HETATM   21  C   UNL     1     -38.249 -48.603  14.017  1.00  0.00     0.046 C 
HETATM   22  C   UNL     1     -37.035 -48.149  14.821  1.00  0.00     0.143 C 
HETATM   23  S   UNL     1     -36.694 -49.419  16.017  1.00  0.00     0.146 S 
HETATM   24  O   UNL     1     -35.409 -50.017  15.722  1.00  0.00    -0.228 OA
HETATM   25  O   UNL     1     -37.014 -48.915  17.338  1.00  0.00    -0.228 OA
HETATM   26  C   UNL     1     -37.971 -50.535  15.503  1.00  0.00     0.170 C 
ENDBRANCH   4  19
TORSDOF 3
ENDMDL
