MODEL 1
REMARK VINA RESULT:      -5.4      0.000      0.000
REMARK  6 active torsions:
REMARK  status: ('A' for Active; 'I' for Inactive)
REMARK    1  A    between atoms: O_2  and  C_3 
REMARK    2  A    between atoms: C_3  and  C_4 
REMARK    3  A    between atoms: C_4  and  N_5 
REMARK    4  A    between atoms: C_8  and  C_13 
REMARK       I    between atoms: C_13  and  N_15 
REMARK    5  A    between atoms: C_19  and  C_20 
REMARK    6  A    between atoms: C_20  and  O_22 
ROOT
HETATM    1  N   UNL     1     -40.530 -54.567  14.761  1.00  0.00    -0.255 N 
HETATM    2  N   UNL     1     -41.785 -54.343  14.228  1.00  0.00    -0.290 N 
ATOM      3  HN  UNL     1     -41.898 -53.865  13.334  1.00  0.00     0.187 HD
HETATM    4  C   UNL     1     -42.814 -54.759  14.897  1.00  0.00     0.116 A 
HETATM    5  C   UNL     1     -42.730 -55.455  16.197  1.00  0.00     0.042 A 
HETATM    6  C   UNL     1     -41.510 -55.684  16.683  1.00  0.00     0.078 A 
HETATM    7  C   UNL     1     -40.300 -55.252  15.950  1.00  0.00     0.262 A 
HETATM    8  O   UNL     1     -39.201 -55.534  16.414  1.00  0.00    -0.267 OA
ENDROOT
BRANCH   4   9
HETATM    9  C   UNL     1     -44.228 -54.521  14.363  1.00  0.00     0.272 C 
HETATM   10  O   UNL     1     -44.930 -55.511  14.165  1.00  0.00    -0.266 OA
HETATM   11  N   UNL     1     -44.681 -53.235  14.063  1.00  0.00    -0.332 N 
HETATM   12  C   UNL     1     -46.070 -53.053  13.654  1.00  0.00     0.127 C 
HETATM   13  C   UNL     1     -44.070 -51.932  14.378  1.00  0.00     0.185 C 
HETATM   14  C   UNL     1     -46.423 -51.609  13.996  1.00  0.00     0.022 C 
HETATM   15  C   UNL     1     -45.262 -51.109  14.850  1.00  0.00     0.038 C 
BRANCH  13  16
HETATM   16  C   UNL     1     -43.389 -51.296  13.157  1.00  0.00     0.163 C 
HETATM   17  O   UNL     1     -43.234 -50.093  13.005  1.00  0.00    -0.648 OA
BRANCH  16  18
HETATM   18  O   UNL     1     -42.966 -52.201  12.239  1.00  0.00    -0.775 OA
HETATM   19  H   UNL     1     -43.497 -52.134  11.420  1.00  0.00     0.167 HD
ENDBRANCH  16  18
ENDBRANCH  13  16
ENDBRANCH   4   9
BRANCH   1  20
HETATM   20  C   UNL     1     -39.399 -54.056  13.986  1.00  0.00     0.178 C 
BRANCH  20  21
HETATM   21  C   UNL     1     -39.426 -52.534  13.826  1.00  0.00     0.189 C 
BRANCH  21  22
HETATM   22  O   UNL     1     -39.988 -52.176  12.561  1.00  0.00    -0.394 OA
HETATM   23  C   UNL     1     -39.708 -50.823  12.228  1.00  0.00     0.201 C 
ENDBRANCH  21  22
ENDBRANCH  20  21
ENDBRANCH   1  20
TORSDOF 6
ENDMDL
MODEL 2
REMARK VINA RESULT:      -5.3      2.076      5.965
REMARK  6 active torsions:
REMARK  status: ('A' for Active; 'I' for Inactive)
REMARK    1  A    between atoms: O_2  and  C_3 
REMARK    2  A    between atoms: C_3  and  C_4 
REMARK    3  A    between atoms: C_4  and  N_5 
REMARK    4  A    between atoms: C_8  and  C_13 
REMARK       I    between atoms: C_13  and  N_15 
REMARK    5  A    between atoms: C_19  and  C_20 
REMARK    6  A    between atoms: C_20  and  O_22 
ROOT
HETATM    1  N   UNL     1     -44.438 -51.952  13.157  1.00  0.00    -0.255 N 
HETATM    2  N   UNL     1     -43.252 -51.671  12.505  1.00  0.00    -0.290 N 
ATOM      3  HN  UNL     1     -42.939 -52.239  11.718  1.00  0.00     0.187 HD
HETATM    4  C   UNL     1     -42.550 -50.665  12.923  1.00  0.00     0.116 A 
HETATM    5  C   UNL     1     -42.936 -49.801  14.057  1.00  0.00     0.042 A 
HETATM    6  C   UNL     1     -44.095 -50.072  14.657  1.00  0.00     0.078 A 
HETATM    7  C   UNL     1     -44.947 -51.194  14.206  1.00  0.00     0.262 A 
HETATM    8  O   UNL     1     -46.028 -51.369  14.758  1.00  0.00    -0.267 OA
ENDROOT
BRANCH   4   9
HETATM    9  C   UNL     1     -41.220 -50.321  12.250  1.00  0.00     0.272 C 
HETATM   10  O   UNL     1     -41.237 -49.453  11.378  1.00  0.00    -0.266 OA
HETATM   11  N   UNL     1     -40.046 -51.002  12.578  1.00  0.00    -0.332 N 
HETATM   12  C   UNL     1     -38.787 -50.566  11.982  1.00  0.00     0.127 C 
HETATM   13  C   UNL     1     -39.785 -51.934  13.687  1.00  0.00     0.185 C 
HETATM   14  C   UNL     1     -37.689 -51.025  12.936  1.00  0.00     0.022 C 
HETATM   15  C   UNL     1     -38.422 -51.480  14.193  1.00  0.00     0.038 C 
BRANCH  13  16
HETATM   16  C   UNL     1     -39.760 -53.400  13.224  1.00  0.00     0.163 C 
HETATM   17  O   UNL     1     -39.036 -54.260  13.704  1.00  0.00    -0.648 OA
BRANCH  16  18
HETATM   18  O   UNL     1     -40.626 -53.665  12.215  1.00  0.00    -0.775 OA
HETATM   19  H   UNL     1     -41.546 -53.683  12.547  1.00  0.00     0.167 HD
ENDBRANCH  16  18
ENDBRANCH  13  16
ENDBRANCH   4   9
BRANCH   1  20
HETATM   20  C   UNL     1     -45.183 -53.113  12.669  1.00  0.00     0.178 C 
BRANCH  20  21
HETATM   21  C   UNL     1     -44.676 -54.434  13.252  1.00  0.00     0.189 C 
BRANCH  21  22
HETATM   22  O   UNL     1     -43.281 -54.341  13.557  1.00  0.00    -0.394 OA
HETATM   23  C   UNL     1     -42.983 -54.909  14.825  1.00  0.00     0.201 C 
ENDBRANCH  21  22
ENDBRANCH  20  21
ENDBRANCH   1  20
TORSDOF 6
ENDMDL
MODEL 3
REMARK VINA RESULT:      -5.3      2.054      2.765
REMARK  6 active torsions:
REMARK  status: ('A' for Active; 'I' for Inactive)
REMARK    1  A    between atoms: O_2  and  C_3 
REMARK    2  A    between atoms: C_3  and  C_4 
REMARK    3  A    between atoms: C_4  and  N_5 
REMARK    4  A    between atoms: C_8  and  C_13 
REMARK       I    between atoms: C_13  and  N_15 
REMARK    5  A    between atoms: C_19  and  C_20 
REMARK    6  A    between atoms: C_20  and  O_22 
ROOT
HETATM    1  N   UNL     1     -40.443 -52.010  14.781  1.00  0.00    -0.255 N 
HETATM    2  N   UNL     1     -41.680 -52.120  15.385  1.00  0.00    -0.290 N 
ATOM      3  HN  UNL     1     -42.051 -51.366  15.963  1.00  0.00     0.187 HD
HETATM    4  C   UNL     1     -42.357 -53.209  15.195  1.00  0.00     0.116 A 
HETATM    5  C   UNL     1     -41.886 -54.344  14.375  1.00  0.00     0.042 A 
HETATM    6  C   UNL     1     -40.700 -54.210  13.781  1.00  0.00     0.078 A 
HETATM    7  C   UNL     1     -39.897 -52.978  13.944  1.00  0.00     0.262 A 
HETATM    8  O   UNL     1     -38.838 -52.883  13.334  1.00  0.00    -0.267 OA
ENDROOT
BRANCH   4   9
HETATM    9  C   UNL     1     -43.725 -53.391  15.855  1.00  0.00     0.272 C 
HETATM   10  O   UNL     1     -43.746 -53.879  16.984  1.00  0.00    -0.266 OA
HETATM   11  N   UNL     1     -44.903 -53.065  15.180  1.00  0.00    -0.332 N 
HETATM   12  C   UNL     1     -46.174 -53.160  15.892  1.00  0.00     0.127 C 
HETATM   13  C   UNL     1     -45.083 -52.328  13.918  1.00  0.00     0.185 C 
HETATM   14  C   UNL     1     -47.127 -52.205  15.180  1.00  0.00     0.022 C 
HETATM   15  C   UNL     1     -46.244 -51.395  14.237  1.00  0.00     0.038 C 
BRANCH  13  16
HETATM   16  C   UNL     1     -45.411 -53.260  12.741  1.00  0.00     0.163 C 
HETATM   17  O   UNL     1     -44.986 -54.401  12.627  1.00  0.00    -0.648 OA
BRANCH  16  18
HETATM   18  O   UNL     1     -46.228 -52.698  11.815  1.00  0.00    -0.775 OA
HETATM   19  H   UNL     1     -45.761 -51.987  11.332  1.00  0.00     0.167 HD
ENDBRANCH  16  18
ENDBRANCH  13  16
ENDBRANCH   4   9
BRANCH   1  20
HETATM   20  C   UNL     1     -39.703 -50.776  15.045  1.00  0.00     0.178 C 
BRANCH  20  21
HETATM   21  C   UNL     1     -39.937 -49.702  13.980  1.00  0.00     0.189 C 
BRANCH  21  22
HETATM   22  O   UNL     1     -41.327 -49.619  13.654  1.00  0.00    -0.394 OA
HETATM   23  C   UNL     1     -41.543 -49.715  12.253  1.00  0.00     0.201 C 
ENDBRANCH  21  22
ENDBRANCH  20  21
ENDBRANCH   1  20
TORSDOF 6
ENDMDL
MODEL 4
REMARK VINA RESULT:      -5.0      1.509      3.017
REMARK  6 active torsions:
REMARK  status: ('A' for Active; 'I' for Inactive)
REMARK    1  A    between atoms: O_2  and  C_3 
REMARK    2  A    between atoms: C_3  and  C_4 
REMARK    3  A    between atoms: C_4  and  N_5 
REMARK    4  A    between atoms: C_8  and  C_13 
REMARK       I    between atoms: C_13  and  N_15 
REMARK    5  A    between atoms: C_19  and  C_20 
REMARK    6  A    between atoms: C_20  and  O_22 
ROOT
HETATM    1  N   UNL     1     -40.390 -53.812  15.115  1.00  0.00    -0.255 N 
HETATM    2  N   UNL     1     -41.720 -54.059  15.393  1.00  0.00    -0.290 N 
ATOM      3  HN  UNL     1     -42.039 -54.201  16.351  1.00  0.00     0.187 HD
HETATM    4  C   UNL     1     -42.552 -54.104  14.400  1.00  0.00     0.116 A 
HETATM    5  C   UNL     1     -42.166 -53.911  12.987  1.00  0.00     0.042 A 
HETATM    6  C   UNL     1     -40.882 -53.650  12.741  1.00  0.00     0.078 A 
HETATM    7  C   UNL     1     -39.894 -53.564  13.839  1.00  0.00     0.262 A 
HETATM    8  O   UNL     1     -38.736 -53.269  13.564  1.00  0.00    -0.267 OA
ENDROOT
BRANCH   4   9
HETATM    9  C   UNL     1     -44.034 -54.391  14.648  1.00  0.00     0.272 C 
HETATM   10  O   UNL     1     -44.360 -55.565  14.815  1.00  0.00    -0.266 OA
HETATM   11  N   UNL     1     -44.982 -53.366  14.635  1.00  0.00    -0.332 N 
HETATM   12  C   UNL     1     -46.365 -53.679  14.980  1.00  0.00     0.127 C 
HETATM   13  C   UNL     1     -44.781 -51.908  14.622  1.00  0.00     0.185 C 
HETATM   14  C   UNL     1     -46.981 -52.374  15.474  1.00  0.00     0.022 C 
HETATM   15  C   UNL     1     -45.804 -51.419  15.639  1.00  0.00     0.038 C 
BRANCH  13  16
HETATM   16  C   UNL     1     -45.025 -51.297  13.233  1.00  0.00     0.163 C 
HETATM   17  O   UNL     1     -46.092 -51.346  12.638  1.00  0.00    -0.648 OA
BRANCH  16  18
HETATM   18  O   UNL     1     -43.933 -50.687  12.709  1.00  0.00    -0.775 OA
HETATM   19  H   UNL     1     -43.118 -51.166  12.960  1.00  0.00     0.167 HD
ENDBRANCH  16  18
ENDBRANCH  13  16
ENDBRANCH   4   9
BRANCH   1  20
HETATM   20  C   UNL     1     -39.483 -53.798  16.263  1.00  0.00     0.178 C 
BRANCH  20  21
HETATM   21  C   UNL     1     -38.763 -55.133  16.469  1.00  0.00     0.189 C 
BRANCH  21  22
HETATM   22  O   UNL     1     -39.586 -56.216  16.026  1.00  0.00    -0.394 OA
HETATM   23  C   UNL     1     -40.061 -56.993  17.118  1.00  0.00     0.201 C 
ENDBRANCH  21  22
ENDBRANCH  20  21
ENDBRANCH   1  20
TORSDOF 6
ENDMDL
MODEL 5
REMARK VINA RESULT:      -4.9      1.965      4.003
REMARK  6 active torsions:
REMARK  status: ('A' for Active; 'I' for Inactive)
REMARK    1  A    between atoms: O_2  and  C_3 
REMARK    2  A    between atoms: C_3  and  C_4 
REMARK    3  A    between atoms: C_4  and  N_5 
REMARK    4  A    between atoms: C_8  and  C_13 
REMARK       I    between atoms: C_13  and  N_15 
REMARK    5  A    between atoms: C_19  and  C_20 
REMARK    6  A    between atoms: C_20  and  O_22 
ROOT
HETATM    1  N   UNL     1     -40.608 -54.576  15.935  1.00  0.00    -0.255 N 
HETATM    2  N   UNL     1     -41.662 -53.686  16.018  1.00  0.00    -0.290 N 
ATOM      3  HN  UNL     1     -42.223 -53.614  16.867  1.00  0.00     0.187 HD
HETATM    4  C   UNL     1     -41.917 -52.946  14.985  1.00  0.00     0.116 A 
HETATM    5  C   UNL     1     -41.153 -52.996  13.722  1.00  0.00     0.042 A 
HETATM    6  C   UNL     1     -40.126 -53.842  13.669  1.00  0.00     0.078 A 
HETATM    7  C   UNL     1     -39.775 -54.694  14.827  1.00  0.00     0.262 A 
HETATM    8  O   UNL     1     -38.788 -55.417  14.746  1.00  0.00    -0.267 OA
ENDROOT
BRANCH   4   9
HETATM    9  C   UNL     1     -43.084 -51.957  15.015  1.00  0.00     0.272 C 
HETATM   10  O   UNL     1     -42.897 -50.880  15.579  1.00  0.00    -0.266 OA
HETATM   11  N   UNL     1     -44.327 -52.287  14.469  1.00  0.00    -0.332 N 
HETATM   12  C   UNL     1     -45.374 -51.271  14.432  1.00  0.00     0.127 C 
HETATM   13  C   UNL     1     -44.700 -53.431  13.620  1.00  0.00     0.185 C 
HETATM   14  C   UNL     1     -46.309 -51.673  13.297  1.00  0.00     0.022 C 
HETATM   15  C   UNL     1     -45.576 -52.785  12.555  1.00  0.00     0.038 C 
BRANCH  13  16
HETATM   16  C   UNL     1     -45.461 -54.514  14.401  1.00  0.00     0.163 C 
HETATM   17  O   UNL     1     -45.576 -54.531  15.618  1.00  0.00    -0.648 OA
BRANCH  16  18
HETATM   18  O   UNL     1     -46.004 -55.472  13.610  1.00  0.00    -0.775 OA
HETATM   19  H   UNL     1     -46.794 -55.129  13.148  1.00  0.00     0.167 HD
ENDBRANCH  16  18
ENDBRANCH  13  16
ENDBRANCH   4   9
BRANCH   1  20
HETATM   20  C   UNL     1     -40.374 -55.410  17.114  1.00  0.00     0.178 C 
BRANCH  20  21
HETATM   21  C   UNL     1     -41.016 -56.795  16.999  1.00  0.00     0.189 C 
BRANCH  21  22
HETATM   22  O   UNL     1     -40.008 -57.805  16.902  1.00  0.00    -0.394 OA
HETATM   23  C   UNL     1     -38.915 -57.539  17.770  1.00  0.00     0.201 C 
ENDBRANCH  21  22
ENDBRANCH  20  21
ENDBRANCH   1  20
TORSDOF 6
ENDMDL
MODEL 6
REMARK VINA RESULT:      -4.9      4.284      7.424
REMARK  6 active torsions:
REMARK  status: ('A' for Active; 'I' for Inactive)
REMARK    1  A    between atoms: O_2  and  C_3 
REMARK    2  A    between atoms: C_3  and  C_4 
REMARK    3  A    between atoms: C_4  and  N_5 
REMARK    4  A    between atoms: C_8  and  C_13 
REMARK       I    between atoms: C_13  and  N_15 
REMARK    5  A    between atoms: C_19  and  C_20 
REMARK    6  A    between atoms: C_20  and  O_22 
ROOT
HETATM    1  N   UNL     1     -43.000 -47.033  10.354  1.00  0.00    -0.255 N 
HETATM    2  N   UNL     1     -43.273 -48.142  11.131  1.00  0.00    -0.290 N 
ATOM      3  HN  UNL     1     -44.098 -48.716  10.956  1.00  0.00     0.187 HD
HETATM    4  C   UNL     1     -42.449 -48.434  12.088  1.00  0.00     0.116 A 
HETATM    5  C   UNL     1     -41.236 -47.651  12.403  1.00  0.00     0.042 A 
HETATM    6  C   UNL     1     -40.977 -46.599  11.628  1.00  0.00     0.078 A 
HETATM    7  C   UNL     1     -41.871 -46.234  10.506  1.00  0.00     0.262 A 
HETATM    8  O   UNL     1     -41.559 -45.289   9.791  1.00  0.00    -0.267 OA
ENDROOT
BRANCH   4   9
HETATM    9  C   UNL     1     -42.712 -49.641  12.990  1.00  0.00     0.272 C 
HETATM   10  O   UNL     1     -43.652 -49.560  13.780  1.00  0.00    -0.266 OA
HETATM   11  N   UNL     1     -41.886 -50.766  12.953  1.00  0.00    -0.332 N 
HETATM   12  C   UNL     1     -42.241 -51.930  13.759  1.00  0.00     0.127 C 
HETATM   13  C   UNL     1     -40.835 -51.122  11.985  1.00  0.00     0.185 C 
HETATM   14  C   UNL     1     -41.586 -53.127  13.080  1.00  0.00     0.022 C 
HETATM   15  C   UNL     1     -41.098 -52.601  11.734  1.00  0.00     0.038 C 
BRANCH  13  16
HETATM   16  C   UNL     1     -39.423 -50.882  12.541  1.00  0.00     0.163 C 
HETATM   17  O   UNL     1     -39.189 -50.420  13.649  1.00  0.00    -0.648 OA
BRANCH  16  18
HETATM   18  O   UNL     1     -38.434 -51.231  11.681  1.00  0.00    -0.775 OA
HETATM   19  H   UNL     1     -38.786 -51.799  10.965  1.00  0.00     0.167 HD
ENDBRANCH  16  18
ENDBRANCH  13  16
ENDBRANCH   4   9
BRANCH   1  20
HETATM   20  C   UNL     1     -43.971 -46.726   9.304  1.00  0.00     0.178 C 
BRANCH  20  21
HETATM   21  C   UNL     1     -44.022 -47.794   8.209  1.00  0.00     0.189 C 
BRANCH  21  22
HETATM   22  O   UNL     1     -45.357 -48.285   8.054  1.00  0.00    -0.394 OA
HETATM   23  C   UNL     1     -46.247 -47.685   8.985  1.00  0.00     0.201 C 
ENDBRANCH  21  22
ENDBRANCH  20  21
ENDBRANCH   1  20
TORSDOF 6
ENDMDL
MODEL 7
REMARK VINA RESULT:      -4.8      3.430      5.775
REMARK  6 active torsions:
REMARK  status: ('A' for Active; 'I' for Inactive)
REMARK    1  A    between atoms: O_2  and  C_3 
REMARK    2  A    between atoms: C_3  and  C_4 
REMARK    3  A    between atoms: C_4  and  N_5 
REMARK    4  A    between atoms: C_8  and  C_13 
REMARK       I    between atoms: C_13  and  N_15 
REMARK    5  A    between atoms: C_19  and  C_20 
REMARK    6  A    between atoms: C_20  and  O_22 
ROOT
HETATM    1  N   UNL     1     -41.197 -48.772  11.066  1.00  0.00    -0.255 N 
HETATM    2  N   UNL     1     -41.586 -50.074  11.318  1.00  0.00    -0.290 N 
ATOM      3  HN  UNL     1     -42.388 -50.484  10.839  1.00  0.00     0.187 HD
HETATM    4  C   UNL     1     -40.902 -50.759  12.179  1.00  0.00     0.116 A 
HETATM    5  C   UNL     1     -39.733 -50.234  12.914  1.00  0.00     0.042 A 
HETATM    6  C   UNL     1     -39.358 -48.985  12.640  1.00  0.00     0.078 A 
HETATM    7  C   UNL     1     -40.088 -48.165  11.648  1.00  0.00     0.262 A 
HETATM    8  O   UNL     1     -39.671 -47.041  11.394  1.00  0.00    -0.267 OA
ENDROOT
BRANCH   4   9
HETATM    9  C   UNL     1     -41.300 -52.199  12.509  1.00  0.00     0.272 C 
HETATM   10  O   UNL     1     -40.692 -53.099  11.931  1.00  0.00    -0.266 OA
HETATM   11  N   UNL     1     -42.346 -52.477  13.391  1.00  0.00    -0.332 N 
HETATM   12  C   UNL     1     -42.617 -53.865  13.751  1.00  0.00     0.127 C 
HETATM   13  C   UNL     1     -43.071 -51.568  14.295  1.00  0.00     0.185 C 
HETATM   14  C   UNL     1     -43.317 -53.819  15.105  1.00  0.00     0.022 C 
HETATM   15  C   UNL     1     -43.164 -52.379  15.582  1.00  0.00     0.038 C 
BRANCH  13  16
HETATM   16  C   UNL     1     -44.462 -51.197  13.757  1.00  0.00     0.163 C 
HETATM   17  O   UNL     1     -45.506 -51.381  14.364  1.00  0.00    -0.648 OA
BRANCH  16  18
HETATM   18  O   UNL     1     -44.433 -50.636  12.522  1.00  0.00    -0.775 OA
HETATM   19  H   UNL     1     -43.584 -50.829  12.076  1.00  0.00     0.167 HD
ENDBRANCH  16  18
ENDBRANCH  13  16
ENDBRANCH   4   9
BRANCH   1  20
HETATM   20  C   UNL     1     -42.014 -48.028  10.109  1.00  0.00     0.178 C 
BRANCH  20  21
HETATM   21  C   UNL     1     -43.141 -47.236  10.776  1.00  0.00     0.189 C 
BRANCH  21  22
HETATM   22  O   UNL     1     -43.229 -45.924  10.213  1.00  0.00    -0.394 OA
HETATM   23  C   UNL     1     -43.809 -45.948   8.916  1.00  0.00     0.201 C 
ENDBRANCH  21  22
ENDBRANCH  20  21
ENDBRANCH   1  20
TORSDOF 6
ENDMDL
MODEL 8
REMARK VINA RESULT:      -4.8      2.795      4.270
REMARK  6 active torsions:
REMARK  status: ('A' for Active; 'I' for Inactive)
REMARK    1  A    between atoms: O_2  and  C_3 
REMARK    2  A    between atoms: C_3  and  C_4 
REMARK    3  A    between atoms: C_4  and  N_5 
REMARK    4  A    between atoms: C_8  and  C_13 
REMARK       I    between atoms: C_13  and  N_15 
REMARK    5  A    between atoms: C_19  and  C_20 
REMARK    6  A    between atoms: C_20  and  O_22 
ROOT
HETATM    1  N   UNL     1     -40.459 -50.009  12.686  1.00  0.00    -0.255 N 
HETATM    2  N   UNL     1     -41.647 -49.926  13.384  1.00  0.00    -0.290 N 
ATOM      3  HN  UNL     1     -42.296 -49.155  13.227  1.00  0.00     0.187 HD
HETATM    4  C   UNL     1     -41.915 -50.857  14.246  1.00  0.00     0.116 A 
HETATM    5  C   UNL     1     -41.025 -52.001  14.531  1.00  0.00     0.042 A 
HETATM    6  C   UNL     1     -39.895 -52.078  13.830  1.00  0.00     0.078 A 
HETATM    7  C   UNL     1     -39.551 -51.055  12.817  1.00  0.00     0.262 A 
HETATM    8  O   UNL     1     -38.524 -51.201  12.162  1.00  0.00    -0.267 OA
ENDROOT
BRANCH   4   9
HETATM    9  C   UNL     1     -43.209 -50.804  15.060  1.00  0.00     0.272 C 
HETATM   10  O   UNL     1     -43.164 -50.243  16.154  1.00  0.00    -0.266 OA
HETATM   11  N   UNL     1     -44.378 -51.414  14.601  1.00  0.00    -0.332 N 
HETATM   12  C   UNL     1     -45.610 -51.246  15.366  1.00  0.00     0.127 C 
HETATM   13  C   UNL     1     -44.679 -51.977  13.274  1.00  0.00     0.185 C 
HETATM   14  C   UNL     1     -46.751 -51.451  14.376  1.00  0.00     0.022 C 
HETATM   15  C   UNL     1     -46.087 -51.463  13.004  1.00  0.00     0.038 C 
BRANCH  13  16
HETATM   16  C   UNL     1     -44.624 -53.513  13.266  1.00  0.00     0.163 C 
HETATM   17  O   UNL     1     -43.684 -54.170  13.689  1.00  0.00    -0.648 OA
BRANCH  16  18
HETATM   18  O   UNL     1     -45.730 -54.092  12.735  1.00  0.00    -0.775 OA
HETATM   19  H   UNL     1     -46.501 -53.964  13.323  1.00  0.00     0.167 HD
ENDBRANCH  16  18
ENDBRANCH  13  16
ENDBRANCH   4   9
BRANCH   1  20
HETATM   20  C   UNL     1     -40.185 -48.923  11.745  1.00  0.00     0.178 C 
BRANCH  20  21
HETATM   21  C   UNL     1     -41.382 -48.597  10.848  1.00  0.00     0.189 C 
BRANCH  21  22
HETATM   22  O   UNL     1     -42.329 -47.792  11.556  1.00  0.00    -0.394 OA
HETATM   23  C   UNL     1     -43.526 -47.614  10.811  1.00  0.00     0.201 C 
ENDBRANCH  21  22
ENDBRANCH  20  21
ENDBRANCH   1  20
TORSDOF 6
ENDMDL
MODEL 9
REMARK VINA RESULT:      -4.7      2.044      2.756
REMARK  6 active torsions:
REMARK  status: ('A' for Active; 'I' for Inactive)
REMARK    1  A    between atoms: O_2  and  C_3 
REMARK    2  A    between atoms: C_3  and  C_4 
REMARK    3  A    between atoms: C_4  and  N_5 
REMARK    4  A    between atoms: C_8  and  C_13 
REMARK       I    between atoms: C_13  and  N_15 
REMARK    5  A    between atoms: C_19  and  C_20 
REMARK    6  A    between atoms: C_20  and  O_22 
ROOT
HETATM    1  N   UNL     1     -40.748 -52.354  12.994  1.00  0.00    -0.255 N 
HETATM    2  N   UNL     1     -42.088 -52.037  12.895  1.00  0.00    -0.290 N 
ATOM      3  HN  UNL     1     -42.389 -51.145  12.501  1.00  0.00     0.187 HD
HETATM    4  C   UNL     1     -42.953 -52.905  13.316  1.00  0.00     0.116 A 
HETATM    5  C   UNL     1     -42.595 -54.213  13.901  1.00  0.00     0.042 A 
HETATM    6  C   UNL     1     -41.298 -54.512  13.966  1.00  0.00     0.078 A 
HETATM    7  C   UNL     1     -40.269 -53.567  13.478  1.00  0.00     0.262 A 
HETATM    8  O   UNL     1     -39.093 -53.912  13.512  1.00  0.00    -0.267 OA
ENDROOT
BRANCH   4   9
HETATM    9  C   UNL     1     -44.450 -52.598  13.247  1.00  0.00     0.272 C 
HETATM   10  O   UNL     1     -45.052 -52.949  12.233  1.00  0.00    -0.266 OA
HETATM   11  N   UNL     1     -45.094 -51.900  14.272  1.00  0.00    -0.332 N 
HETATM   12  C   UNL     1     -46.541 -51.724  14.205  1.00  0.00     0.127 C 
HETATM   13  C   UNL     1     -44.602 -51.548  15.614  1.00  0.00     0.185 C 
HETATM   14  C   UNL     1     -47.007 -51.520  15.642  1.00  0.00     0.022 C 
HETATM   15  C   UNL     1     -45.797 -51.867  16.503  1.00  0.00     0.038 C 
BRANCH  13  16
HETATM   16  C   UNL     1     -44.197 -50.069  15.717  1.00  0.00     0.163 C 
HETATM   17  O   UNL     1     -44.446 -49.353  16.676  1.00  0.00    -0.648 OA
BRANCH  16  18
HETATM   18  O   UNL     1     -43.526 -49.613  14.629  1.00  0.00    -0.775 OA
HETATM   19  H   UNL     1     -42.591 -49.431  14.853  1.00  0.00     0.167 HD
ENDBRANCH  16  18
ENDBRANCH  13  16
ENDBRANCH   4   9
BRANCH   1  20
HETATM   20  C   UNL     1     -39.807 -51.334  12.532  1.00  0.00     0.178 C 
BRANCH  20  21
HETATM   21  C   UNL     1     -40.133 -49.937  13.068  1.00  0.00     0.189 C 
BRANCH  21  22
HETATM   22  O   UNL     1     -40.686 -50.026  14.384  1.00  0.00    -0.394 OA
HETATM   23  C   UNL     1     -39.798 -49.503  15.362  1.00  0.00     0.201 C 
ENDBRANCH  21  22
ENDBRANCH  20  21
ENDBRANCH   1  20
TORSDOF 6
ENDMDL
