MODEL 1
REMARK VINA RESULT:      -6.1      0.000      0.000
REMARK  2 active torsions:
REMARK  status: ('A' for Active; 'I' for Inactive)
REMARK    1  A    between atoms: C_2  and  N_6 
REMARK       I    between atoms: N_6  and  C_7 
REMARK       I    between atoms: C_7  and  N_9 
REMARK    2  A    between atoms: N_9  and  C_10 
ROOT
HETATM    1  N   UNL     1     -41.830 -48.227   9.703  1.00  0.00    -0.334 N 
HETATM    2  C   UNL     1     -41.295 -48.731  10.869  1.00  0.00     0.321 C 
HETATM    3  O   UNL     1     -41.526 -48.264  11.978  1.00  0.00    -0.247 OA
HETATM    4  N   UNL     1     -40.524 -49.852  10.637  1.00  0.00    -0.306 N 
HETATM    5  H   UNL     1     -41.310 -48.451   8.865  1.00  0.00     0.165 HD
HETATM    6  H   UNL     1     -40.920 -50.471   9.940  1.00  0.00     0.171 HD
ENDROOT
BRANCH   4   7
HETATM    7  C   UNL     1     -39.849 -50.499  11.704  1.00  0.00     0.077 A 
HETATM    8  C   UNL     1     -40.470 -51.476  12.479  1.00  0.00     0.050 A 
HETATM    9  C   UNL     1     -39.724 -52.098  13.468  1.00  0.00     0.090 A 
HETATM   10  N   UNL     1     -38.424 -51.820  13.718  1.00  0.00    -0.372 N 
HETATM   11  C   UNL     1     -37.851 -50.863  12.951  1.00  0.00     0.132 A 
ATOM     12  HN  UNL     1     -37.901 -52.306  14.447  1.00  0.00     0.164 HD
HETATM   13  C   UNL     1     -38.524 -50.167  11.966  1.00  0.00     0.158 A 
HETATM   14  F   UNL     1     -37.896 -49.236  11.232  1.00  0.00    -0.202 F 
ENDBRANCH   4   7
BRANCH   1  15
HETATM   15  C   UNL     1     -42.799 -47.094   9.681  1.00  0.00     0.031 C 
HETATM   16  C   UNL     1     -42.182 -45.812  10.224  1.00  0.00     0.038 C 
HETATM   17  C   UNL     1     -43.468 -46.904   8.292  1.00  0.00     0.031 C 
HETATM   18  C   UNL     1     -44.700 -47.665   8.801  1.00  0.00     0.005 C 
HETATM   19  C   UNL     1     -44.199 -47.467  10.241  1.00  0.00     0.031 C 
ENDBRANCH   1  15
TORSDOF 2
ENDMDL
MODEL 2
REMARK VINA RESULT:      -5.6      1.924      6.206
REMARK  2 active torsions:
REMARK  status: ('A' for Active; 'I' for Inactive)
REMARK    1  A    between atoms: C_2  and  N_6 
REMARK       I    between atoms: N_6  and  C_7 
REMARK       I    between atoms: C_7  and  N_9 
REMARK    2  A    between atoms: N_9  and  C_10 
ROOT
HETATM    1  N   UNL     1     -40.501 -49.600  10.711  1.00  0.00    -0.334 N 
HETATM    2  C   UNL     1     -41.561 -48.721  10.767  1.00  0.00     0.321 C 
HETATM    3  O   UNL     1     -42.116 -48.394  11.809  1.00  0.00    -0.247 OA
HETATM    4  N   UNL     1     -41.875 -48.217   9.521  1.00  0.00    -0.306 N 
HETATM    5  H   UNL     1     -40.369 -50.051   9.816  1.00  0.00     0.165 HD
HETATM    6  H   UNL     1     -41.058 -48.007   8.958  1.00  0.00     0.171 HD
ENDROOT
BRANCH   4   7
HETATM    7  C   UNL     1     -42.966 -47.325   9.356  1.00  0.00     0.077 A 
HETATM    8  C   UNL     1     -44.241 -47.779   9.022  1.00  0.00     0.050 A 
HETATM    9  C   UNL     1     -45.263 -46.849   8.933  1.00  0.00     0.090 A 
HETATM   10  N   UNL     1     -45.101 -45.525   9.162  1.00  0.00    -0.372 N 
HETATM   11  C   UNL     1     -43.850 -45.116   9.480  1.00  0.00     0.132 A 
ATOM     12  HN  UNL     1     -45.879 -44.869   9.098  1.00  0.00     0.164 HD
HETATM   13  C   UNL     1     -42.763 -45.964   9.559  1.00  0.00     0.158 A 
HETATM   14  F   UNL     1     -41.550 -45.497   9.889  1.00  0.00    -0.202 F 
ENDBRANCH   4   7
BRANCH   1  15
HETATM   15  C   UNL     1     -39.879 -50.195  11.929  1.00  0.00     0.031 C 
HETATM   16  C   UNL     1     -40.626 -51.438  12.394  1.00  0.00     0.038 C 
HETATM   17  C   UNL     1     -38.352 -50.431  11.769  1.00  0.00     0.031 C 
HETATM   18  C   UNL     1     -38.089 -49.127  12.535  1.00  0.00     0.005 C 
HETATM   19  C   UNL     1     -39.545 -49.149  13.027  1.00  0.00     0.031 C 
ENDBRANCH   1  15
TORSDOF 2
ENDMDL
MODEL 3
REMARK VINA RESULT:      -5.5      4.892      6.206
REMARK  2 active torsions:
REMARK  status: ('A' for Active; 'I' for Inactive)
REMARK    1  A    between atoms: C_2  and  N_6 
REMARK       I    between atoms: N_6  and  C_7 
REMARK       I    between atoms: C_7  and  N_9 
REMARK    2  A    between atoms: N_9  and  C_10 
ROOT
HETATM    1  N   UNL     1     -41.967 -51.357  11.842  1.00  0.00    -0.334 N 
HETATM    2  C   UNL     1     -42.808 -51.933  12.770  1.00  0.00     0.321 C 
HETATM    3  O   UNL     1     -42.618 -51.883  13.979  1.00  0.00    -0.247 OA
HETATM    4  N   UNL     1     -43.910 -52.513  12.174  1.00  0.00    -0.306 N 
HETATM    5  H   UNL     1     -42.025 -51.752  10.913  1.00  0.00     0.165 HD
HETATM    6  H   UNL     1     -44.283 -51.965  11.407  1.00  0.00     0.171 HD
ENDROOT
BRANCH   4   7
HETATM    7  C   UNL     1     -44.878 -53.196  12.953  1.00  0.00     0.077 A 
HETATM    8  C   UNL     1     -44.778 -54.561  13.216  1.00  0.00     0.050 A 
HETATM    9  C   UNL     1     -45.735 -55.142  14.031  1.00  0.00     0.090 A 
HETATM   10  N   UNL     1     -46.758 -54.460  14.598  1.00  0.00    -0.372 N 
HETATM   11  C   UNL     1     -46.829 -53.137  14.320  1.00  0.00     0.132 A 
ATOM     12  HN  UNL     1     -47.439 -54.918  15.203  1.00  0.00     0.164 HD
HETATM   13  C   UNL     1     -45.940 -52.479  13.492  1.00  0.00     0.158 A 
HETATM   14  F   UNL     1     -46.060 -51.162  13.264  1.00  0.00    -0.202 F 
ENDBRANCH   4   7
BRANCH   1  15
HETATM   15  C   UNL     1     -40.768 -50.558  12.224  1.00  0.00     0.031 C 
HETATM   16  C   UNL     1     -39.689 -51.426  12.859  1.00  0.00     0.038 C 
HETATM   17  C   UNL     1     -40.232 -49.685  11.056  1.00  0.00     0.031 C 
HETATM   18  C   UNL     1     -40.962 -48.472  11.652  1.00  0.00     0.005 C 
HETATM   19  C   UNL     1     -41.113 -49.243  12.974  1.00  0.00     0.031 C 
ENDBRANCH   1  15
TORSDOF 2
ENDMDL
MODEL 4
REMARK VINA RESULT:      -5.2      3.753      5.742
REMARK  2 active torsions:
REMARK  status: ('A' for Active; 'I' for Inactive)
REMARK    1  A    between atoms: C_2  and  N_6 
REMARK       I    between atoms: N_6  and  C_7 
REMARK       I    between atoms: C_7  and  N_9 
REMARK    2  A    between atoms: N_9  and  C_10 
ROOT
HETATM    1  N   UNL     1     -40.115 -51.374  11.777  1.00  0.00    -0.334 N 
HETATM    2  C   UNL     1     -41.175 -51.755  12.573  1.00  0.00     0.321 C 
HETATM    3  O   UNL     1     -41.615 -51.070  13.487  1.00  0.00    -0.247 OA
HETATM    4  N   UNL     1     -41.707 -52.964  12.174  1.00  0.00    -0.306 N 
HETATM    5  H   UNL     1     -39.633 -52.136  11.318  1.00  0.00     0.165 HD
HETATM    6  H   UNL     1     -41.754 -53.066  11.166  1.00  0.00     0.171 HD
ENDROOT
BRANCH   4   7
HETATM    7  C   UNL     1     -42.781 -53.553  12.890  1.00  0.00     0.077 A 
HETATM    8  C   UNL     1     -44.107 -53.383  12.494  1.00  0.00     0.050 A 
HETATM    9  C   UNL     1     -45.093 -54.036  13.216  1.00  0.00     0.090 A 
HETATM   10  N   UNL     1     -44.844 -54.838  14.277  1.00  0.00    -0.372 N 
HETATM   11  C   UNL     1     -43.547 -54.978  14.638  1.00  0.00     0.132 A 
ATOM     12  HN  UNL     1     -45.595 -55.313  14.779  1.00  0.00     0.164 HD
HETATM   13  C   UNL     1     -42.502 -54.341  14.000  1.00  0.00     0.158 A 
HETATM   14  F   UNL     1     -41.235 -54.530  14.401  1.00  0.00    -0.202 F 
ENDBRANCH   4   7
BRANCH   1  15
HETATM   15  C   UNL     1     -39.436 -50.054  11.912  1.00  0.00     0.031 C 
HETATM   16  C   UNL     1     -40.319 -48.912  11.424  1.00  0.00     0.038 C 
HETATM   17  C   UNL     1     -38.868 -49.814  13.337  1.00  0.00     0.031 C 
HETATM   18  C   UNL     1     -37.479 -50.234  12.835  1.00  0.00     0.005 C 
HETATM   19  C   UNL     1     -37.973 -50.054  11.390  1.00  0.00     0.031 C 
ENDBRANCH   1  15
TORSDOF 2
ENDMDL
MODEL 5
REMARK VINA RESULT:      -5.1      2.082      5.739
REMARK  2 active torsions:
REMARK  status: ('A' for Active; 'I' for Inactive)
REMARK    1  A    between atoms: C_2  and  N_6 
REMARK       I    between atoms: N_6  and  C_7 
REMARK       I    between atoms: C_7  and  N_9 
REMARK    2  A    between atoms: N_9  and  C_10 
ROOT
HETATM    1  N   UNL     1     -41.209 -51.723  11.681  1.00  0.00    -0.334 N 
HETATM    2  C   UNL     1     -41.542 -50.388  11.762  1.00  0.00     0.321 C 
HETATM    3  O   UNL     1     -42.253 -49.919  12.642  1.00  0.00    -0.247 OA
HETATM    4  N   UNL     1     -40.930 -49.646  10.771  1.00  0.00    -0.306 N 
HETATM    5  H   UNL     1     -40.933 -52.038  10.760  1.00  0.00     0.165 HD
HETATM    6  H   UNL     1     -39.974 -49.931  10.592  1.00  0.00     0.171 HD
ENDROOT
BRANCH   4   7
HETATM    7  C   UNL     1     -41.177 -48.254  10.654  1.00  0.00     0.077 A 
HETATM    8  C   UNL     1     -42.305 -47.761  10.001  1.00  0.00     0.050 A 
HETATM    9  C   UNL     1     -42.500 -46.390   9.978  1.00  0.00     0.090 A 
HETATM   10  N   UNL     1     -41.665 -45.500  10.562  1.00  0.00    -0.372 N 
HETATM   11  C   UNL     1     -40.577 -46.010  11.185  1.00  0.00     0.132 A 
ATOM     12  HN  UNL     1     -41.846 -44.496  10.535  1.00  0.00     0.164 HD
HETATM   13  C   UNL     1     -40.283 -47.359  11.230  1.00  0.00     0.158 A 
HETATM   14  F   UNL     1     -39.192 -47.803  11.873  1.00  0.00    -0.202 F 
ENDBRANCH   4   7
BRANCH   1  15
HETATM   15  C   UNL     1     -41.633 -52.725  12.700  1.00  0.00     0.031 C 
HETATM   16  C   UNL     1     -43.123 -53.026  12.611  1.00  0.00     0.038 C 
HETATM   17  C   UNL     1     -40.755 -54.007  12.684  1.00  0.00     0.031 C 
HETATM   18  C   UNL     1     -39.957 -53.454  13.874  1.00  0.00     0.005 C 
HETATM   19  C   UNL     1     -41.080 -52.434  14.122  1.00  0.00     0.031 C 
ENDBRANCH   1  15
TORSDOF 2
ENDMDL
MODEL 6
REMARK VINA RESULT:      -5.1      5.396      6.240
REMARK  2 active torsions:
REMARK  status: ('A' for Active; 'I' for Inactive)
REMARK    1  A    between atoms: C_2  and  N_6 
REMARK       I    between atoms: N_6  and  C_7 
REMARK       I    between atoms: C_7  and  N_9 
REMARK    2  A    between atoms: N_9  and  C_10 
ROOT
HETATM    1  N   UNL     1     -44.442 -52.718  14.865  1.00  0.00    -0.334 N 
HETATM    2  C   UNL     1     -43.357 -53.543  14.660  1.00  0.00     0.321 C 
HETATM    3  O   UNL     1     -43.402 -54.570  13.995  1.00  0.00    -0.247 OA
HETATM    4  N   UNL     1     -42.212 -53.039  15.245  1.00  0.00    -0.306 N 
HETATM    5  H   UNL     1     -44.380 -52.129  15.684  1.00  0.00     0.165 HD
HETATM    6  H   UNL     1     -42.124 -52.034  15.146  1.00  0.00     0.171 HD
ENDROOT
BRANCH   4   7
HETATM    7  C   UNL     1     -40.992 -53.760  15.185  1.00  0.00     0.077 A 
HETATM    8  C   UNL     1     -40.655 -54.712  16.145  1.00  0.00     0.050 A 
HETATM    9  C   UNL     1     -39.470 -55.411  15.984  1.00  0.00     0.090 A 
HETATM   10  N   UNL     1     -38.624 -55.233  14.942  1.00  0.00    -0.372 N 
HETATM   11  C   UNL     1     -38.979 -54.299  14.029  1.00  0.00     0.132 A 
ATOM     12  HN  UNL     1     -37.765 -55.775  14.849  1.00  0.00     0.164 HD
HETATM   13  C   UNL     1     -40.123 -53.531  14.124  1.00  0.00     0.158 A 
HETATM   14  F   UNL     1     -40.423 -52.627  13.179  1.00  0.00    -0.202 F 
ENDBRANCH   4   7
BRANCH   1  15
HETATM   15  C   UNL     1     -45.773 -52.963  14.239  1.00  0.00     0.031 C 
HETATM   16  C   UNL     1     -46.448 -54.201  14.814  1.00  0.00     0.038 C 
HETATM   17  C   UNL     1     -46.688 -51.708  14.265  1.00  0.00     0.031 C 
HETATM   18  C   UNL     1     -46.298 -51.416  12.808  1.00  0.00     0.005 C 
HETATM   19  C   UNL     1     -45.759 -52.851  12.691  1.00  0.00     0.031 C 
ENDBRANCH   1  15
TORSDOF 2
ENDMDL
MODEL 7
REMARK VINA RESULT:      -5.0      3.126      3.826
REMARK  2 active torsions:
REMARK  status: ('A' for Active; 'I' for Inactive)
REMARK    1  A    between atoms: C_2  and  N_6 
REMARK       I    between atoms: N_6  and  C_7 
REMARK       I    between atoms: C_7  and  N_9 
REMARK    2  A    between atoms: N_9  and  C_10 
ROOT
HETATM    1  N   UNL     1     -41.698 -49.678  11.074  1.00  0.00    -0.334 N 
HETATM    2  C   UNL     1     -41.916 -50.516  12.146  1.00  0.00     0.321 C 
HETATM    3  O   UNL     1     -42.151 -50.119  13.280  1.00  0.00    -0.247 OA
HETATM    4  N   UNL     1     -41.896 -51.845  11.770  1.00  0.00    -0.306 N 
HETATM    5  H   UNL     1     -41.182 -50.092  10.308  1.00  0.00     0.165 HD
HETATM    6  H   UNL     1     -42.350 -52.014  10.880  1.00  0.00     0.171 HD
ENDROOT
BRANCH   4   7
HETATM    7  C   UNL     1     -42.059 -52.871  12.736  1.00  0.00     0.077 A 
HETATM    8  C   UNL     1     -41.004 -53.294  13.542  1.00  0.00     0.050 A 
HETATM    9  C   UNL     1     -41.260 -54.264  14.498  1.00  0.00     0.090 A 
HETATM   10  N   UNL     1     -42.478 -54.818  14.703  1.00  0.00    -0.372 N 
HETATM   11  C   UNL     1     -43.480 -54.388  13.901  1.00  0.00     0.132 A 
ATOM     12  HN  UNL     1     -42.633 -55.522  15.424  1.00  0.00     0.164 HD
HETATM   13  C   UNL     1     -43.312 -53.452  12.900  1.00  0.00     0.158 A 
HETATM   14  F   UNL     1     -44.350 -53.060  12.145  1.00  0.00    -0.202 F 
ENDBRANCH   4   7
BRANCH   1  15
HETATM   15  C   UNL     1     -41.789 -48.193  11.177  1.00  0.00     0.031 C 
HETATM   16  C   UNL     1     -40.477 -47.579  11.647  1.00  0.00     0.038 C 
HETATM   17  C   UNL     1     -42.336 -47.534   9.881  1.00  0.00     0.031 C 
HETATM   18  C   UNL     1     -43.724 -47.449  10.532  1.00  0.00     0.005 C 
HETATM   19  C   UNL     1     -43.071 -47.701  11.901  1.00  0.00     0.031 C 
ENDBRANCH   1  15
TORSDOF 2
ENDMDL
MODEL 8
REMARK VINA RESULT:      -5.0      3.304      5.562
REMARK  2 active torsions:
REMARK  status: ('A' for Active; 'I' for Inactive)
REMARK    1  A    between atoms: C_2  and  N_6 
REMARK       I    between atoms: N_6  and  C_7 
REMARK       I    between atoms: C_7  and  N_9 
REMARK    2  A    between atoms: N_9  and  C_10 
ROOT
HETATM    1  N   UNL     1     -43.025 -51.161  12.511  1.00  0.00    -0.334 N 
HETATM    2  C   UNL     1     -42.750 -49.814  12.400  1.00  0.00     0.321 C 
HETATM    3  O   UNL     1     -43.125 -48.977  13.210  1.00  0.00    -0.247 OA
HETATM    4  N   UNL     1     -41.955 -49.543  11.304  1.00  0.00    -0.306 N 
HETATM    5  H   UNL     1     -42.980 -51.677  11.642  1.00  0.00     0.165 HD
HETATM    6  H   UNL     1     -41.228 -50.233  11.157  1.00  0.00     0.171 HD
ENDROOT
BRANCH   4   7
HETATM    7  C   UNL     1     -41.591 -48.208  10.988  1.00  0.00     0.077 A 
HETATM    8  C   UNL     1     -40.367 -47.670  11.379  1.00  0.00     0.050 A 
HETATM    9  C   UNL     1     -40.065 -46.377  10.984  1.00  0.00     0.090 A 
HETATM   10  N   UNL     1     -40.886 -45.608  10.230  1.00  0.00    -0.372 N 
HETATM   11  C   UNL     1     -42.069 -46.159   9.871  1.00  0.00     0.132 A 
ATOM     12  HN  UNL     1     -40.626 -44.663   9.947  1.00  0.00     0.164 HD
HETATM   13  C   UNL     1     -42.469 -47.426  10.245  1.00  0.00     0.158 A 
HETATM   14  F   UNL     1     -43.652 -47.919   9.847  1.00  0.00    -0.202 F 
ENDBRANCH   4   7
BRANCH   1  15
HETATM   15  C   UNL     1     -43.760 -51.742  13.671  1.00  0.00     0.031 C 
HETATM   16  C   UNL     1     -42.962 -51.621  14.963  1.00  0.00     0.038 C 
HETATM   17  C   UNL     1     -45.208 -51.195  13.799  1.00  0.00     0.031 C 
HETATM   18  C   UNL     1     -45.729 -52.464  13.109  1.00  0.00     0.005 C 
HETATM   19  C   UNL     1     -44.374 -53.138  13.377  1.00  0.00     0.031 C 
ENDBRANCH   1  15
TORSDOF 2
ENDMDL
MODEL 9
REMARK VINA RESULT:      -4.7      2.125      6.185
REMARK  2 active torsions:
REMARK  status: ('A' for Active; 'I' for Inactive)
REMARK    1  A    between atoms: C_2  and  N_6 
REMARK       I    between atoms: N_6  and  C_7 
REMARK       I    between atoms: C_7  and  N_9 
REMARK    2  A    between atoms: N_9  and  C_10 
ROOT
HETATM    1  N   UNL     1     -38.700 -49.019  12.263  1.00  0.00    -0.334 N 
HETATM    2  C   UNL     1     -39.882 -48.314  12.189  1.00  0.00     0.321 C 
HETATM    3  O   UNL     1     -40.608 -48.105  13.152  1.00  0.00    -0.247 OA
HETATM    4  N   UNL     1     -40.110 -47.829  10.916  1.00  0.00    -0.306 N 
HETATM    5  H   UNL     1     -38.388 -49.419  11.388  1.00  0.00     0.165 HD
HETATM    6  H   UNL     1     -39.271 -47.481  10.466  1.00  0.00     0.171 HD
ENDROOT
BRANCH   4   7
HETATM    7  C   UNL     1     -41.296 -47.109  10.619  1.00  0.00     0.077 A 
HETATM    8  C   UNL     1     -42.441 -47.747  10.144  1.00  0.00     0.050 A 
HETATM    9  C   UNL     1     -43.574 -46.980   9.930  1.00  0.00     0.090 A 
HETATM   10  N   UNL     1     -43.640 -45.648  10.166  1.00  0.00    -0.372 N 
HETATM   11  C   UNL     1     -42.511 -45.060  10.623  1.00  0.00     0.132 A 
ATOM     12  HN  UNL     1     -44.496 -45.117  10.008  1.00  0.00     0.164 HD
HETATM   13  C   UNL     1     -41.325 -45.736  10.834  1.00  0.00     0.158 A 
HETATM   14  F   UNL     1     -40.242 -45.095  11.299  1.00  0.00    -0.202 F 
ENDBRANCH   4   7
BRANCH   1  15
HETATM   15  C   UNL     1     -38.152 -49.547  13.545  1.00  0.00     0.031 C 
HETATM   16  C   UNL     1     -37.516 -48.446  14.383  1.00  0.00     0.038 C 
HETATM   17  C   UNL     1     -39.189 -50.390  14.338  1.00  0.00     0.031 C 
HETATM   18  C   UNL     1     -38.544 -51.669  13.786  1.00  0.00     0.005 C 
HETATM   19  C   UNL     1     -37.314 -50.843  13.373  1.00  0.00     0.031 C 
ENDBRANCH   1  15
TORSDOF 2
ENDMDL
