MODEL 1
REMARK VINA RESULT:      -6.6      0.000      0.000
REMARK  5 active torsions:
REMARK  status: ('A' for Active; 'I' for Inactive)
REMARK    1  A    between atoms: C_2  and  N_3 
REMARK    2  A    between atoms: C_7  and  C_8 
REMARK    3  A    between atoms: C_8  and  N_9 
REMARK    4  A    between atoms: N_9  and  C_10 
REMARK    5  A    between atoms: C_15  and  C_18 
ROOT
HETATM    1  C   UNL     1     -42.829 -47.538   9.511  1.00  0.00     0.157 A 
HETATM    2  N   UNL     1     -42.682 -46.216   9.368  1.00  0.00    -0.343 N 
ATOM      3  HN  UNL     1     -41.775 -45.766   9.492  1.00  0.00     0.167 HD
HETATM    4  C   UNL     1     -43.779 -45.506   9.055  1.00  0.00     0.093 A 
HETATM    5  C   UNL     1     -45.020 -46.067   8.885  1.00  0.00     0.051 A 
HETATM    6  C   UNL     1     -45.097 -47.435   9.068  1.00  0.00     0.120 A 
HETATM    7  N   UNL     1     -44.000 -48.172   9.387  1.00  0.00    -0.329 N 
ATOM      8  HN  UNL     1     -44.069 -49.180   9.528  1.00  0.00     0.168 HD
ENDROOT
BRANCH   1   9
HETATM    9  N   UNL     1     -41.739 -48.345   9.746  1.00  0.00    -0.262 NA
HETATM   10  H   UNL     1     -41.928 -49.262   9.352  1.00  0.00     0.130 HD
BRANCH   9  11
HETATM   11  C   UNL     1     -41.213 -48.386  11.104  1.00  0.00     0.129 C 
BRANCH  11  12
HETATM   12  C   UNL     1     -41.609 -49.735  11.733  1.00  0.00     0.163 C 
HETATM   13  O   UNL     1     -42.726 -49.513  12.626  1.00  0.00    -0.381 OA
HETATM   14  C   UNL     1     -43.148 -50.751  13.210  1.00  0.00     0.198 C 
HETATM   15  C   UNL     1     -41.999 -51.422  13.986  1.00  0.00     0.298 C 
HETATM   16  N   UNL     1     -40.767 -51.634  13.186  1.00  0.00     0.092 N 
HETATM   17  C   UNL     1     -40.432 -50.356  12.512  1.00  0.00     0.305 C 
BRANCH  16  18
HETATM   18  C   UNL     1     -40.926 -52.778  12.278  1.00  0.00     0.268 C 
HETATM   19  C   UNL     1     -41.132 -54.112  12.989  1.00  0.00     0.037 C 
ENDBRANCH  16  18
ENDBRANCH  11  12
ENDBRANCH   9  11
ENDBRANCH   1   9
BRANCH   6  20
HETATM   20  C   UNL     1     -46.425 -48.150   8.899  1.00  0.00     0.432 C 
HETATM   21  F   UNL     1     -46.567 -48.739   7.672  1.00  0.00    -0.165 F 
HETATM   22  F   UNL     1     -46.614 -49.154   9.802  1.00  0.00    -0.165 F 
HETATM   23  F   UNL     1     -47.500 -47.320   9.025  1.00  0.00    -0.165 F 
ENDBRANCH   6  20
TORSDOF 5
ENDMDL
MODEL 2
REMARK VINA RESULT:      -6.5      2.007      2.893
REMARK  5 active torsions:
REMARK  status: ('A' for Active; 'I' for Inactive)
REMARK    1  A    between atoms: C_2  and  N_3 
REMARK    2  A    between atoms: C_7  and  C_8 
REMARK    3  A    between atoms: C_8  and  N_9 
REMARK    4  A    between atoms: N_9  and  C_10 
REMARK    5  A    between atoms: C_15  and  C_18 
ROOT
HETATM    1  C   UNL     1     -41.079 -48.633  10.616  1.00  0.00     0.157 A 
HETATM    2  N   UNL     1     -40.368 -47.564  10.993  1.00  0.00    -0.343 N 
ATOM      3  HN  UNL     1     -39.452 -47.662  11.432  1.00  0.00     0.167 HD
HETATM    4  C   UNL     1     -40.912 -46.356  10.770  1.00  0.00     0.093 A 
HETATM    5  C   UNL     1     -42.143 -46.175  10.189  1.00  0.00     0.051 A 
HETATM    6  C   UNL     1     -42.824 -47.328   9.844  1.00  0.00     0.120 A 
HETATM    7  N   UNL     1     -42.294 -48.560  10.063  1.00  0.00    -0.329 N 
ATOM      8  HN  UNL     1     -42.809 -49.404   9.813  1.00  0.00     0.168 HD
ENDROOT
BRANCH   1   9
HETATM    9  N   UNL     1     -40.554 -49.901  10.732  1.00  0.00    -0.262 NA
HETATM   10  H   UNL     1     -41.320 -50.569  10.700  1.00  0.00     0.130 HD
BRANCH   9  11
HETATM   11  C   UNL     1     -39.611 -50.142  11.815  1.00  0.00     0.129 C 
BRANCH  11  12
HETATM   12  C   UNL     1     -40.154 -51.292  12.683  1.00  0.00     0.163 C 
HETATM   13  O   UNL     1     -39.038 -52.099  13.125  1.00  0.00    -0.381 OA
HETATM   14  C   UNL     1     -39.497 -53.164  13.964  1.00  0.00     0.198 C 
HETATM   15  C   UNL     1     -40.513 -54.057  13.227  1.00  0.00     0.298 C 
HETATM   16  N   UNL     1     -41.672 -53.322  12.661  1.00  0.00     0.092 N 
HETATM   17  C   UNL     1     -41.151 -52.164  11.894  1.00  0.00     0.305 C 
BRANCH  16  18
HETATM   18  C   UNL     1     -42.631 -52.971  13.718  1.00  0.00     0.268 C 
HETATM   19  C   UNL     1     -43.273 -54.175  14.400  1.00  0.00     0.037 C 
ENDBRANCH  16  18
ENDBRANCH  11  12
ENDBRANCH   9  11
ENDBRANCH   1   9
BRANCH   6  20
HETATM   20  C   UNL     1     -44.193 -47.234   9.193  1.00  0.00     0.432 C 
HETATM   21  F   UNL     1     -44.499 -45.970   8.768  1.00  0.00    -0.165 F 
HETATM   22  F   UNL     1     -44.319 -48.025   8.090  1.00  0.00    -0.165 F 
HETATM   23  F   UNL     1     -45.210 -47.587  10.031  1.00  0.00    -0.165 F 
ENDBRANCH   6  20
TORSDOF 5
ENDMDL
MODEL 3
REMARK VINA RESULT:      -6.4      5.121      6.562
REMARK  5 active torsions:
REMARK  status: ('A' for Active; 'I' for Inactive)
REMARK    1  A    between atoms: C_2  and  N_3 
REMARK    2  A    between atoms: C_7  and  C_8 
REMARK    3  A    between atoms: C_8  and  N_9 
REMARK    4  A    between atoms: N_9  and  C_10 
REMARK    5  A    between atoms: C_15  and  C_18 
ROOT
HETATM    1  C   UNL     1     -41.040 -51.292  11.606  1.00  0.00     0.157 A 
HETATM    2  N   UNL     1     -41.877 -50.248  11.659  1.00  0.00    -0.343 N 
ATOM      3  HN  UNL     1     -42.884 -50.368  11.555  1.00  0.00     0.167 HD
HETATM    4  C   UNL     1     -41.333 -49.035  11.855  1.00  0.00     0.093 A 
HETATM    5  C   UNL     1     -39.984 -48.824  11.994  1.00  0.00     0.051 A 
HETATM    6  C   UNL     1     -39.183 -49.948  11.909  1.00  0.00     0.120 A 
HETATM    7  N   UNL     1     -39.712 -51.184  11.709  1.00  0.00    -0.329 N 
ATOM      8  HN  UNL     1     -39.111 -52.006  11.640  1.00  0.00     0.168 HD
ENDROOT
BRANCH   1   9
HETATM    9  N   UNL     1     -41.526 -52.575  11.495  1.00  0.00    -0.262 NA
HETATM   10  H   UNL     1     -42.478 -52.528  11.141  1.00  0.00     0.130 HD
BRANCH   9  11
HETATM   11  C   UNL     1     -41.370 -53.455  12.645  1.00  0.00     0.129 C 
BRANCH  11  12
HETATM   12  C   UNL     1     -42.719 -53.527  13.384  1.00  0.00     0.163 C 
HETATM   13  O   UNL     1     -42.703 -54.685  14.253  1.00  0.00    -0.381 OA
HETATM   14  C   UNL     1     -43.931 -54.771  14.985  1.00  0.00     0.198 C 
HETATM   15  C   UNL     1     -45.142 -54.859  14.038  1.00  0.00     0.298 C 
HETATM   16  N   UNL     1     -45.220 -53.757  13.047  1.00  0.00     0.092 N 
HETATM   17  C   UNL     1     -43.895 -53.632  12.393  1.00  0.00     0.305 C 
BRANCH  16  18
HETATM   18  C   UNL     1     -45.707 -52.522  13.679  1.00  0.00     0.268 C 
HETATM   19  C   UNL     1     -46.456 -51.592  12.729  1.00  0.00     0.037 C 
ENDBRANCH  16  18
ENDBRANCH  11  12
ENDBRANCH   9  11
ENDBRANCH   1   9
BRANCH   6  20
HETATM   20  C   UNL     1     -37.677 -49.819  12.053  1.00  0.00     0.432 C 
HETATM   21  F   UNL     1     -37.045 -49.553  10.869  1.00  0.00    -0.165 F 
HETATM   22  F   UNL     1     -37.301 -48.815  12.894  1.00  0.00    -0.165 F 
HETATM   23  F   UNL     1     -37.086 -50.953  12.529  1.00  0.00    -0.165 F 
ENDBRANCH   6  20
TORSDOF 5
ENDMDL
MODEL 4
REMARK VINA RESULT:      -6.2      1.459      2.200
REMARK  5 active torsions:
REMARK  status: ('A' for Active; 'I' for Inactive)
REMARK    1  A    between atoms: C_2  and  N_3 
REMARK    2  A    between atoms: C_7  and  C_8 
REMARK    3  A    between atoms: C_8  and  N_9 
REMARK    4  A    between atoms: N_9  and  C_10 
REMARK    5  A    between atoms: C_15  and  C_18 
ROOT
HETATM    1  C   UNL     1     -42.903 -47.470   9.602  1.00  0.00     0.157 A 
HETATM    2  N   UNL     1     -42.795 -46.153   9.394  1.00  0.00    -0.343 N 
ATOM      3  HN  UNL     1     -41.908 -45.665   9.517  1.00  0.00     0.167 HD
HETATM    4  C   UNL     1     -43.906 -45.498   9.015  1.00  0.00     0.093 A 
HETATM    5  C   UNL     1     -45.123 -46.110   8.842  1.00  0.00     0.051 A 
HETATM    6  C   UNL     1     -45.159 -47.469   9.094  1.00  0.00     0.120 A 
HETATM    7  N   UNL     1     -44.048 -48.150   9.481  1.00  0.00    -0.329 N 
ATOM      8  HN  UNL     1     -44.087 -49.151   9.673  1.00  0.00     0.168 HD
ENDROOT
BRANCH   1   9
HETATM    9  N   UNL     1     -41.793 -48.225   9.908  1.00  0.00    -0.262 NA
HETATM   10  H   UNL     1     -42.096 -49.176  10.100  1.00  0.00     0.130 HD
BRANCH   9  11
HETATM   11  C   UNL     1     -40.870 -47.692  10.901  1.00  0.00     0.129 C 
BRANCH  11  12
HETATM   12  C   UNL     1     -40.219 -48.875  11.640  1.00  0.00     0.163 C 
HETATM   13  O   UNL     1     -41.077 -50.032  11.498  1.00  0.00    -0.381 OA
HETATM   14  C   UNL     1     -40.491 -51.167  12.145  1.00  0.00     0.198 C 
HETATM   15  C   UNL     1     -40.247 -50.892  13.641  1.00  0.00     0.298 C 
HETATM   16  N   UNL     1     -39.435 -49.679  13.912  1.00  0.00     0.092 N 
HETATM   17  C   UNL     1     -40.012 -48.556  13.134  1.00  0.00     0.305 C 
BRANCH  16  18
HETATM   18  C   UNL     1     -38.012 -49.935  13.648  1.00  0.00     0.268 C 
HETATM   19  C   UNL     1     -37.179 -50.165  14.905  1.00  0.00     0.037 C 
ENDBRANCH  16  18
ENDBRANCH  11  12
ENDBRANCH   9  11
ENDBRANCH   1   9
BRANCH   6  20
HETATM   20  C   UNL     1     -46.458 -48.237   8.929  1.00  0.00     0.432 C 
HETATM   21  F   UNL     1     -47.567 -47.443   9.025  1.00  0.00    -0.165 F 
HETATM   22  F   UNL     1     -46.565 -48.858   7.720  1.00  0.00    -0.165 F 
HETATM   23  F   UNL     1     -46.629 -49.209   9.870  1.00  0.00    -0.165 F 
ENDBRANCH   6  20
TORSDOF 5
ENDMDL
MODEL 5
REMARK VINA RESULT:      -6.2      2.834      6.406
REMARK  5 active torsions:
REMARK  status: ('A' for Active; 'I' for Inactive)
REMARK    1  A    between atoms: C_2  and  N_3 
REMARK    2  A    between atoms: C_7  and  C_8 
REMARK    3  A    between atoms: C_8  and  N_9 
REMARK    4  A    between atoms: N_9  and  C_10 
REMARK    5  A    between atoms: C_15  and  C_18 
ROOT
HETATM    1  C   UNL     1     -41.226 -52.264  11.759  1.00  0.00     0.157 A 
HETATM    2  N   UNL     1     -40.328 -53.086  12.314  1.00  0.00    -0.343 N 
ATOM      3  HN  UNL     1     -39.329 -52.975  12.143  1.00  0.00     0.167 HD
HETATM    4  C   UNL     1     -40.799 -54.065  13.106  1.00  0.00     0.093 A 
HETATM    5  C   UNL     1     -42.134 -54.257  13.360  1.00  0.00     0.051 A 
HETATM    6  C   UNL     1     -43.001 -53.379  12.736  1.00  0.00     0.120 A 
HETATM    7  N   UNL     1     -42.547 -52.385  11.929  1.00  0.00    -0.329 N 
ATOM      8  HN  UNL     1     -43.196 -51.748  11.467  1.00  0.00     0.168 HD
ENDROOT
BRANCH   1   9
HETATM    9  N   UNL     1     -40.819 -51.186  11.005  1.00  0.00    -0.262 NA
HETATM   10  H   UNL     1     -40.163 -51.516  10.303  1.00  0.00     0.130 HD
BRANCH   9  11
HETATM   11  C   UNL     1     -40.368 -50.000  11.719  1.00  0.00     0.129 C 
BRANCH  11  12
HETATM   12  C   UNL     1     -40.994 -48.764  11.045  1.00  0.00     0.163 C 
HETATM   13  O   UNL     1     -40.227 -47.597  11.426  1.00  0.00    -0.381 OA
HETATM   14  C   UNL     1     -40.757 -46.427  10.793  1.00  0.00     0.198 C 
HETATM   15  C   UNL     1     -42.236 -46.212  11.166  1.00  0.00     0.298 C 
HETATM   16  N   UNL     1     -43.110 -47.378  10.888  1.00  0.00     0.092 N 
HETATM   17  C   UNL     1     -42.466 -48.584  11.464  1.00  0.00     0.305 C 
BRANCH  16  18
HETATM   18  C   UNL     1     -43.407 -47.475   9.451  1.00  0.00     0.268 C 
HETATM   19  C   UNL     1     -43.979 -46.196   8.848  1.00  0.00     0.037 C 
ENDBRANCH  16  18
ENDBRANCH  11  12
ENDBRANCH   9  11
ENDBRANCH   1   9
BRANCH   6  20
HETATM   20  C   UNL     1     -44.498 -53.507  12.956  1.00  0.00     0.432 C 
HETATM   21  F   UNL     1     -45.238 -52.896  11.981  1.00  0.00    -0.165 F 
HETATM   22  F   UNL     1     -44.930 -54.800  12.976  1.00  0.00    -0.165 F 
HETATM   23  F   UNL     1     -44.917 -52.949  14.128  1.00  0.00    -0.165 F 
ENDBRANCH   6  20
TORSDOF 5
ENDMDL
MODEL 6
REMARK VINA RESULT:      -6.2      3.726      4.571
REMARK  5 active torsions:
REMARK  status: ('A' for Active; 'I' for Inactive)
REMARK    1  A    between atoms: C_2  and  N_3 
REMARK    2  A    between atoms: C_7  and  C_8 
REMARK    3  A    between atoms: C_8  and  N_9 
REMARK    4  A    between atoms: N_9  and  C_10 
REMARK    5  A    between atoms: C_15  and  C_18 
ROOT
HETATM    1  C   UNL     1     -41.220 -48.680  10.679  1.00  0.00     0.157 A 
HETATM    2  N   UNL     1     -42.555 -48.603  10.731  1.00  0.00    -0.343 N 
ATOM      3  HN  UNL     1     -43.137 -49.440  10.720  1.00  0.00     0.167 HD
HETATM    4  C   UNL     1     -43.096 -47.374  10.799  1.00  0.00     0.093 A 
HETATM    5  C   UNL     1     -42.353 -46.220  10.810  1.00  0.00     0.051 A 
HETATM    6  C   UNL     1     -40.983 -46.381  10.734  1.00  0.00     0.120 A 
HETATM    7  N   UNL     1     -40.414 -47.613  10.663  1.00  0.00    -0.329 N 
ATOM      8  HN  UNL     1     -39.402 -47.720  10.599  1.00  0.00     0.168 HD
ENDROOT
BRANCH   1   9
HETATM    9  N   UNL     1     -40.587 -49.903  10.695  1.00  0.00    -0.262 NA
HETATM   10  H   UNL     1     -41.292 -50.630  10.611  1.00  0.00     0.130 HD
BRANCH   9  11
HETATM   11  C   UNL     1     -39.618 -50.144  11.755  1.00  0.00     0.129 C 
BRANCH  11  12
HETATM   12  C   UNL     1     -40.152 -51.280  12.648  1.00  0.00     0.163 C 
HETATM   13  O   UNL     1     -39.028 -52.067  13.108  1.00  0.00    -0.381 OA
HETATM   14  C   UNL     1     -39.478 -53.119  13.969  1.00  0.00     0.198 C 
HETATM   15  C   UNL     1     -40.485 -54.036  13.252  1.00  0.00     0.298 C 
HETATM   16  N   UNL     1     -41.650 -53.324  12.670  1.00  0.00     0.092 N 
HETATM   17  C   UNL     1     -41.140 -52.179  11.878  1.00  0.00     0.305 C 
BRANCH  16  18
HETATM   18  C   UNL     1     -42.613 -52.959  13.718  1.00  0.00     0.268 C 
HETATM   19  C   UNL     1     -43.282 -54.154  14.391  1.00  0.00     0.037 C 
ENDBRANCH  16  18
ENDBRANCH  11  12
ENDBRANCH   9  11
ENDBRANCH   1   9
BRANCH   6  20
HETATM   20  C   UNL     1     -40.074 -45.164  10.743  1.00  0.00     0.432 C 
HETATM   21  F   UNL     1     -39.188 -45.148   9.700  1.00  0.00    -0.165 F 
HETATM   22  F   UNL     1     -40.753 -43.985  10.654  1.00  0.00    -0.165 F 
HETATM   23  F   UNL     1     -39.307 -45.076  11.867  1.00  0.00    -0.165 F 
ENDBRANCH   6  20
TORSDOF 5
ENDMDL
MODEL 7
REMARK VINA RESULT:      -6.1      3.371      5.191
REMARK  5 active torsions:
REMARK  status: ('A' for Active; 'I' for Inactive)
REMARK    1  A    between atoms: C_2  and  N_3 
REMARK    2  A    between atoms: C_7  and  C_8 
REMARK    3  A    between atoms: C_8  and  N_9 
REMARK    4  A    between atoms: N_9  and  C_10 
REMARK    5  A    between atoms: C_15  and  C_18 
ROOT
HETATM    1  C   UNL     1     -40.684 -51.210  11.621  1.00  0.00     0.157 A 
HETATM    2  N   UNL     1     -39.460 -51.064  12.142  1.00  0.00    -0.343 N 
ATOM      3  HN  UNL     1     -38.935 -51.862  12.499  1.00  0.00     0.167 HD
HETATM    4  C   UNL     1     -38.952 -49.820  12.174  1.00  0.00     0.093 A 
HETATM    5  C   UNL     1     -39.623 -48.716  11.712  1.00  0.00     0.051 A 
HETATM    6  C   UNL     1     -40.889 -48.944  11.205  1.00  0.00     0.120 A 
HETATM    7  N   UNL     1     -41.423 -50.193  11.165  1.00  0.00    -0.329 N 
ATOM      8  HN  UNL     1     -42.362 -50.350  10.797  1.00  0.00     0.168 HD
ENDROOT
BRANCH   1   9
HETATM    9  N   UNL     1     -41.239 -52.461  11.473  1.00  0.00    -0.262 NA
HETATM   10  H   UNL     1     -42.195 -52.351  11.147  1.00  0.00     0.130 HD
BRANCH   9  11
HETATM   11  C   UNL     1     -41.100 -53.393  12.583  1.00  0.00     0.129 C 
BRANCH  11  12
HETATM   12  C   UNL     1     -42.419 -53.395  13.379  1.00  0.00     0.163 C 
HETATM   13  O   UNL     1     -42.560 -54.681  14.028  1.00  0.00    -0.381 OA
HETATM   14  C   UNL     1     -43.761 -54.714  14.807  1.00  0.00     0.198 C 
HETATM   15  C   UNL     1     -45.001 -54.442  13.935  1.00  0.00     0.298 C 
HETATM   16  N   UNL     1     -44.934 -53.178  13.160  1.00  0.00     0.092 N 
HETATM   17  C   UNL     1     -43.628 -53.136  12.458  1.00  0.00     0.305 C 
BRANCH  16  18
HETATM   18  C   UNL     1     -45.196 -52.021  14.028  1.00  0.00     0.268 C 
HETATM   19  C   UNL     1     -46.636 -51.518  13.975  1.00  0.00     0.037 C 
ENDBRANCH  16  18
ENDBRANCH  11  12
ENDBRANCH   9  11
ENDBRANCH   1   9
BRANCH   6  20
HETATM   20  C   UNL     1     -41.711 -47.787  10.666  1.00  0.00     0.432 C 
HETATM   21  F   UNL     1     -42.342 -48.080   9.488  1.00  0.00    -0.165 F 
HETATM   22  F   UNL     1     -42.701 -47.389  11.514  1.00  0.00    -0.165 F 
HETATM   23  F   UNL     1     -40.965 -46.675  10.407  1.00  0.00    -0.165 F 
ENDBRANCH   6  20
TORSDOF 5
ENDMDL
MODEL 8
REMARK VINA RESULT:      -6.0      4.730      7.501
REMARK  5 active torsions:
REMARK  status: ('A' for Active; 'I' for Inactive)
REMARK    1  A    between atoms: C_2  and  N_3 
REMARK    2  A    between atoms: C_7  and  C_8 
REMARK    3  A    between atoms: C_8  and  N_9 
REMARK    4  A    between atoms: N_9  and  C_10 
REMARK    5  A    between atoms: C_15  and  C_18 
ROOT
HETATM    1  C   UNL     1     -41.107 -49.171  10.879  1.00  0.00     0.157 A 
HETATM    2  N   UNL     1     -41.886 -50.043  11.530  1.00  0.00    -0.343 N 
ATOM      3  HN  UNL     1     -42.900 -50.031  11.426  1.00  0.00     0.167 HD
HETATM    4  C   UNL     1     -41.274 -50.936  12.327  1.00  0.00     0.093 A 
HETATM    5  C   UNL     1     -39.914 -50.987  12.503  1.00  0.00     0.051 A 
HETATM    6  C   UNL     1     -39.178 -50.042  11.812  1.00  0.00     0.120 A 
HETATM    7  N   UNL     1     -39.776 -49.128  11.003  1.00  0.00    -0.329 N 
ATOM      8  HN  UNL     1     -39.224 -48.430  10.504  1.00  0.00     0.168 HD
ENDROOT
BRANCH   1   9
HETATM    9  N   UNL     1     -41.649 -48.282   9.979  1.00  0.00    -0.262 NA
HETATM   10  H   UNL     1     -40.893 -47.872   9.438  1.00  0.00     0.130 HD
BRANCH   9  11
HETATM   11  C   UNL     1     -42.601 -47.305  10.489  1.00  0.00     0.129 C 
BRANCH  11  12
HETATM   12  C   UNL     1     -41.874 -45.955  10.639  1.00  0.00     0.163 C 
HETATM   13  O   UNL     1     -40.464 -46.164  10.388  1.00  0.00    -0.381 OA
HETATM   14  C   UNL     1     -39.754 -44.925  10.485  1.00  0.00     0.198 C 
HETATM   15  C   UNL     1     -39.937 -44.283  11.873  1.00  0.00     0.298 C 
HETATM   16  N   UNL     1     -41.353 -44.088  12.272  1.00  0.00     0.092 N 
HETATM   17  C   UNL     1     -42.074 -45.365  12.049  1.00  0.00     0.305 C 
BRANCH  16  18
HETATM   18  C   UNL     1     -41.935 -42.931  11.576  1.00  0.00     0.268 C 
HETATM   19  C   UNL     1     -41.119 -41.649  11.712  1.00  0.00     0.037 C 
ENDBRANCH  16  18
ENDBRANCH  11  12
ENDBRANCH   9  11
ENDBRANCH   1   9
BRANCH   6  20
HETATM   20  C   UNL     1     -37.665 -50.017  11.938  1.00  0.00     0.432 C 
HETATM   21  F   UNL     1     -37.140 -51.216  12.335  1.00  0.00    -0.165 F 
HETATM   22  F   UNL     1     -37.033 -49.718  10.769  1.00  0.00    -0.165 F 
HETATM   23  F   UNL     1     -37.219 -49.110  12.854  1.00  0.00    -0.165 F 
ENDBRANCH   6  20
TORSDOF 5
ENDMDL
MODEL 9
REMARK VINA RESULT:      -5.8      3.601      6.095
REMARK  5 active torsions:
REMARK  status: ('A' for Active; 'I' for Inactive)
REMARK    1  A    between atoms: C_2  and  N_3 
REMARK    2  A    between atoms: C_7  and  C_8 
REMARK    3  A    between atoms: C_8  and  N_9 
REMARK    4  A    between atoms: N_9  and  C_10 
REMARK    5  A    between atoms: C_15  and  C_18 
ROOT
HETATM    1  C   UNL     1     -43.725 -53.018  12.448  1.00  0.00     0.157 A 
HETATM    2  N   UNL     1     -43.829 -54.344  12.595  1.00  0.00    -0.343 N 
ATOM      3  HN  UNL     1     -43.186 -54.983  12.127  1.00  0.00     0.167 HD
HETATM    4  C   UNL     1     -44.817 -54.799  13.384  1.00  0.00     0.093 A 
HETATM    5  C   UNL     1     -45.709 -53.978  14.028  1.00  0.00     0.051 A 
HETATM    6  C   UNL     1     -45.549 -52.622  13.813  1.00  0.00     0.120 A 
HETATM    7  N   UNL     1     -44.558 -52.141  13.017  1.00  0.00    -0.329 N 
ATOM      8  HN  UNL     1     -44.454 -51.139  12.858  1.00  0.00     0.168 HD
ENDROOT
BRANCH   1   9
HETATM    9  N   UNL     1     -42.688 -52.471  11.726  1.00  0.00    -0.262 NA
HETATM   10  H   UNL     1     -42.807 -52.727  10.750  1.00  0.00     0.130 HD
BRANCH   9  11
HETATM   11  C   UNL     1     -41.336 -52.680  12.227  1.00  0.00     0.129 C 
BRANCH  11  12
HETATM   12  C   UNL     1     -40.547 -51.370  12.046  1.00  0.00     0.163 C 
HETATM   13  O   UNL     1     -39.202 -51.574  12.542  1.00  0.00    -0.381 OA
HETATM   14  C   UNL     1     -38.422 -50.387  12.362  1.00  0.00     0.198 C 
HETATM   15  C   UNL     1     -39.058 -49.185  13.085  1.00  0.00     0.298 C 
HETATM   16  N   UNL     1     -40.470 -48.925  12.708  1.00  0.00     0.092 N 
HETATM   17  C   UNL     1     -41.214 -50.205  12.803  1.00  0.00     0.305 C 
BRANCH  16  18
HETATM   18  C   UNL     1     -40.545 -48.272  11.394  1.00  0.00     0.268 C 
HETATM   19  C   UNL     1     -41.950 -48.232  10.800  1.00  0.00     0.037 C 
ENDBRANCH  16  18
ENDBRANCH  11  12
ENDBRANCH   9  11
ENDBRANCH   1   9
BRANCH   6  20
HETATM   20  C   UNL     1     -46.484 -51.632  14.484  1.00  0.00     0.432 C 
HETATM   21  F   UNL     1     -47.345 -52.221  15.369  1.00  0.00    -0.165 F 
HETATM   22  F   UNL     1     -45.830 -50.676  15.203  1.00  0.00    -0.165 F 
HETATM   23  F   UNL     1     -47.280 -50.963  13.601  1.00  0.00    -0.165 F 
ENDBRANCH   6  20
TORSDOF 5
ENDMDL
