MODEL 1
REMARK VINA RESULT:      -6.4      0.000      0.000
REMARK  6 active torsions:
REMARK  status: ('A' for Active; 'I' for Inactive)
REMARK    1  A    between atoms: C_2  and  C_5 
REMARK    2  A    between atoms: C_8  and  O_9 
REMARK    3  A    between atoms: C_8  and  C_10 
REMARK    4  A    between atoms: C_10  and  N_11 
REMARK       I    between atoms: N_11  and  C_12 
REMARK    5  A    between atoms: C_12  and  C_14 
REMARK    6  A    between atoms: C_14  and  N_15 
ROOT
HETATM    1  C   UNL     1     -41.782 -48.322  11.463  1.00  0.00     0.160 C 
ENDROOT
BRANCH   1   2
HETATM    2  C   UNL     1     -40.632 -49.367  11.548  1.00  0.00     0.074 C 
HETATM    3  C   UNL     1     -40.957 -50.495  12.545  1.00  0.00     0.040 C 
HETATM    4  C   UNL     1     -40.683 -50.157  14.008  1.00  0.00     0.008 C 
HETATM    5  C   UNL     1     -39.289 -49.555  14.278  1.00  0.00    -0.007 C 
HETATM    6  C   UNL     1     -39.110 -48.337  13.348  1.00  0.00     0.008 C 
HETATM    7  C   UNL     1     -39.308 -48.649  11.873  1.00  0.00     0.040 C 
BRANCH   5   8
HETATM    8  C   UNL     1     -38.079 -50.574  14.360  1.00  0.00    -0.048 C 
HETATM    9  C   UNL     1     -37.452 -50.998  13.021  1.00  0.00     0.015 C 
HETATM   10  C   UNL     1     -38.550 -51.877  15.053  1.00  0.00     0.015 C 
HETATM   11  C   UNL     1     -36.949 -49.984  15.234  1.00  0.00     0.015 C 
ENDBRANCH   5   8
BRANCH   2  12
HETATM   12  O   UNL     1     -40.425 -49.987  10.273  1.00  0.00    -0.388 OA
HETATM   13  H   UNL     1     -41.185 -49.778   9.705  1.00  0.00     0.210 HD
ENDBRANCH   2  12
ENDBRANCH   1   2
BRANCH   1  14
HETATM   14  N   UNL     1     -42.547 -48.398  10.218  1.00  0.00    -0.357 N 
HETATM   15  C   UNL     1     -42.784 -47.298   9.425  1.00  0.00     0.237 C 
HETATM   16  O   UNL     1     -42.312 -46.190   9.665  1.00  0.00    -0.272 OA
HETATM   17  H   UNL     1     -43.051 -49.259  10.023  1.00  0.00     0.162 HD
BRANCH  15  18
HETATM   18  C   UNL     1     -43.603 -47.553   8.187  1.00  0.00     0.252 C 
BRANCH  18  19
HETATM   19  N   UNL     1     -45.007 -47.455   8.482  1.00  0.00    -0.278 N 
HETATM   20  C   UNL     1     -45.942 -48.436   8.419  1.00  0.00     0.201 A 
HETATM   21  N   UNL     1     -47.097 -47.961   8.823  1.00  0.00    -0.346 N 
HETATM   22  C   UNL     1     -46.809 -46.659   9.120  1.00  0.00     0.198 A 
ATOM     23  HN  UNL     1     -47.991 -48.446   8.898  1.00  0.00     0.167 HD
HETATM   24  N   UNL     1     -45.538 -46.297   8.921  1.00  0.00    -0.293 N 
ATOM     25  HN  UNL     1     -45.090 -45.391   9.064  1.00  0.00     0.188 HD
ENDBRANCH  18  19
ENDBRANCH  15  18
ENDBRANCH   1  14
TORSDOF 6
ENDMDL
MODEL 2
REMARK VINA RESULT:      -6.4      1.697      2.342
REMARK  6 active torsions:
REMARK  status: ('A' for Active; 'I' for Inactive)
REMARK    1  A    between atoms: C_2  and  C_5 
REMARK    2  A    between atoms: C_8  and  O_9 
REMARK    3  A    between atoms: C_8  and  C_10 
REMARK    4  A    between atoms: C_10  and  N_11 
REMARK       I    between atoms: N_11  and  C_12 
REMARK    5  A    between atoms: C_12  and  C_14 
REMARK    6  A    between atoms: C_14  and  N_15 
ROOT
HETATM    1  C   UNL     1     -40.224 -48.317  11.846  1.00  0.00     0.160 C 
ENDROOT
BRANCH   1   2
HETATM    2  C   UNL     1     -40.319 -49.855  11.627  1.00  0.00     0.074 C 
HETATM    3  C   UNL     1     -41.629 -50.433  12.195  1.00  0.00     0.040 C 
HETATM    4  C   UNL     1     -41.613 -50.703  13.697  1.00  0.00     0.008 C 
HETATM    5  C   UNL     1     -40.388 -51.499  14.194  1.00  0.00    -0.007 C 
HETATM    6  C   UNL     1     -39.120 -50.764  13.713  1.00  0.00     0.008 C 
HETATM    7  C   UNL     1     -39.066 -50.536  12.211  1.00  0.00     0.040 C 
BRANCH   5   8
HETATM    8  C   UNL     1     -40.427 -53.068  13.983  1.00  0.00    -0.048 C 
HETATM    9  C   UNL     1     -40.917 -53.560  12.610  1.00  0.00     0.015 C 
HETATM   10  C   UNL     1     -41.369 -53.706  15.036  1.00  0.00     0.015 C 
HETATM   11  C   UNL     1     -39.022 -53.668  14.215  1.00  0.00     0.015 C 
ENDBRANCH   5   8
BRANCH   2  12
HETATM   12  O   UNL     1     -40.302 -50.163  10.228  1.00  0.00    -0.388 OA
HETATM   13  H   UNL     1     -39.746 -49.505   9.778  1.00  0.00     0.210 HD
ENDBRANCH   2  12
ENDBRANCH   1   2
BRANCH   1  14
HETATM   14  N   UNL     1     -40.881 -47.538  10.796  1.00  0.00    -0.357 N 
HETATM   15  C   UNL     1     -42.120 -46.963  10.963  1.00  0.00     0.237 C 
HETATM   16  O   UNL     1     -42.733 -47.001  12.027  1.00  0.00    -0.272 OA
HETATM   17  H   UNL     1     -40.474 -47.562   9.864  1.00  0.00     0.162 HD
BRANCH  15  18
HETATM   18  C   UNL     1     -42.654 -46.209   9.775  1.00  0.00     0.252 C 
BRANCH  18  19
HETATM   19  N   UNL     1     -43.782 -46.897   9.207  1.00  0.00    -0.278 N 
HETATM   20  C   UNL     1     -43.814 -47.657   8.082  1.00  0.00     0.201 A 
HETATM   21  N   UNL     1     -45.018 -48.160   7.934  1.00  0.00    -0.346 N 
HETATM   22  C   UNL     1     -45.696 -47.662   9.010  1.00  0.00     0.198 A 
ATOM     23  HN  UNL     1     -45.362 -48.774   7.196  1.00  0.00     0.167 HD
HETATM   24  N   UNL     1     -44.981 -46.875   9.820  1.00  0.00    -0.293 N 
ATOM     25  HN  UNL     1     -45.265 -46.389  10.671  1.00  0.00     0.188 HD
ENDBRANCH  18  19
ENDBRANCH  15  18
ENDBRANCH   1  14
TORSDOF 6
ENDMDL
MODEL 3
REMARK VINA RESULT:      -6.4      2.939      4.160
REMARK  6 active torsions:
REMARK  status: ('A' for Active; 'I' for Inactive)
REMARK    1  A    between atoms: C_2  and  C_5 
REMARK    2  A    between atoms: C_8  and  O_9 
REMARK    3  A    between atoms: C_8  and  C_10 
REMARK    4  A    between atoms: C_10  and  N_11 
REMARK       I    between atoms: N_11  and  C_12 
REMARK    5  A    between atoms: C_12  and  C_14 
REMARK    6  A    between atoms: C_14  and  N_15 
ROOT
HETATM    1  C   UNL     1     -40.818 -50.925  11.818  1.00  0.00     0.160 C 
ENDROOT
BRANCH   1   2
HETATM    2  C   UNL     1     -41.206 -52.377  12.222  1.00  0.00     0.074 C 
HETATM    3  C   UNL     1     -42.734 -52.576  12.239  1.00  0.00     0.040 C 
HETATM    4  C   UNL     1     -43.430 -52.095  13.509  1.00  0.00     0.008 C 
HETATM    5  C   UNL     1     -42.787 -52.589  14.821  1.00  0.00    -0.007 C 
HETATM    6  C   UNL     1     -41.292 -52.209  14.787  1.00  0.00     0.008 C 
HETATM    7  C   UNL     1     -40.546 -52.730  13.569  1.00  0.00     0.040 C 
BRANCH   5   8
HETATM    8  C   UNL     1     -43.138 -54.066  15.272  1.00  0.00    -0.048 C 
HETATM    9  C   UNL     1     -44.097 -54.848  14.359  1.00  0.00     0.015 C 
HETATM   10  C   UNL     1     -43.799 -54.033  16.673  1.00  0.00     0.015 C 
HETATM   11  C   UNL     1     -41.844 -54.900  15.406  1.00  0.00     0.015 C 
ENDBRANCH   5   8
BRANCH   2  12
HETATM   12  O   UNL     1     -40.675 -53.317  11.281  1.00  0.00    -0.388 OA
HETATM   13  H   UNL     1     -39.952 -53.804  11.710  1.00  0.00     0.210 HD
ENDBRANCH   2  12
ENDBRANCH   1   2
BRANCH   1  14
HETATM   14  N   UNL     1     -41.966 -50.024  11.709  1.00  0.00    -0.357 N 
HETATM   15  C   UNL     1     -41.841 -48.702  11.351  1.00  0.00     0.237 C 
HETATM   16  O   UNL     1     -40.767 -48.199  11.027  1.00  0.00    -0.272 OA
HETATM   17  H   UNL     1     -42.860 -50.351  12.067  1.00  0.00     0.162 HD
BRANCH  15  18
HETATM   18  C   UNL     1     -43.123 -47.915  11.304  1.00  0.00     0.252 C 
BRANCH  18  19
HETATM   19  N   UNL     1     -43.599 -47.807   9.951  1.00  0.00    -0.278 N 
HETATM   20  C   UNL     1     -44.837 -47.443   9.529  1.00  0.00     0.201 A 
HETATM   21  N   UNL     1     -44.855 -47.409   8.217  1.00  0.00    -0.346 N 
HETATM   22  C   UNL     1     -43.583 -47.775   7.880  1.00  0.00     0.198 A 
ATOM     23  HN  UNL     1     -45.631 -47.168   7.600  1.00  0.00     0.167 HD
HETATM   24  N   UNL     1     -42.773 -48.036   8.911  1.00  0.00    -0.293 N 
ATOM     25  HN  UNL     1     -41.796 -48.329   8.912  1.00  0.00     0.188 HD
ENDBRANCH  18  19
ENDBRANCH  15  18
ENDBRANCH   1  14
TORSDOF 6
ENDMDL
MODEL 4
REMARK VINA RESULT:      -6.3      3.450      4.842
REMARK  6 active torsions:
REMARK  status: ('A' for Active; 'I' for Inactive)
REMARK    1  A    between atoms: C_2  and  C_5 
REMARK    2  A    between atoms: C_8  and  O_9 
REMARK    3  A    between atoms: C_8  and  C_10 
REMARK    4  A    between atoms: C_10  and  N_11 
REMARK       I    between atoms: N_11  and  C_12 
REMARK    5  A    between atoms: C_12  and  C_14 
REMARK    6  A    between atoms: C_14  and  N_15 
ROOT
HETATM    1  C   UNL     1     -41.776 -50.481  12.215  1.00  0.00     0.160 C 
ENDROOT
BRANCH   1   2
HETATM    2  C   UNL     1     -42.371 -51.130  13.499  1.00  0.00     0.074 C 
HETATM    3  C   UNL     1     -41.648 -52.440  13.865  1.00  0.00     0.040 C 
HETATM    4  C   UNL     1     -42.118 -53.669  13.092  1.00  0.00     0.008 C 
HETATM    5  C   UNL     1     -43.648 -53.864  13.063  1.00  0.00    -0.007 C 
HETATM    6  C   UNL     1     -44.280 -52.559  12.536  1.00  0.00     0.008 C 
HETATM    7  C   UNL     1     -43.890 -51.318  13.324  1.00  0.00     0.040 C 
BRANCH   5   8
HETATM    8  C   UNL     1     -44.307 -54.509  14.351  1.00  0.00    -0.048 C 
HETATM    9  C   UNL     1     -44.803 -53.527  15.426  1.00  0.00     0.015 C 
HETATM   10  C   UNL     1     -43.278 -55.434  15.047  1.00  0.00     0.015 C 
HETATM   11  C   UNL     1     -45.505 -55.395  13.944  1.00  0.00     0.015 C 
ENDBRANCH   5   8
BRANCH   2  12
HETATM   12  O   UNL     1     -42.224 -50.249  14.619  1.00  0.00    -0.388 OA
HETATM   13  H   UNL     1     -42.146 -50.787  15.423  1.00  0.00     0.210 HD
ENDBRANCH   2  12
ENDBRANCH   1   2
BRANCH   1  14
HETATM   14  N   UNL     1     -42.591 -49.387  11.685  1.00  0.00    -0.357 N 
HETATM   15  C   UNL     1     -42.042 -48.232  11.177  1.00  0.00     0.237 C 
HETATM   16  O   UNL     1     -40.830 -48.064  11.066  1.00  0.00    -0.272 OA
HETATM   17  H   UNL     1     -43.594 -49.422  11.848  1.00  0.00     0.162 HD
BRANCH  15  18
HETATM   18  C   UNL     1     -43.026 -47.204  10.689  1.00  0.00     0.252 C 
BRANCH  18  19
HETATM   19  N   UNL     1     -43.554 -47.581   9.405  1.00  0.00    -0.278 N 
HETATM   20  C   UNL     1     -44.850 -47.567   9.001  1.00  0.00     0.201 A 
HETATM   21  N   UNL     1     -44.914 -47.926   7.740  1.00  0.00    -0.346 N 
HETATM   22  C   UNL     1     -43.607 -48.161   7.418  1.00  0.00     0.198 A 
ATOM     23  HN  UNL     1     -45.739 -48.010   7.145  1.00  0.00     0.167 HD
HETATM   24  N   UNL     1     -42.733 -47.968   8.411  1.00  0.00    -0.293 N 
ATOM     25  HN  UNL     1     -41.719 -48.081   8.414  1.00  0.00     0.188 HD
ENDBRANCH  18  19
ENDBRANCH  15  18
ENDBRANCH   1  14
TORSDOF 6
ENDMDL
MODEL 5
REMARK VINA RESULT:      -6.2      3.424      5.237
REMARK  6 active torsions:
REMARK  status: ('A' for Active; 'I' for Inactive)
REMARK    1  A    between atoms: C_2  and  C_5 
REMARK    2  A    between atoms: C_8  and  O_9 
REMARK    3  A    between atoms: C_8  and  C_10 
REMARK    4  A    between atoms: C_10  and  N_11 
REMARK       I    between atoms: N_11  and  C_12 
REMARK    5  A    between atoms: C_12  and  C_14 
REMARK    6  A    between atoms: C_14  and  N_15 
ROOT
HETATM    1  C   UNL     1     -40.179 -51.343  12.209  1.00  0.00     0.160 C 
ENDROOT
BRANCH   1   2
HETATM    2  C   UNL     1     -40.991 -52.665  12.341  1.00  0.00     0.074 C 
HETATM    3  C   UNL     1     -42.501 -52.429  12.150  1.00  0.00     0.040 C 
HETATM    4  C   UNL     1     -43.232 -51.921  13.389  1.00  0.00     0.008 C 
HETATM    5  C   UNL     1     -42.949 -52.721  14.677  1.00  0.00    -0.007 C 
HETATM    6  C   UNL     1     -41.420 -52.773  14.875  1.00  0.00     0.008 C 
HETATM    7  C   UNL     1     -40.659 -53.339  13.686  1.00  0.00     0.040 C 
BRANCH   5   8
HETATM    8  C   UNL     1     -43.739 -54.082  14.856  1.00  0.00    -0.048 C 
HETATM    9  C   UNL     1     -42.889 -55.331  15.143  1.00  0.00     0.015 C 
HETATM   10  C   UNL     1     -44.539 -54.386  13.564  1.00  0.00     0.015 C 
HETATM   11  C   UNL     1     -44.769 -53.949  16.000  1.00  0.00     0.015 C 
ENDBRANCH   5   8
BRANCH   2  12
HETATM   12  O   UNL     1     -40.586 -53.602  11.337  1.00  0.00    -0.388 OA
HETATM   13  H   UNL     1     -40.318 -53.106  10.546  1.00  0.00     0.210 HD
ENDBRANCH   2  12
ENDBRANCH   1   2
BRANCH   1  14
HETATM   14  N   UNL     1     -40.739 -50.413  11.228  1.00  0.00    -0.357 N 
HETATM   15  C   UNL     1     -41.186 -49.156  11.568  1.00  0.00     0.237 C 
HETATM   16  O   UNL     1     -41.084 -48.698  12.703  1.00  0.00    -0.272 OA
HETATM   17  H   UNL     1     -40.947 -50.771  10.300  1.00  0.00     0.162 HD
BRANCH  15  18
HETATM   18  C   UNL     1     -41.746 -48.336  10.437  1.00  0.00     0.252 C 
BRANCH  18  19
HETATM   19  N   UNL     1     -41.259 -46.985  10.504  1.00  0.00    -0.278 N 
HETATM   20  C   UNL     1     -41.985 -45.838  10.530  1.00  0.00     0.201 A 
HETATM   21  N   UNL     1     -41.172 -44.814  10.654  1.00  0.00    -0.346 N 
HETATM   22  C   UNL     1     -39.939 -45.401  10.693  1.00  0.00     0.198 A 
ATOM     23  HN  UNL     1     -41.405 -43.822  10.709  1.00  0.00     0.167 HD
HETATM   24  N   UNL     1     -39.939 -46.734  10.599  1.00  0.00    -0.293 N 
ATOM     25  HN  UNL     1     -39.153 -47.385  10.599  1.00  0.00     0.188 HD
ENDBRANCH  18  19
ENDBRANCH  15  18
ENDBRANCH   1  14
TORSDOF 6
ENDMDL
MODEL 6
REMARK VINA RESULT:      -6.1      3.828      5.298
REMARK  6 active torsions:
REMARK  status: ('A' for Active; 'I' for Inactive)
REMARK    1  A    between atoms: C_2  and  C_5 
REMARK    2  A    between atoms: C_8  and  O_9 
REMARK    3  A    between atoms: C_8  and  C_10 
REMARK    4  A    between atoms: C_10  and  N_11 
REMARK       I    between atoms: N_11  and  C_12 
REMARK    5  A    between atoms: C_12  and  C_14 
REMARK    6  A    between atoms: C_14  and  N_15 
ROOT
HETATM    1  C   UNL     1     -42.266 -51.168  12.557  1.00  0.00     0.160 C 
ENDROOT
BRANCH   1   2
HETATM    2  C   UNL     1     -43.427 -52.151  12.887  1.00  0.00     0.074 C 
HETATM    3  C   UNL     1     -44.758 -51.409  13.109  1.00  0.00     0.040 C 
HETATM    4  C   UNL     1     -44.938 -50.816  14.504  1.00  0.00     0.008 C 
HETATM    5  C   UNL     1     -44.642 -51.792  15.661  1.00  0.00    -0.007 C 
HETATM    6  C   UNL     1     -43.227 -52.369  15.442  1.00  0.00     0.008 C 
HETATM    7  C   UNL     1     -43.030 -53.031  14.088  1.00  0.00     0.040 C 
BRANCH   5   8
HETATM    8  C   UNL     1     -45.785 -52.824  16.029  1.00  0.00    -0.048 C 
HETATM    9  C   UNL     1     -45.878 -54.082  15.149  1.00  0.00     0.015 C 
HETATM   10  C   UNL     1     -47.163 -52.122  15.933  1.00  0.00     0.015 C 
HETATM   11  C   UNL     1     -45.622 -53.294  17.492  1.00  0.00     0.015 C 
ENDBRANCH   5   8
BRANCH   2  12
HETATM   12  O   UNL     1     -43.635 -53.062  11.801  1.00  0.00    -0.388 OA
HETATM   13  H   UNL     1     -43.419 -53.957  12.108  1.00  0.00     0.210 HD
ENDBRANCH   2  12
ENDBRANCH   1   2
BRANCH   1  14
HETATM   14  N   UNL     1     -42.726 -49.837  12.160  1.00  0.00    -0.357 N 
HETATM   15  C   UNL     1     -41.946 -48.969  11.431  1.00  0.00     0.237 C 
HETATM   16  O   UNL     1     -40.836 -49.273  11.001  1.00  0.00    -0.272 OA
HETATM   17  H   UNL     1     -43.587 -49.490  12.575  1.00  0.00     0.162 HD
BRANCH  15  18
HETATM   18  C   UNL     1     -42.570 -47.634  11.123  1.00  0.00     0.252 C 
BRANCH  18  19
HETATM   19  N   UNL     1     -43.267 -47.682   9.866  1.00  0.00    -0.278 N 
HETATM   20  C   UNL     1     -44.581 -47.433   9.632  1.00  0.00     0.201 A 
HETATM   21  N   UNL     1     -44.816 -47.523   8.344  1.00  0.00    -0.346 N 
HETATM   22  C   UNL     1     -43.592 -47.842   7.827  1.00  0.00     0.198 A 
ATOM     23  HN  UNL     1     -45.698 -47.387   7.849  1.00  0.00     0.167 HD
HETATM   24  N   UNL     1     -42.608 -47.957   8.724  1.00  0.00    -0.293 N 
ATOM     25  HN  UNL     1     -41.625 -48.189   8.583  1.00  0.00     0.188 HD
ENDBRANCH  18  19
ENDBRANCH  15  18
ENDBRANCH   1  14
TORSDOF 6
ENDMDL
MODEL 7
REMARK VINA RESULT:      -6.0      3.715      5.871
REMARK  6 active torsions:
REMARK  status: ('A' for Active; 'I' for Inactive)
REMARK    1  A    between atoms: C_2  and  C_5 
REMARK    2  A    between atoms: C_8  and  O_9 
REMARK    3  A    between atoms: C_8  and  C_10 
REMARK    4  A    between atoms: C_10  and  N_11 
REMARK       I    between atoms: N_11  and  C_12 
REMARK    5  A    between atoms: C_12  and  C_14 
REMARK    6  A    between atoms: C_14  and  N_15 
ROOT
HETATM    1  C   UNL     1     -41.276 -51.537  13.543  1.00  0.00     0.160 C 
ENDROOT
BRANCH   1   2
HETATM    2  C   UNL     1     -42.711 -51.963  13.114  1.00  0.00     0.074 C 
HETATM    3  C   UNL     1     -43.689 -50.773  13.131  1.00  0.00     0.040 C 
HETATM    4  C   UNL     1     -44.261 -50.432  14.504  1.00  0.00     0.008 C 
HETATM    5  C   UNL     1     -44.831 -51.637  15.280  1.00  0.00    -0.007 C 
HETATM    6  C   UNL     1     -43.732 -52.718  15.350  1.00  0.00     0.008 C 
HETATM    7  C   UNL     1     -43.184 -53.135  13.994  1.00  0.00     0.040 C 
BRANCH   5   8
HETATM    8  C   UNL     1     -46.284 -52.120  14.873  1.00  0.00    -0.048 C 
HETATM    9  C   UNL     1     -46.509 -53.641  14.830  1.00  0.00     0.015 C 
HETATM   10  C   UNL     1     -46.625 -51.589  13.458  1.00  0.00     0.015 C 
HETATM   11  C   UNL     1     -47.330 -51.524  15.841  1.00  0.00     0.015 C 
ENDBRANCH   5   8
BRANCH   2  12
HETATM   12  O   UNL     1     -42.701 -52.473  11.775  1.00  0.00    -0.388 OA
HETATM   13  H   UNL     1     -43.436 -52.067  11.288  1.00  0.00     0.210 HD
ENDBRANCH   2  12
ENDBRANCH   1   2
BRANCH   1  14
HETATM   14  N   UNL     1     -40.949 -50.155  13.189  1.00  0.00    -0.357 N 
HETATM   15  C   UNL     1     -40.433 -49.806  11.962  1.00  0.00     0.237 C 
HETATM   16  O   UNL     1     -40.277 -50.615  11.051  1.00  0.00    -0.272 OA
HETATM   17  H   UNL     1     -40.954 -49.462  13.933  1.00  0.00     0.162 HD
BRANCH  15  18
HETATM   18  C   UNL     1     -40.139 -48.342  11.772  1.00  0.00     0.252 C 
BRANCH  18  19
HETATM   19  N   UNL     1     -41.119 -47.739  10.909  1.00  0.00    -0.278 N 
HETATM   20  C   UNL     1     -41.207 -46.438  10.529  1.00  0.00     0.201 A 
HETATM   21  N   UNL     1     -42.205 -46.299   9.688  1.00  0.00    -0.346 N 
HETATM   22  C   UNL     1     -42.708 -47.566   9.594  1.00  0.00     0.198 A 
ATOM     23  HN  UNL     1     -42.527 -45.452   9.220  1.00  0.00     0.167 HD
HETATM   24  N   UNL     1     -42.078 -48.486  10.330  1.00  0.00    -0.293 N 
ATOM     25  HN  UNL     1     -42.270 -49.484  10.427  1.00  0.00     0.188 HD
ENDBRANCH  18  19
ENDBRANCH  15  18
ENDBRANCH   1  14
TORSDOF 6
ENDMDL
MODEL 8
REMARK VINA RESULT:      -6.0      4.789      7.738
REMARK  6 active torsions:
REMARK  status: ('A' for Active; 'I' for Inactive)
REMARK    1  A    between atoms: C_2  and  C_5 
REMARK    2  A    between atoms: C_8  and  O_9 
REMARK    3  A    between atoms: C_8  and  C_10 
REMARK    4  A    between atoms: C_10  and  N_11 
REMARK       I    between atoms: N_11  and  C_12 
REMARK    5  A    between atoms: C_12  and  C_14 
REMARK    6  A    between atoms: C_14  and  N_15 
ROOT
HETATM    1  C   UNL     1     -41.411 -53.425  13.245  1.00  0.00     0.160 C 
ENDROOT
BRANCH   1   2
HETATM    2  C   UNL     1     -42.841 -52.961  12.842  1.00  0.00     0.074 C 
HETATM    3  C   UNL     1     -43.182 -51.582  13.438  1.00  0.00     0.040 C 
HETATM    4  C   UNL     1     -43.659 -51.609  14.887  1.00  0.00     0.008 C 
HETATM    5  C   UNL     1     -44.773 -52.636  15.178  1.00  0.00    -0.007 C 
HETATM    6  C   UNL     1     -44.283 -54.016  14.692  1.00  0.00     0.008 C 
HETATM    7  C   UNL     1     -43.863 -54.046  13.231  1.00  0.00     0.040 C 
BRANCH   5   8
HETATM    8  C   UNL     1     -46.247 -52.219  14.775  1.00  0.00    -0.048 C 
HETATM    9  C   UNL     1     -46.408 -51.514  13.417  1.00  0.00     0.015 C 
HETATM   10  C   UNL     1     -46.817 -51.249  15.840  1.00  0.00     0.015 C 
HETATM   11  C   UNL     1     -47.164 -53.462  14.763  1.00  0.00     0.015 C 
ENDBRANCH   5   8
BRANCH   2  12
HETATM   12  O   UNL     1     -42.943 -52.835  11.419  1.00  0.00    -0.388 OA
HETATM   13  H   UNL     1     -42.573 -51.975  11.161  1.00  0.00     0.210 HD
ENDBRANCH   2  12
ENDBRANCH   1   2
BRANCH   1  14
HETATM   14  N   UNL     1     -40.490 -52.318  13.503  1.00  0.00    -0.357 N 
HETATM   15  C   UNL     1     -39.167 -52.513  13.831  1.00  0.00     0.237 C 
HETATM   16  O   UNL     1     -38.647 -53.625  13.862  1.00  0.00    -0.272 OA
HETATM   17  H   UNL     1     -40.885 -51.386  13.598  1.00  0.00     0.162 HD
BRANCH  15  18
HETATM   18  C   UNL     1     -38.366 -51.263  14.078  1.00  0.00     0.252 C 
BRANCH  18  19
HETATM   19  N   UNL     1     -38.163 -50.543  12.850  1.00  0.00    -0.278 N 
HETATM   20  C   UNL     1     -38.817 -49.435  12.416  1.00  0.00     0.201 A 
HETATM   21  N   UNL     1     -38.299 -49.046  11.274  1.00  0.00    -0.346 N 
HETATM   22  C   UNL     1     -37.321 -49.973  11.047  1.00  0.00     0.198 A 
ATOM     23  HN  UNL     1     -38.563 -48.247  10.697  1.00  0.00     0.167 HD
HETATM   24  N   UNL     1     -37.202 -50.917  11.985  1.00  0.00    -0.293 N 
ATOM     25  HN  UNL     1     -36.557 -51.707  12.033  1.00  0.00     0.188 HD
ENDBRANCH  18  19
ENDBRANCH  15  18
ENDBRANCH   1  14
TORSDOF 6
ENDMDL
MODEL 9
REMARK VINA RESULT:      -5.9      2.611      3.707
REMARK  6 active torsions:
REMARK  status: ('A' for Active; 'I' for Inactive)
REMARK    1  A    between atoms: C_2  and  C_5 
REMARK    2  A    between atoms: C_8  and  O_9 
REMARK    3  A    between atoms: C_8  and  C_10 
REMARK    4  A    between atoms: C_10  and  N_11 
REMARK       I    between atoms: N_11  and  C_12 
REMARK    5  A    between atoms: C_12  and  C_14 
REMARK    6  A    between atoms: C_14  and  N_15 
ROOT
HETATM    1  C   UNL     1     -42.264 -51.608  12.581  1.00  0.00     0.160 C 
ENDROOT
BRANCH   1   2
HETATM    2  C   UNL     1     -41.110 -52.626  12.814  1.00  0.00     0.074 C 
HETATM    3  C   UNL     1     -41.643 -54.004  13.251  1.00  0.00     0.040 C 
HETATM    4  C   UNL     1     -41.973 -54.122  14.736  1.00  0.00     0.008 C 
HETATM    5  C   UNL     1     -40.861 -53.626  15.684  1.00  0.00    -0.007 C 
HETATM    6  C   UNL     1     -40.499 -52.183  15.273  1.00  0.00     0.008 C 
HETATM    7  C   UNL     1     -40.097 -52.036  13.814  1.00  0.00     0.040 C 
BRANCH   5   8
HETATM    8  C   UNL     1     -39.655 -54.618  15.945  1.00  0.00    -0.048 C 
HETATM    9  C   UNL     1     -38.845 -55.047  14.709  1.00  0.00     0.015 C 
HETATM   10  C   UNL     1     -40.191 -55.922  16.589  1.00  0.00     0.015 C 
HETATM   11  C   UNL     1     -38.665 -53.993  16.953  1.00  0.00     0.015 C 
ENDBRANCH   5   8
BRANCH   2  12
HETATM   12  O   UNL     1     -40.372 -52.831  11.603  1.00  0.00    -0.388 OA
HETATM   13  H   UNL     1     -40.550 -53.732  11.286  1.00  0.00     0.210 HD
ENDBRANCH   2  12
ENDBRANCH   1   2
BRANCH   1  14
HETATM   14  N   UNL     1     -41.934 -50.568  11.606  1.00  0.00    -0.357 N 
HETATM   15  C   UNL     1     -42.208 -49.236  11.821  1.00  0.00     0.237 C 
HETATM   16  O   UNL     1     -42.682 -48.815  12.873  1.00  0.00    -0.272 OA
HETATM   17  H   UNL     1     -41.642 -50.863  10.678  1.00  0.00     0.162 HD
BRANCH  15  18
HETATM   18  C   UNL     1     -41.817 -48.303  10.707  1.00  0.00     0.252 C 
BRANCH  18  19
HETATM   19  N   UNL     1     -42.974 -47.903   9.954  1.00  0.00    -0.278 N 
HETATM   20  C   UNL     1     -43.045 -47.597   8.633  1.00  0.00     0.201 A 
HETATM   21  N   UNL     1     -44.292 -47.338   8.314  1.00  0.00    -0.346 N 
HETATM   22  C   UNL     1     -44.953 -47.495   9.500  1.00  0.00     0.198 A 
ATOM     23  HN  UNL     1     -44.674 -47.083   7.403  1.00  0.00     0.167 HD
HETATM   24  N   UNL     1     -44.186 -47.836  10.539  1.00  0.00    -0.293 N 
ATOM     25  HN  UNL     1     -44.446 -48.002  11.512  1.00  0.00     0.188 HD
ENDBRANCH  18  19
ENDBRANCH  15  18
ENDBRANCH   1  14
TORSDOF 6
ENDMDL
