MODEL 1
REMARK VINA RESULT:      -6.4      0.000      0.000
REMARK  5 active torsions:
REMARK  status: ('A' for Active; 'I' for Inactive)
REMARK    1  A    between atoms: C_2  and  C_4 
REMARK    2  A    between atoms: C_4  and  N_5 
REMARK    3  A    between atoms: C_9  and  C_10 
REMARK    4  A    between atoms: C_10  and  N_11 
REMARK    5  A    between atoms: N_11  and  C_12 
ROOT
HETATM    1  C   UNL     1     -40.401 -50.699  11.674  1.00  0.00     0.101 A 
HETATM    2  N   UNL     1     -41.505 -49.968  11.401  1.00  0.00    -0.356 N 
ATOM      3  HN  UNL     1     -42.403 -50.426  11.237  1.00  0.00     0.166 HD
HETATM    4  C   UNL     1     -41.400 -48.623  11.350  1.00  0.00     0.089 A 
HETATM    5  C   UNL     1     -40.221 -47.939  11.566  1.00  0.00     0.019 A 
HETATM    6  C   UNL     1     -39.080 -48.685  11.829  1.00  0.00     0.027 A 
HETATM    7  C   UNL     1     -39.159 -50.084  11.870  1.00  0.00     0.082 A 
HETATM    8  C   UNL     1     -37.968 -50.838  12.125  1.00  0.00     0.102 C 
HETATM    9  N   UNL     1     -36.992 -51.417  12.363  1.00  0.00    -0.191 NA
ENDROOT
BRANCH   1  10
HETATM   10  N   UNL     1     -40.523 -52.096  11.700  1.00  0.00    -0.275 NA
HETATM   11  H   UNL     1     -39.947 -52.540  10.993  1.00  0.00     0.129 HD
BRANCH  10  12
HETATM   12  C   UNL     1     -40.376 -52.716  13.029  1.00  0.00     0.127 C 
BRANCH  12  13
HETATM   13  C   UNL     1     -41.756 -53.052  13.616  1.00  0.00     0.163 C 
HETATM   14  O   UNL     1     -41.792 -54.423  14.054  1.00  0.00    -0.381 OA
HETATM   15  C   UNL     1     -43.046 -54.701  14.690  1.00  0.00     0.198 C 
HETATM   16  C   UNL     1     -44.241 -54.405  13.759  1.00  0.00     0.298 C 
HETATM   17  N   UNL     1     -44.232 -53.052  13.141  1.00  0.00     0.093 N 
HETATM   18  C   UNL     1     -42.878 -52.824  12.580  1.00  0.00     0.305 C 
BRANCH  17  19
HETATM   19  C   UNL     1     -44.666 -52.028  14.109  1.00  0.00     0.276 C 
BRANCH  19  20
HETATM   20  C   UNL     1     -46.003 -51.308  13.798  1.00  0.00     0.006 C 
HETATM   21  C   UNL     1     -46.623 -51.770  12.479  1.00  0.00     0.011 C 
HETATM   22  C   UNL     1     -46.998 -51.542  14.943  1.00  0.00     0.011 C 
ENDBRANCH  19  20
ENDBRANCH  17  19
ENDBRANCH  12  13
ENDBRANCH  10  12
ENDBRANCH   1  10
TORSDOF 5
ENDMDL
MODEL 2
REMARK VINA RESULT:      -6.4      2.314      6.035
REMARK  5 active torsions:
REMARK  status: ('A' for Active; 'I' for Inactive)
REMARK    1  A    between atoms: C_2  and  C_4 
REMARK    2  A    between atoms: C_4  and  N_5 
REMARK    3  A    between atoms: C_9  and  C_10 
REMARK    4  A    between atoms: C_10  and  N_11 
REMARK    5  A    between atoms: N_11  and  C_12 
ROOT
HETATM    1  C   UNL     1     -41.835 -52.814  12.122  1.00  0.00     0.101 A 
HETATM    2  N   UNL     1     -43.137 -52.624  11.811  1.00  0.00    -0.356 N 
ATOM      3  HN  UNL     1     -43.403 -51.986  11.060  1.00  0.00     0.166 HD
HETATM    4  C   UNL     1     -44.078 -53.292  12.510  1.00  0.00     0.089 A 
HETATM    5  C   UNL     1     -43.790 -54.172  13.533  1.00  0.00     0.019 A 
HETATM    6  C   UNL     1     -42.456 -54.358  13.870  1.00  0.00     0.027 A 
HETATM    7  C   UNL     1     -41.460 -53.661  13.171  1.00  0.00     0.082 A 
HETATM    8  C   UNL     1     -40.090 -53.852  13.543  1.00  0.00     0.102 C 
HETATM    9  N   UNL     1     -38.990 -54.050  13.850  1.00  0.00    -0.191 NA
ENDROOT
BRANCH   1  10
HETATM   10  N   UNL     1     -40.871 -52.092  11.401  1.00  0.00    -0.275 NA
HETATM   11  H   UNL     1     -40.880 -52.330  10.416  1.00  0.00     0.129 HD
BRANCH  10  12
HETATM   12  C   UNL     1     -40.865 -50.638  11.639  1.00  0.00     0.127 C 
BRANCH  12  13
HETATM   13  C   UNL     1     -39.564 -50.219  12.342  1.00  0.00     0.163 C 
HETATM   14  O   UNL     1     -38.548 -51.222  12.152  1.00  0.00    -0.381 OA
HETATM   15  C   UNL     1     -37.311 -50.781  12.723  1.00  0.00     0.198 C 
HETATM   16  C   UNL     1     -37.457 -50.445  14.222  1.00  0.00     0.298 C 
HETATM   17  N   UNL     1     -38.571 -49.514  14.549  1.00  0.00     0.093 N 
HETATM   18  C   UNL     1     -39.785 -50.006  13.855  1.00  0.00     0.305 C 
BRANCH  17  19
HETATM   19  C   UNL     1     -38.208 -48.123  14.220  1.00  0.00     0.276 C 
BRANCH  19  20
HETATM   20  C   UNL     1     -39.338 -47.070  14.337  1.00  0.00     0.006 C 
HETATM   21  C   UNL     1     -39.043 -46.011  15.400  1.00  0.00     0.011 C 
HETATM   22  C   UNL     1     -39.556 -46.387  12.979  1.00  0.00     0.011 C 
ENDBRANCH  19  20
ENDBRANCH  17  19
ENDBRANCH  12  13
ENDBRANCH  10  12
ENDBRANCH   1  10
TORSDOF 5
ENDMDL
MODEL 3
REMARK VINA RESULT:      -6.3      2.045      6.331
REMARK  5 active torsions:
REMARK  status: ('A' for Active; 'I' for Inactive)
REMARK    1  A    between atoms: C_2  and  C_4 
REMARK    2  A    between atoms: C_4  and  N_5 
REMARK    3  A    between atoms: C_9  and  C_10 
REMARK    4  A    between atoms: C_10  and  N_11 
REMARK    5  A    between atoms: N_11  and  C_12 
ROOT
HETATM    1  C   UNL     1     -44.320 -53.269  12.863  1.00  0.00     0.101 A 
HETATM    2  N   UNL     1     -45.101 -52.329  12.282  1.00  0.00    -0.356 N 
ATOM      3  HN  UNL     1     -44.805 -51.870  11.420  1.00  0.00     0.166 HD
HETATM    4  C   UNL     1     -46.276 -52.009  12.863  1.00  0.00     0.089 A 
HETATM    5  C   UNL     1     -46.739 -52.592  14.025  1.00  0.00     0.019 A 
HETATM    6  C   UNL     1     -45.935 -53.545  14.636  1.00  0.00     0.027 A 
HETATM    7  C   UNL     1     -44.700 -53.882  14.062  1.00  0.00     0.082 A 
HETATM    8  C   UNL     1     -43.876 -54.854  14.715  1.00  0.00     0.102 C 
HETATM    9  N   UNL     1     -43.245 -55.665  15.253  1.00  0.00    -0.191 NA
ENDROOT
BRANCH   1  10
HETATM   10  N   UNL     1     -43.091 -53.572  12.259  1.00  0.00    -0.275 NA
HETATM   11  H   UNL     1     -43.206 -54.154  11.437  1.00  0.00     0.129 HD
BRANCH  10  12
HETATM   12  C   UNL     1     -42.205 -52.419  12.024  1.00  0.00     0.127 C 
BRANCH  12  13
HETATM   13  C   UNL     1     -40.842 -52.648  12.697  1.00  0.00     0.163 C 
HETATM   14  O   UNL     1     -40.807 -53.944  13.324  1.00  0.00    -0.381 OA
HETATM   15  C   UNL     1     -39.503 -54.192  13.864  1.00  0.00     0.198 C 
HETATM   16  C   UNL     1     -39.079 -53.100  14.868  1.00  0.00     0.298 C 
HETATM   17  N   UNL     1     -39.204 -51.705  14.364  1.00  0.00     0.093 N 
HETATM   18  C   UNL     1     -40.549 -51.566  13.758  1.00  0.00     0.305 C 
BRANCH  17  19
HETATM   19  C   UNL     1     -38.092 -51.372  13.453  1.00  0.00     0.276 C 
BRANCH  19  20
HETATM   20  C   UNL     1     -38.221 -50.044  12.666  1.00  0.00     0.006 C 
HETATM   21  C   UNL     1     -37.811 -48.829  13.498  1.00  0.00     0.011 C 
HETATM   22  C   UNL     1     -37.363 -50.108  11.394  1.00  0.00     0.011 C 
ENDBRANCH  19  20
ENDBRANCH  17  19
ENDBRANCH  12  13
ENDBRANCH  10  12
ENDBRANCH   1  10
TORSDOF 5
ENDMDL
MODEL 4
REMARK VINA RESULT:      -6.3      3.275      6.979
REMARK  5 active torsions:
REMARK  status: ('A' for Active; 'I' for Inactive)
REMARK    1  A    between atoms: C_2  and  C_4 
REMARK    2  A    between atoms: C_4  and  N_5 
REMARK    3  A    between atoms: C_9  and  C_10 
REMARK    4  A    between atoms: C_10  and  N_11 
REMARK    5  A    between atoms: N_11  and  C_12 
ROOT
HETATM    1  C   UNL     1     -44.918 -50.883  14.004  1.00  0.00     0.101 A 
HETATM    2  N   UNL     1     -44.541 -50.556  15.261  1.00  0.00    -0.356 N 
ATOM      3  HN  UNL     1     -43.627 -50.138  15.436  1.00  0.00     0.166 HD
HETATM    4  C   UNL     1     -45.395 -50.792  16.279  1.00  0.00     0.089 A 
HETATM    5  C   UNL     1     -46.647 -51.349  16.114  1.00  0.00     0.019 A 
HETATM    6  C   UNL     1     -47.032 -51.704  14.828  1.00  0.00     0.027 A 
HETATM    7  C   UNL     1     -46.155 -51.486  13.755  1.00  0.00     0.082 A 
HETATM    8  C   UNL     1     -46.562 -51.874  12.438  1.00  0.00     0.102 C 
HETATM    9  N   UNL     1     -46.934 -52.173  11.381  1.00  0.00    -0.191 NA
ENDROOT
BRANCH   1  10
HETATM   10  N   UNL     1     -44.008 -50.653  12.961  1.00  0.00    -0.275 NA
HETATM   11  H   UNL     1     -44.465 -50.286  12.133  1.00  0.00     0.129 HD
BRANCH  10  12
HETATM   12  C   UNL     1     -42.803 -49.891  13.333  1.00  0.00     0.127 C 
BRANCH  12  13
HETATM   13  C   UNL     1     -42.291 -49.083  12.130  1.00  0.00     0.163 C 
HETATM   14  O   UNL     1     -40.900 -48.756  12.304  1.00  0.00    -0.381 OA
HETATM   15  C   UNL     1     -40.403 -48.090  11.137  1.00  0.00     0.198 C 
HETATM   16  C   UNL     1     -41.214 -46.819  10.811  1.00  0.00     0.298 C 
HETATM   17  N   UNL     1     -42.687 -47.018  10.739  1.00  0.00     0.093 N 
HETATM   18  C   UNL     1     -43.096 -47.779  11.944  1.00  0.00     0.305 C 
BRANCH  17  19
HETATM   19  C   UNL     1     -43.071 -47.653   9.464  1.00  0.00     0.276 C 
BRANCH  19  20
HETATM   20  C   UNL     1     -44.239 -46.991   8.690  1.00  0.00     0.006 C 
HETATM   21  C   UNL     1     -45.594 -47.614   9.030  1.00  0.00     0.011 C 
HETATM   22  C   UNL     1     -44.277 -45.487   8.991  1.00  0.00     0.011 C 
ENDBRANCH  19  20
ENDBRANCH  17  19
ENDBRANCH  12  13
ENDBRANCH  10  12
ENDBRANCH   1  10
TORSDOF 5
ENDMDL
MODEL 5
REMARK VINA RESULT:      -6.1      1.017      2.278
REMARK  5 active torsions:
REMARK  status: ('A' for Active; 'I' for Inactive)
REMARK    1  A    between atoms: C_2  and  C_4 
REMARK    2  A    between atoms: C_4  and  N_5 
REMARK    3  A    between atoms: C_9  and  C_10 
REMARK    4  A    between atoms: C_10  and  N_11 
REMARK    5  A    between atoms: N_11  and  C_12 
ROOT
HETATM    1  C   UNL     1     -39.395 -51.123  12.728  1.00  0.00     0.101 A 
HETATM    2  N   UNL     1     -38.253 -51.445  13.377  1.00  0.00    -0.356 N 
ATOM      3  HN  UNL     1     -37.969 -52.420  13.476  1.00  0.00     0.166 HD
HETATM    4  C   UNL     1     -37.494 -50.453  13.890  1.00  0.00     0.089 A 
HETATM    5  C   UNL     1     -37.814 -49.114  13.788  1.00  0.00     0.019 A 
HETATM    6  C   UNL     1     -38.994 -48.779  13.139  1.00  0.00     0.027 A 
HETATM    7  C   UNL     1     -39.809 -49.791  12.613  1.00  0.00     0.082 A 
HETATM    8  C   UNL     1     -41.032 -49.428  11.962  1.00  0.00     0.102 C 
HETATM    9  N   UNL     1     -42.001 -49.098  11.417  1.00  0.00    -0.191 NA
ENDROOT
BRANCH   1  10
HETATM   10  N   UNL     1     -40.184 -52.167  12.222  1.00  0.00    -0.275 NA
HETATM   11  H   UNL     1     -39.876 -52.463  11.302  1.00  0.00     0.129 HD
BRANCH  10  12
HETATM   12  C   UNL     1     -40.397 -53.297  13.143  1.00  0.00     0.127 C 
BRANCH  12  13
HETATM   13  C   UNL     1     -41.870 -53.358  13.580  1.00  0.00     0.163 C 
HETATM   14  O   UNL     1     -42.189 -54.670  14.080  1.00  0.00    -0.381 OA
HETATM   15  C   UNL     1     -43.533 -54.692  14.577  1.00  0.00     0.198 C 
HETATM   16  C   UNL     1     -44.551 -54.268  13.498  1.00  0.00     0.298 C 
HETATM   17  N   UNL     1     -44.243 -52.982  12.817  1.00  0.00     0.093 N 
HETATM   18  C   UNL     1     -42.818 -53.021  12.409  1.00  0.00     0.305 C 
BRANCH  17  19
HETATM   19  C   UNL     1     -44.596 -51.834  13.674  1.00  0.00     0.276 C 
BRANCH  19  20
HETATM   20  C   UNL     1     -46.024 -51.259  13.501  1.00  0.00     0.006 C 
HETATM   21  C   UNL     1     -46.723 -51.795  12.252  1.00  0.00     0.011 C 
HETATM   22  C   UNL     1     -46.869 -51.585  14.741  1.00  0.00     0.011 C 
ENDBRANCH  19  20
ENDBRANCH  17  19
ENDBRANCH  12  13
ENDBRANCH  10  12
ENDBRANCH   1  10
TORSDOF 5
ENDMDL
MODEL 6
REMARK VINA RESULT:      -5.8      2.742      6.233
REMARK  5 active torsions:
REMARK  status: ('A' for Active; 'I' for Inactive)
REMARK    1  A    between atoms: C_2  and  C_4 
REMARK    2  A    between atoms: C_4  and  N_5 
REMARK    3  A    between atoms: C_9  and  C_10 
REMARK    4  A    between atoms: C_10  and  N_11 
REMARK    5  A    between atoms: N_11  and  C_12 
ROOT
HETATM    1  C   UNL     1     -44.632 -53.034  12.951  1.00  0.00     0.101 A 
HETATM    2  N   UNL     1     -45.310 -51.963  12.479  1.00  0.00    -0.356 N 
ATOM      3  HN  UNL     1     -45.036 -51.521  11.601  1.00  0.00     0.166 HD
HETATM    4  C   UNL     1     -46.354 -51.488  13.191  1.00  0.00     0.089 A 
HETATM    5  C   UNL     1     -46.781 -52.038  14.382  1.00  0.00     0.019 A 
HETATM    6  C   UNL     1     -46.078 -53.127  14.881  1.00  0.00     0.027 A 
HETATM    7  C   UNL     1     -44.978 -53.628  14.169  1.00  0.00     0.082 A 
HETATM    8  C   UNL     1     -44.254 -54.740  14.707  1.00  0.00     0.102 C 
HETATM    9  N   UNL     1     -43.707 -55.659  15.155  1.00  0.00    -0.191 NA
ENDROOT
BRANCH   1  10
HETATM   10  N   UNL     1     -43.534 -53.499  12.211  1.00  0.00    -0.275 NA
HETATM   11  H   UNL     1     -43.818 -53.900  11.323  1.00  0.00     0.129 HD
BRANCH  10  12
HETATM   12  C   UNL     1     -42.417 -52.547  12.076  1.00  0.00     0.127 C 
BRANCH  12  13
HETATM   13  C   UNL     1     -41.387 -52.774  13.194  1.00  0.00     0.163 C 
HETATM   14  O   UNL     1     -40.398 -51.728  13.182  1.00  0.00    -0.381 OA
HETATM   15  C   UNL     1     -39.499 -51.889  14.285  1.00  0.00     0.198 C 
HETATM   16  C   UNL     1     -38.814 -53.272  14.271  1.00  0.00     0.298 C 
HETATM   17  N   UNL     1     -39.743 -54.429  14.150  1.00  0.00     0.093 N 
HETATM   18  C   UNL     1     -40.680 -54.137  13.039  1.00  0.00     0.305 C 
BRANCH  17  19
HETATM   19  C   UNL     1     -40.403 -54.711  15.439  1.00  0.00     0.276 C 
BRANCH  19  20
HETATM   20  C   UNL     1     -39.692 -55.727  16.369  1.00  0.00     0.006 C 
HETATM   21  C   UNL     1     -38.941 -55.046  17.513  1.00  0.00     0.011 C 
HETATM   22  C   UNL     1     -40.720 -56.712  16.945  1.00  0.00     0.011 C 
ENDBRANCH  19  20
ENDBRANCH  17  19
ENDBRANCH  12  13
ENDBRANCH  10  12
ENDBRANCH   1  10
TORSDOF 5
ENDMDL
MODEL 7
REMARK VINA RESULT:      -5.8      2.335      6.868
REMARK  5 active torsions:
REMARK  status: ('A' for Active; 'I' for Inactive)
REMARK    1  A    between atoms: C_2  and  C_4 
REMARK    2  A    between atoms: C_4  and  N_5 
REMARK    3  A    between atoms: C_9  and  C_10 
REMARK    4  A    between atoms: C_10  and  N_11 
REMARK    5  A    between atoms: N_11  and  C_12 
ROOT
HETATM    1  C   UNL     1     -44.737 -50.899  13.834  1.00  0.00     0.101 A 
HETATM    2  N   UNL     1     -44.269 -50.539  15.051  1.00  0.00    -0.356 N 
ATOM      3  HN  UNL     1     -43.326 -50.163  15.155  1.00  0.00     0.166 HD
HETATM    4  C   UNL     1     -45.072 -50.685  16.127  1.00  0.00     0.089 A 
HETATM    5  C   UNL     1     -46.358 -51.181  16.060  1.00  0.00     0.019 A 
HETATM    6  C   UNL     1     -46.838 -51.569  14.816  1.00  0.00     0.027 A 
HETATM    7  C   UNL     1     -46.017 -51.444  13.686  1.00  0.00     0.082 A 
HETATM    8  C   UNL     1     -46.522 -51.865  12.413  1.00  0.00     0.102 C 
HETATM    9  N   UNL     1     -46.971 -52.189  11.394  1.00  0.00    -0.191 NA
ENDROOT
BRANCH   1  10
HETATM   10  N   UNL     1     -43.881 -50.762  12.731  1.00  0.00    -0.275 NA
HETATM   11  H   UNL     1     -43.807 -49.798  12.426  1.00  0.00     0.129 HD
BRANCH  10  12
HETATM   12  C   UNL     1     -42.570 -51.421  12.867  1.00  0.00     0.127 C 
BRANCH  12  13
HETATM   13  C   UNL     1     -41.453 -50.494  12.361  1.00  0.00     0.163 C 
HETATM   14  O   UNL     1     -40.187 -51.179  12.384  1.00  0.00    -0.381 OA
HETATM   15  C   UNL     1     -39.168 -50.346  11.819  1.00  0.00     0.198 C 
HETATM   16  C   UNL     1     -39.058 -48.994  12.555  1.00  0.00     0.298 C 
HETATM   17  N   UNL     1     -40.343 -48.258  12.706  1.00  0.00     0.093 N 
HETATM   18  C   UNL     1     -41.350 -49.216  13.221  1.00  0.00     0.305 C 
BRANCH  17  19
HETATM   19  C   UNL     1     -40.724 -47.598  11.443  1.00  0.00     0.276 C 
BRANCH  19  20
HETATM   20  C   UNL     1     -40.855 -46.055  11.484  1.00  0.00     0.006 C 
HETATM   21  C   UNL     1     -40.575 -45.481  12.873  1.00  0.00     0.011 C 
HETATM   22  C   UNL     1     -39.896 -45.424  10.465  1.00  0.00     0.011 C 
ENDBRANCH  19  20
ENDBRANCH  17  19
ENDBRANCH  12  13
ENDBRANCH  10  12
ENDBRANCH   1  10
TORSDOF 5
ENDMDL
MODEL 8
REMARK VINA RESULT:      -5.8      2.888      6.067
REMARK  5 active torsions:
REMARK  status: ('A' for Active; 'I' for Inactive)
REMARK    1  A    between atoms: C_2  and  C_4 
REMARK    2  A    between atoms: C_4  and  N_5 
REMARK    3  A    between atoms: C_9  and  C_10 
REMARK    4  A    between atoms: C_10  and  N_11 
REMARK    5  A    between atoms: N_11  and  C_12 
ROOT
HETATM    1  C   UNL     1     -42.475 -52.170  12.719  1.00  0.00     0.101 A 
HETATM    2  N   UNL     1     -43.794 -51.906  12.572  1.00  0.00    -0.356 N 
ATOM      3  HN  UNL     1     -44.109 -50.976  12.295  1.00  0.00     0.166 HD
HETATM    4  C   UNL     1     -44.685 -52.895  12.798  1.00  0.00     0.089 A 
HETATM    5  C   UNL     1     -44.329 -54.176  13.170  1.00  0.00     0.019 A 
HETATM    6  C   UNL     1     -42.978 -54.448  13.340  1.00  0.00     0.027 A 
HETATM    7  C   UNL     1     -42.033 -53.432  13.129  1.00  0.00     0.082 A 
HETATM    8  C   UNL     1     -40.645 -53.726  13.326  1.00  0.00     0.102 C 
HETATM    9  N   UNL     1     -39.528 -54.004  13.467  1.00  0.00    -0.191 NA
ENDROOT
BRANCH   1  10
HETATM   10  N   UNL     1     -41.565 -51.124  12.504  1.00  0.00    -0.275 NA
HETATM   11  H   UNL     1     -41.244 -51.094  11.543  1.00  0.00     0.129 HD
BRANCH  10  12
HETATM   12  C   UNL     1     -41.991 -49.806  13.007  1.00  0.00     0.127 C 
BRANCH  12  13
HETATM   13  C   UNL     1     -41.753 -48.727  11.938  1.00  0.00     0.163 C 
HETATM   14  O   UNL     1     -40.515 -48.036  12.192  1.00  0.00    -0.381 OA
HETATM   15  C   UNL     1     -40.251 -47.101  11.140  1.00  0.00     0.198 C 
HETATM   16  C   UNL     1     -41.402 -46.089  10.967  1.00  0.00     0.298 C 
HETATM   17  N   UNL     1     -42.754 -46.696  10.829  1.00  0.00     0.093 N 
HETATM   18  C   UNL     1     -42.906 -47.701  11.909  1.00  0.00     0.305 C 
BRANCH  17  19
HETATM   19  C   UNL     1     -42.954 -47.234   9.470  1.00  0.00     0.276 C 
BRANCH  19  20
HETATM   20  C   UNL     1     -44.234 -46.774   8.729  1.00  0.00     0.006 C 
HETATM   21  C   UNL     1     -45.457 -47.615   9.098  1.00  0.00     0.011 C 
HETATM   22  C   UNL     1     -44.514 -45.297   9.041  1.00  0.00     0.011 C 
ENDBRANCH  19  20
ENDBRANCH  17  19
ENDBRANCH  12  13
ENDBRANCH  10  12
ENDBRANCH   1  10
TORSDOF 5
ENDMDL
MODEL 9
REMARK VINA RESULT:      -5.8      2.102      6.401
REMARK  5 active torsions:
REMARK  status: ('A' for Active; 'I' for Inactive)
REMARK    1  A    between atoms: C_2  and  C_4 
REMARK    2  A    between atoms: C_4  and  N_5 
REMARK    3  A    between atoms: C_9  and  C_10 
REMARK    4  A    between atoms: C_10  and  N_11 
REMARK    5  A    between atoms: N_11  and  C_12 
ROOT
HETATM    1  C   UNL     1     -42.824 -52.832  12.551  1.00  0.00     0.101 A 
HETATM    2  N   UNL     1     -44.174 -52.844  12.482  1.00  0.00    -0.356 N 
ATOM      3  HN  UNL     1     -44.670 -52.174  11.893  1.00  0.00     0.166 HD
HETATM    4  C   UNL     1     -44.856 -53.759  13.205  1.00  0.00     0.089 A 
HETATM    5  C   UNL     1     -44.251 -54.696  14.016  1.00  0.00     0.019 A 
HETATM    6  C   UNL     1     -42.866 -54.678  14.106  1.00  0.00     0.027 A 
HETATM    7  C   UNL     1     -42.136 -53.726  13.379  1.00  0.00     0.082 A 
HETATM    8  C   UNL     1     -40.709 -53.710  13.497  1.00  0.00     0.102 C 
HETATM    9  N   UNL     1     -39.553 -53.742  13.593  1.00  0.00    -0.191 NA
ENDROOT
BRANCH   1  10
HETATM   10  N   UNL     1     -42.133 -51.860  11.812  1.00  0.00    -0.275 NA
HETATM   11  H   UNL     1     -42.289 -51.960  10.815  1.00  0.00     0.129 HD
BRANCH  10  12
HETATM   12  C   UNL     1     -42.306 -50.474  12.281  1.00  0.00     0.127 C 
BRANCH  12  13
HETATM   13  C   UNL     1     -41.024 -49.664  12.031  1.00  0.00     0.163 C 
HETATM   14  O   UNL     1     -39.864 -50.445  12.376  1.00  0.00    -0.381 OA
HETATM   15  C   UNL     1     -38.671 -49.723  12.049  1.00  0.00     0.198 C 
HETATM   16  C   UNL     1     -38.619 -48.350  12.752  1.00  0.00     0.298 C 
HETATM   17  N   UNL     1     -39.833 -47.508  12.570  1.00  0.00     0.093 N 
HETATM   18  C   UNL     1     -41.014 -48.358  12.854  1.00  0.00     0.305 C 
BRANCH  17  19
HETATM   19  C   UNL     1     -39.845 -46.882  11.235  1.00  0.00     0.276 C 
BRANCH  19  20
HETATM   20  C   UNL     1     -40.097 -45.354  11.192  1.00  0.00     0.006 C 
HETATM   21  C   UNL     1     -39.442 -44.686   9.983  1.00  0.00     0.011 C 
HETATM   22  C   UNL     1     -41.607 -45.077  11.176  1.00  0.00     0.011 C 
ENDBRANCH  19  20
ENDBRANCH  17  19
ENDBRANCH  12  13
ENDBRANCH  10  12
ENDBRANCH   1  10
TORSDOF 5
ENDMDL
