MODEL 1
REMARK VINA RESULT:      -5.6      0.000      0.000
REMARK  3 active torsions:
REMARK  status: ('A' for Active; 'I' for Inactive)
REMARK    1  A    between atoms: C_2  and  N_3 
REMARK       I    between atoms: N_3  and  C_4 
REMARK       I    between atoms: C_4  and  N_6 
REMARK    2  A    between atoms: N_6  and  C_7 
REMARK    3  A    between atoms: C_12  and  C_14 
ROOT
HETATM    1  C   UNL     1     -41.446 -48.821  11.241  1.00  0.00     0.169 A 
HETATM    2  N   UNL     1     -40.852 -49.555  10.332  1.00  0.00    -0.279 N 
ATOM      3  HN  UNL     1     -41.297 -49.863   9.468  1.00  0.00     0.189 HD
HETATM    4  N   UNL     1     -39.554 -49.861  10.684  1.00  0.00    -0.296 N 
ATOM      5  HN  UNL     1     -38.923 -50.425  10.114  1.00  0.00     0.187 HD
HETATM    6  C   UNL     1     -39.227 -49.337  11.845  1.00  0.00     0.074 A 
HETATM    7  S   UNL     1     -40.496 -48.479  12.620  1.00  0.00    -0.037 SA
ENDROOT
BRANCH   1   8
HETATM    8  N   UNL     1     -42.709 -48.292  11.245  1.00  0.00    -0.288 N 
HETATM    9  C   UNL     1     -43.256 -47.835  10.074  1.00  0.00     0.322 C 
HETATM   10  N   UNL     1     -44.541 -47.343  10.263  1.00  0.00    -0.343 N 
HETATM   11  O   UNL     1     -42.708 -47.799   8.981  1.00  0.00    -0.247 OA
HETATM   12  H   UNL     1     -45.108 -47.895  10.891  1.00  0.00     0.164 HD
HETATM   13  H   UNL     1     -43.079 -47.957  12.119  1.00  0.00     0.172 HD
BRANCH  10  14
HETATM   14  C   UNL     1     -45.209 -46.790   9.096  1.00  0.00     0.120 C 
HETATM   15  C   UNL     1     -46.688 -47.108   9.065  1.00  0.00     0.026 C 
ENDBRANCH  10  14
ENDBRANCH   1   8
BRANCH   6  16
HETATM   16  C   UNL     1     -37.833 -49.495  12.448  1.00  0.00     0.044 A 
HETATM   17  C   UNL     1     -37.439 -50.842  13.027  1.00  0.00     0.012 A 
HETATM   18  C   UNL     1     -37.735 -49.708  13.947  1.00  0.00     0.012 A 
ENDBRANCH   6  16
TORSDOF 3
ENDMDL
MODEL 2
REMARK VINA RESULT:      -5.4      4.768      5.401
REMARK  3 active torsions:
REMARK  status: ('A' for Active; 'I' for Inactive)
REMARK    1  A    between atoms: C_2  and  N_3 
REMARK       I    between atoms: N_3  and  C_4 
REMARK       I    between atoms: C_4  and  N_6 
REMARK    2  A    between atoms: N_6  and  C_7 
REMARK    3  A    between atoms: C_12  and  C_14 
ROOT
HETATM    1  C   UNL     1     -41.490 -52.521  12.612  1.00  0.00     0.169 A 
HETATM    2  N   UNL     1     -41.613 -52.214  11.344  1.00  0.00    -0.279 N 
ATOM      3  HN  UNL     1     -42.251 -52.685  10.702  1.00  0.00     0.189 HD
HETATM    4  N   UNL     1     -40.777 -51.177  10.981  1.00  0.00    -0.296 N 
ATOM      5  HN  UNL     1     -40.720 -50.791  10.039  1.00  0.00     0.187 HD
HETATM    6  C   UNL     1     -40.064 -50.747  11.998  1.00  0.00     0.074 A 
HETATM    7  S   UNL     1     -40.319 -51.611  13.461  1.00  0.00    -0.037 SA
ENDROOT
BRANCH   1   8
HETATM    8  N   UNL     1     -42.161 -53.460  13.350  1.00  0.00    -0.288 N 
HETATM    9  C   UNL     1     -43.479 -53.720  13.078  1.00  0.00     0.322 C 
HETATM   10  N   UNL     1     -43.994 -54.701  13.915  1.00  0.00    -0.343 N 
HETATM   11  O   UNL     1     -44.175 -53.156  12.246  1.00  0.00    -0.247 OA
HETATM   12  H   UNL     1     -43.363 -55.472  14.088  1.00  0.00     0.164 HD
HETATM   13  H   UNL     1     -41.793 -53.701  14.255  1.00  0.00     0.172 HD
BRANCH  10  14
HETATM   14  C   UNL     1     -45.398 -55.034  13.748  1.00  0.00     0.120 C 
HETATM   15  C   UNL     1     -46.276 -54.418  14.816  1.00  0.00     0.026 C 
ENDBRANCH  10  14
ENDBRANCH   1   8
BRANCH   6  16
HETATM   16  C   UNL     1     -39.086 -49.581  11.875  1.00  0.00     0.044 A 
HETATM   17  C   UNL     1     -37.672 -49.865  11.403  1.00  0.00     0.012 A 
HETATM   18  C   UNL     1     -37.914 -49.541  12.836  1.00  0.00     0.012 A 
ENDBRANCH   6  16
TORSDOF 3
ENDMDL
MODEL 3
REMARK VINA RESULT:      -5.3      3.524      4.369
REMARK  3 active torsions:
REMARK  status: ('A' for Active; 'I' for Inactive)
REMARK    1  A    between atoms: C_2  and  N_3 
REMARK       I    between atoms: N_3  and  C_4 
REMARK       I    between atoms: C_4  and  N_6 
REMARK    2  A    between atoms: N_6  and  C_7 
REMARK    3  A    between atoms: C_12  and  C_14 
ROOT
HETATM    1  C   UNL     1     -40.400 -50.491  12.021  1.00  0.00     0.169 A 
HETATM    2  N   UNL     1     -40.787 -51.182  10.976  1.00  0.00    -0.279 N 
ATOM      3  HN  UNL     1     -40.868 -50.796  10.035  1.00  0.00     0.189 HD
HETATM    4  N   UNL     1     -41.072 -52.492  11.301  1.00  0.00    -0.296 N 
ATOM      5  HN  UNL     1     -41.392 -53.192  10.631  1.00  0.00     0.187 HD
HETATM    6  C   UNL     1     -40.881 -52.729  12.580  1.00  0.00     0.074 A 
HETATM    7  S   UNL     1     -40.393 -51.359  13.493  1.00  0.00    -0.037 SA
ENDROOT
BRANCH   1   8
HETATM    8  N   UNL     1     -40.003 -49.182  12.101  1.00  0.00    -0.288 N 
HETATM    9  C   UNL     1     -40.617 -48.238  11.319  1.00  0.00     0.322 C 
HETATM   10  N   UNL     1     -40.094 -46.970  11.536  1.00  0.00    -0.343 N 
HETATM   11  O   UNL     1     -41.488 -48.440  10.485  1.00  0.00    -0.247 OA
HETATM   12  H   UNL     1     -39.904 -46.761  12.507  1.00  0.00     0.164 HD
HETATM   13  H   UNL     1     -39.087 -48.988  12.471  1.00  0.00     0.172 HD
BRANCH  10  14
HETATM   14  C   UNL     1     -40.640 -45.890  10.732  1.00  0.00     0.120 C 
HETATM   15  C   UNL     1     -39.570 -44.972  10.182  1.00  0.00     0.026 C 
ENDBRANCH  10  14
ENDBRANCH   1   8
BRANCH   6  16
HETATM   16  C   UNL     1     -41.089 -54.112  13.193  1.00  0.00     0.044 A 
HETATM   17  C   UNL     1     -42.363 -54.376  13.976  1.00  0.00     0.012 A 
HETATM   18  C   UNL     1     -41.074 -54.220  14.707  1.00  0.00     0.012 A 
ENDBRANCH   6  16
TORSDOF 3
ENDMDL
MODEL 4
REMARK VINA RESULT:      -5.2      4.142      6.681
REMARK  3 active torsions:
REMARK  status: ('A' for Active; 'I' for Inactive)
REMARK    1  A    between atoms: C_2  and  N_3 
REMARK       I    between atoms: N_3  and  C_4 
REMARK       I    between atoms: C_4  and  N_6 
REMARK    2  A    between atoms: N_6  and  C_7 
REMARK    3  A    between atoms: C_12  and  C_14 
ROOT
HETATM    1  C   UNL     1     -41.979 -52.107  12.703  1.00  0.00     0.169 A 
HETATM    2  N   UNL     1     -42.447 -52.821  11.708  1.00  0.00    -0.279 N 
ATOM      3  HN  UNL     1     -41.874 -53.175  10.941  1.00  0.00     0.189 HD
HETATM    4  N   UNL     1     -43.805 -53.037  11.821  1.00  0.00    -0.296 N 
ATOM      5  HN  UNL     1     -44.359 -53.566  11.148  1.00  0.00     0.187 HD
HETATM    6  C   UNL     1     -44.298 -52.477  12.904  1.00  0.00     0.074 A 
HETATM    7  S   UNL     1     -43.153 -51.598  13.835  1.00  0.00    -0.037 SA
ENDROOT
BRANCH   1   8
HETATM    8  N   UNL     1     -40.693 -51.713  12.964  1.00  0.00    -0.288 N 
HETATM    9  C   UNL     1     -40.114 -50.739  12.193  1.00  0.00     0.322 C 
HETATM   10  N   UNL     1     -38.816 -50.462  12.603  1.00  0.00    -0.343 N 
HETATM   11  O   UNL     1     -40.614 -50.182  11.226  1.00  0.00    -0.247 OA
HETATM   12  H   UNL     1     -38.695 -50.437  13.607  1.00  0.00     0.164 HD
HETATM   13  H   UNL     1     -40.102 -52.343  13.480  1.00  0.00     0.172 HD
BRANCH  10  14
HETATM   14  C   UNL     1     -38.083 -49.471  11.834  1.00  0.00     0.120 C 
HETATM   15  C   UNL     1     -37.135 -50.093  10.832  1.00  0.00     0.026 C 
ENDBRANCH  10  14
ENDBRANCH   1   8
BRANCH   6  16
HETATM   16  C   UNL     1     -45.772 -52.597  13.285  1.00  0.00     0.044 A 
HETATM   17  C   UNL     1     -46.762 -51.618  12.680  1.00  0.00     0.012 A 
HETATM   18  C   UNL     1     -46.378 -51.478  14.113  1.00  0.00     0.012 A 
ENDBRANCH   6  16
TORSDOF 3
ENDMDL
MODEL 5
REMARK VINA RESULT:      -5.2      2.798      6.427
REMARK  3 active torsions:
REMARK  status: ('A' for Active; 'I' for Inactive)
REMARK    1  A    between atoms: C_2  and  N_3 
REMARK       I    between atoms: N_3  and  C_4 
REMARK       I    between atoms: C_4  and  N_6 
REMARK    2  A    between atoms: N_6  and  C_7 
REMARK    3  A    between atoms: C_12  and  C_14 
ROOT
HETATM    1  C   UNL     1     -41.308 -49.581  11.716  1.00  0.00     0.169 A 
HETATM    2  N   UNL     1     -40.870 -49.419  10.491  1.00  0.00    -0.279 N 
ATOM      3  HN  UNL     1     -40.074 -49.921  10.099  1.00  0.00     0.189 HD
HETATM    4  N   UNL     1     -41.614 -48.487   9.796  1.00  0.00    -0.296 N 
ATOM      5  HN  UNL     1     -41.434 -48.215   8.830  1.00  0.00     0.187 HD
HETATM    6  C   UNL     1     -42.585 -47.992  10.532  1.00  0.00     0.074 A 
HETATM    7  S   UNL     1     -42.629 -48.585  12.143  1.00  0.00    -0.037 SA
ENDROOT
BRANCH   1   8
HETATM    8  N   UNL     1     -40.862 -50.428  12.695  1.00  0.00    -0.288 N 
HETATM    9  C   UNL     1     -40.905 -51.783  12.490  1.00  0.00     0.322 C 
HETATM   10  N   UNL     1     -40.407 -52.485  13.580  1.00  0.00    -0.343 N 
HETATM   11  O   UNL     1     -41.355 -52.356  11.509  1.00  0.00    -0.247 OA
HETATM   12  H   UNL     1     -39.584 -52.073  13.998  1.00  0.00     0.164 HD
HETATM   13  H   UNL     1     -40.818 -50.079  13.638  1.00  0.00     0.172 HD
BRANCH  10  14
HETATM   14  C   UNL     1     -40.439 -53.935  13.496  1.00  0.00     0.120 C 
HETATM   15  C   UNL     1     -39.225 -54.584  14.124  1.00  0.00     0.026 C 
ENDBRANCH  10  14
ENDBRANCH   1   8
BRANCH   6  16
HETATM   16  C   UNL     1     -43.579 -46.968   9.989  1.00  0.00     0.044 A 
HETATM   17  C   UNL     1     -44.904 -47.463   9.437  1.00  0.00     0.012 A 
HETATM   18  C   UNL     1     -43.855 -46.978   8.497  1.00  0.00     0.012 A 
ENDBRANCH   6  16
TORSDOF 3
ENDMDL
MODEL 6
REMARK VINA RESULT:      -5.1      3.320      5.420
REMARK  3 active torsions:
REMARK  status: ('A' for Active; 'I' for Inactive)
REMARK    1  A    between atoms: C_2  and  N_3 
REMARK       I    between atoms: N_3  and  C_4 
REMARK       I    between atoms: C_4  and  N_6 
REMARK    2  A    between atoms: N_6  and  C_7 
REMARK    3  A    between atoms: C_12  and  C_14 
ROOT
HETATM    1  C   UNL     1     -40.655 -49.161  10.854  1.00  0.00     0.169 A 
HETATM    2  N   UNL     1     -41.488 -48.671   9.968  1.00  0.00    -0.279 N 
ATOM      3  HN  UNL     1     -42.001 -49.238   9.293  1.00  0.00     0.189 HD
HETATM    4  N   UNL     1     -41.588 -47.298  10.058  1.00  0.00    -0.296 N 
ATOM      5  HN  UNL     1     -42.181 -46.726   9.457  1.00  0.00     0.187 HD
HETATM    6  C   UNL     1     -40.827 -46.816  11.015  1.00  0.00     0.074 A 
HETATM    7  S   UNL     1     -39.889 -47.994  11.840  1.00  0.00    -0.037 SA
ENDROOT
BRANCH   1   8
HETATM    8  N   UNL     1     -40.314 -50.464  11.101  1.00  0.00    -0.288 N 
HETATM    9  C   UNL     1     -41.161 -51.261  11.826  1.00  0.00     0.322 C 
HETATM   10  N   UNL     1     -40.660 -52.548  11.971  1.00  0.00    -0.343 N 
HETATM   11  O   UNL     1     -42.216 -50.920  12.343  1.00  0.00    -0.247 OA
HETATM   12  H   UNL     1     -40.223 -52.919  11.139  1.00  0.00     0.164 HD
HETATM   13  H   UNL     1     -39.342 -50.718  11.034  1.00  0.00     0.172 HD
BRANCH  10  14
HETATM   14  C   UNL     1     -41.454 -53.475  12.759  1.00  0.00     0.120 C 
HETATM   15  C   UNL     1     -40.687 -54.056  13.927  1.00  0.00     0.026 C 
ENDBRANCH  10  14
ENDBRANCH   1   8
BRANCH   6  16
HETATM   16  C   UNL     1     -40.781 -45.326  11.350  1.00  0.00     0.044 A 
HETATM   17  C   UNL     1     -39.810 -44.440  10.590  1.00  0.00     0.012 A 
HETATM   18  C   UNL     1     -39.523 -44.792  12.009  1.00  0.00     0.012 A 
ENDBRANCH   6  16
TORSDOF 3
ENDMDL
MODEL 7
REMARK VINA RESULT:      -4.8      3.212      3.722
REMARK  3 active torsions:
REMARK  status: ('A' for Active; 'I' for Inactive)
REMARK    1  A    between atoms: C_2  and  N_3 
REMARK       I    between atoms: N_3  and  C_4 
REMARK       I    between atoms: C_4  and  N_6 
REMARK    2  A    between atoms: N_6  and  C_7 
REMARK    3  A    between atoms: C_12  and  C_14 
ROOT
HETATM    1  C   UNL     1     -41.805 -51.587  12.202  1.00  0.00     0.169 A 
HETATM    2  N   UNL     1     -41.450 -52.463  11.294  1.00  0.00    -0.279 N 
ATOM      3  HN  UNL     1     -41.719 -52.407  10.312  1.00  0.00     0.189 HD
HETATM    4  N   UNL     1     -40.669 -53.469  11.825  1.00  0.00    -0.296 N 
ATOM      5  HN  UNL     1     -40.293 -54.248  11.284  1.00  0.00     0.187 HD
HETATM    6  C   UNL     1     -40.467 -53.301  13.113  1.00  0.00     0.074 A 
HETATM    7  S   UNL     1     -41.260 -51.934  13.784  1.00  0.00    -0.037 SA
ENDROOT
BRANCH   1   8
HETATM    8  N   UNL     1     -42.544 -50.442  12.066  1.00  0.00    -0.288 N 
HETATM    9  C   UNL     1     -41.988 -49.344  11.462  1.00  0.00     0.322 C 
HETATM   10  N   UNL     1     -42.880 -48.282  11.403  1.00  0.00    -0.343 N 
HETATM   11  O   UNL     1     -40.842 -49.244  11.049  1.00  0.00    -0.247 OA
HETATM   12  H   UNL     1     -43.828 -48.548  11.171  1.00  0.00     0.164 HD
HETATM   13  H   UNL     1     -43.335 -50.315  12.676  1.00  0.00     0.172 HD
BRANCH  10  14
HETATM   14  C   UNL     1     -42.389 -47.045  10.819  1.00  0.00     0.120 C 
HETATM   15  C   UNL     1     -43.013 -46.746   9.474  1.00  0.00     0.026 C 
ENDBRANCH  10  14
ENDBRANCH   1   8
BRANCH   6  16
HETATM   16  C   UNL     1     -39.603 -54.255  13.935  1.00  0.00     0.044 A 
HETATM   17  C   UNL     1     -40.175 -54.829  15.219  1.00  0.00     0.012 A 
HETATM   18  C   UNL     1     -39.123 -53.776  15.292  1.00  0.00     0.012 A 
ENDBRANCH   6  16
TORSDOF 3
ENDMDL
MODEL 8
REMARK VINA RESULT:      -4.6      4.173      4.458
REMARK  3 active torsions:
REMARK  status: ('A' for Active; 'I' for Inactive)
REMARK    1  A    between atoms: C_2  and  N_3 
REMARK       I    between atoms: N_3  and  C_4 
REMARK       I    between atoms: C_4  and  N_6 
REMARK    2  A    between atoms: N_6  and  C_7 
REMARK    3  A    between atoms: C_12  and  C_14 
ROOT
HETATM    1  C   UNL     1     -42.015 -51.592  13.045  1.00  0.00     0.169 A 
HETATM    2  N   UNL     1     -41.935 -51.844  11.761  1.00  0.00    -0.279 N 
ATOM      3  HN  UNL     1     -42.627 -52.383  11.241  1.00  0.00     0.189 HD
HETATM    4  N   UNL     1     -40.804 -51.291  11.197  1.00  0.00    -0.296 N 
ATOM      5  HN  UNL     1     -40.556 -51.375  10.211  1.00  0.00     0.187 HD
HETATM    6  C   UNL     1     -40.083 -50.643  12.085  1.00  0.00     0.074 A 
HETATM    7  S   UNL     1     -40.702 -50.705  13.686  1.00  0.00    -0.037 SA
ENDROOT
BRANCH   1   8
HETATM    8  N   UNL     1     -42.992 -51.937  13.941  1.00  0.00    -0.288 N 
HETATM    9  C   UNL     1     -44.258 -51.431  13.790  1.00  0.00     0.322 C 
HETATM   10  N   UNL     1     -45.117 -51.891  14.780  1.00  0.00    -0.343 N 
HETATM   11  O   UNL     1     -44.627 -50.636  12.938  1.00  0.00    -0.247 OA
HETATM   12  H   UNL     1     -44.999 -52.868  15.011  1.00  0.00     0.164 HD
HETATM   13  H   UNL     1     -42.707 -52.276  14.844  1.00  0.00     0.172 HD
BRANCH  10  14
HETATM   14  C   UNL     1     -46.480 -51.389  14.749  1.00  0.00     0.120 C 
HETATM   15  C   UNL     1     -47.274 -51.777  15.977  1.00  0.00     0.026 C 
ENDBRANCH  10  14
ENDBRANCH   1   8
BRANCH   6  16
HETATM   16  C   UNL     1     -38.798 -49.906  11.713  1.00  0.00     0.044 A 
HETATM   17  C   UNL     1     -37.469 -50.602  11.945  1.00  0.00     0.012 A 
HETATM   18  C   UNL     1     -37.877 -49.484  12.842  1.00  0.00     0.012 A 
ENDBRANCH   6  16
TORSDOF 3
ENDMDL
MODEL 9
REMARK VINA RESULT:      -4.6      3.931      4.594
REMARK  3 active torsions:
REMARK  status: ('A' for Active; 'I' for Inactive)
REMARK    1  A    between atoms: C_2  and  N_3 
REMARK       I    between atoms: N_3  and  C_4 
REMARK       I    between atoms: C_4  and  N_6 
REMARK    2  A    between atoms: N_6  and  C_7 
REMARK    3  A    between atoms: C_12  and  C_14 
ROOT
HETATM    1  C   UNL     1     -41.449 -50.854  12.055  1.00  0.00     0.169 A 
HETATM    2  N   UNL     1     -40.451 -51.226  11.293  1.00  0.00    -0.279 N 
ATOM      3  HN  UNL     1     -40.507 -51.981  10.608  1.00  0.00     0.189 HD
HETATM    4  N   UNL     1     -39.316 -50.477  11.525  1.00  0.00    -0.296 N 
ATOM      5  HN  UNL     1     -38.431 -50.611  11.037  1.00  0.00     0.187 HD
HETATM    6  C   UNL     1     -39.515 -49.567  12.453  1.00  0.00     0.074 A 
HETATM    7  S   UNL     1     -41.084 -49.594  13.151  1.00  0.00    -0.037 SA
ENDROOT
BRANCH   1   8
HETATM    8  N   UNL     1     -42.735 -51.325  12.100  1.00  0.00    -0.288 N 
HETATM    9  C   UNL     1     -42.969 -52.620  12.485  1.00  0.00     0.322 C 
HETATM   10  N   UNL     1     -44.324 -52.922  12.480  1.00  0.00    -0.343 N 
HETATM   11  O   UNL     1     -42.125 -53.459  12.765  1.00  0.00    -0.247 OA
HETATM   12  H   UNL     1     -44.915 -52.184  12.840  1.00  0.00     0.164 HD
HETATM   13  H   UNL     1     -43.434 -50.843  11.560  1.00  0.00     0.172 HD
BRANCH  10  14
HETATM   14  C   UNL     1     -44.694 -54.282  12.832  1.00  0.00     0.120 C 
HETATM   15  C   UNL     1     -45.403 -54.369  14.166  1.00  0.00     0.026 C 
ENDBRANCH  10  14
ENDBRANCH   1   8
BRANCH   6  16
HETATM   16  C   UNL     1     -38.429 -48.580  12.875  1.00  0.00     0.044 A 
HETATM   17  C   UNL     1     -37.629 -48.871  14.131  1.00  0.00     0.012 A 
HETATM   18  C   UNL     1     -38.653 -47.790  14.150  1.00  0.00     0.012 A 
ENDBRANCH   6  16
TORSDOF 3
ENDMDL
