MODEL 1
REMARK VINA RESULT:      -5.4      0.000      0.000
REMARK  3 active torsions:
REMARK  status: ('A' for Active; 'I' for Inactive)
REMARK    1  A    between atoms: O_1  and  C_2 
REMARK    2  A    between atoms: C_2  and  C_4 
REMARK    3  A    between atoms: C_4  and  C_7 
ROOT
HETATM    1  C   UNL     1     -42.381 -46.106  10.291  1.00  0.00     0.107 A 
HETATM    2  C   UNL     1     -42.103 -47.410  10.149  1.00  0.00     0.112 A 
HETATM    3  N   UNL     1     -42.662 -48.149   9.144  1.00  0.00    -0.318 N 
HETATM    4  C   UNL     1     -43.533 -47.639   8.220  1.00  0.00     0.327 A 
HETATM    5  O   UNL     1     -43.982 -48.317   7.303  1.00  0.00    -0.247 OA
HETATM    6  N   UNL     1     -43.856 -46.321   8.386  1.00  0.00    -0.275 N 
HETATM    7  C   UNL     1     -43.338 -45.497   9.346  1.00  0.00     0.263 A 
HETATM    8  O   UNL     1     -43.630 -44.309   9.423  1.00  0.00    -0.267 OA
HETATM    9  H   UNL     1     -42.422 -49.129   9.027  1.00  0.00     0.170 HD
HETATM   10  H   UNL     1     -44.498 -45.923   7.718  1.00  0.00     0.173 HD
ENDROOT
BRANCH   1  11
HETATM   11  C   UNL     1     -41.779 -45.187  11.299  1.00  0.00     0.360 C 
HETATM   12  F   UNL     1     -41.355 -45.894  12.398  1.00  0.00    -0.188 F 
HETATM   13  F   UNL     1     -42.734 -44.338  11.796  1.00  0.00    -0.188 F 
BRANCH  11  14
HETATM   14  C   UNL     1     -40.602 -44.378  10.715  1.00  0.00     0.221 C 
HETATM   15  O   UNL     1     -39.503 -44.840  10.427  1.00  0.00    -0.645 OA
BRANCH  14  16
HETATM   16  O   UNL     1     -40.915 -43.069  10.491  1.00  0.00    -0.772 OA
HETATM   17  H   UNL     1     -41.553 -42.974   9.749  1.00  0.00     0.167 HD
ENDBRANCH  14  16
ENDBRANCH  11  14
ENDBRANCH   1  11
TORSDOF 3
ENDMDL
MODEL 2
REMARK VINA RESULT:      -5.2      7.319      8.804
REMARK  3 active torsions:
REMARK  status: ('A' for Active; 'I' for Inactive)
REMARK    1  A    between atoms: O_1  and  C_2 
REMARK    2  A    between atoms: C_2  and  C_4 
REMARK    3  A    between atoms: C_4  and  C_7 
ROOT
HETATM    1  C   UNL     1     -44.838 -52.075  13.161  1.00  0.00     0.107 A 
HETATM    2  C   UNL     1     -44.093 -50.966  13.260  1.00  0.00     0.112 A 
HETATM    3  N   UNL     1     -42.809 -50.930  12.792  1.00  0.00    -0.318 N 
HETATM    4  C   UNL     1     -42.186 -51.995  12.199  1.00  0.00     0.327 A 
HETATM    5  O   UNL     1     -41.049 -51.918  11.748  1.00  0.00    -0.247 OA
HETATM    6  N   UNL     1     -42.926 -53.143  12.136  1.00  0.00    -0.275 N 
HETATM    7  C   UNL     1     -44.219 -53.272  12.559  1.00  0.00     0.263 A 
HETATM    8  O   UNL     1     -44.851 -54.316  12.438  1.00  0.00    -0.267 OA
HETATM    9  H   UNL     1     -42.262 -50.076  12.844  1.00  0.00     0.170 HD
HETATM   10  H   UNL     1     -42.487 -53.942  11.705  1.00  0.00     0.173 HD
ENDROOT
BRANCH   1  11
HETATM   11  C   UNL     1     -46.266 -52.210  13.567  1.00  0.00     0.360 C 
HETATM   12  F   UNL     1     -47.038 -52.576  12.491  1.00  0.00    -0.188 F 
HETATM   13  F   UNL     1     -46.771 -50.989  13.938  1.00  0.00    -0.188 F 
BRANCH  11  14
HETATM   14  C   UNL     1     -46.450 -53.229  14.711  1.00  0.00     0.221 C 
HETATM   15  O   UNL     1     -46.096 -53.058  15.872  1.00  0.00    -0.645 OA
BRANCH  14  16
HETATM   16  O   UNL     1     -47.109 -54.357  14.316  1.00  0.00    -0.772 OA
HETATM   17  H   UNL     1     -46.993 -55.087  14.965  1.00  0.00     0.167 HD
ENDBRANCH  14  16
ENDBRANCH  11  14
ENDBRANCH   1  11
TORSDOF 3
ENDMDL
MODEL 3
REMARK VINA RESULT:      -5.2      2.016      2.265
REMARK  3 active torsions:
REMARK  status: ('A' for Active; 'I' for Inactive)
REMARK    1  A    between atoms: O_1  and  C_2 
REMARK    2  A    between atoms: C_2  and  C_4 
REMARK    3  A    between atoms: C_4  and  C_7 
ROOT
HETATM    1  C   UNL     1     -43.466 -46.471  10.139  1.00  0.00     0.107 A 
HETATM    2  C   UNL     1     -43.979 -47.685  10.385  1.00  0.00     0.112 A 
HETATM    3  N   UNL     1     -45.184 -48.065   9.864  1.00  0.00    -0.318 N 
HETATM    4  C   UNL     1     -45.954 -47.262   9.068  1.00  0.00     0.327 A 
HETATM    5  O   UNL     1     -47.009 -47.649   8.577  1.00  0.00    -0.247 OA
HETATM    6  N   UNL     1     -45.459 -46.008   8.850  1.00  0.00    -0.275 N 
HETATM    7  C   UNL     1     -44.259 -45.542   9.311  1.00  0.00     0.263 A 
HETATM    8  O   UNL     1     -43.842 -44.419   9.048  1.00  0.00    -0.267 OA
HETATM    9  H   UNL     1     -45.549 -48.998  10.032  1.00  0.00     0.170 HD
HETATM   10  H   UNL     1     -46.010 -45.396   8.267  1.00  0.00     0.173 HD
ENDROOT
BRANCH   1  11
HETATM   11  C   UNL     1     -42.135 -45.975  10.591  1.00  0.00     0.360 C 
HETATM   12  F   UNL     1     -41.337 -45.692   9.509  1.00  0.00    -0.188 F 
HETATM   13  F   UNL     1     -41.459 -46.967  11.253  1.00  0.00    -0.188 F 
BRANCH  11  14
HETATM   14  C   UNL     1     -42.256 -44.725  11.489  1.00  0.00     0.221 C 
HETATM   15  O   UNL     1     -42.673 -44.723  12.641  1.00  0.00    -0.645 OA
BRANCH  14  16
HETATM   16  O   UNL     1     -41.798 -43.591  10.885  1.00  0.00    -0.772 OA
HETATM   17  H   UNL     1     -41.741 -42.843  11.520  1.00  0.00     0.167 HD
ENDBRANCH  14  16
ENDBRANCH  11  14
ENDBRANCH   1  11
TORSDOF 3
ENDMDL
MODEL 4
REMARK VINA RESULT:      -5.2      1.993      2.548
REMARK  3 active torsions:
REMARK  status: ('A' for Active; 'I' for Inactive)
REMARK    1  A    between atoms: O_1  and  C_2 
REMARK    2  A    between atoms: C_2  and  C_4 
REMARK    3  A    between atoms: C_4  and  C_7 
ROOT
HETATM    1  C   UNL     1     -43.073 -46.469  10.149  1.00  0.00     0.107 A 
HETATM    2  C   UNL     1     -43.666 -45.662   9.259  1.00  0.00     0.112 A 
HETATM    3  N   UNL     1     -44.916 -45.933   8.776  1.00  0.00    -0.318 N 
HETATM    4  C   UNL     1     -45.652 -47.025   9.147  1.00  0.00     0.327 A 
HETATM    5  O   UNL     1     -46.790 -47.216   8.731  1.00  0.00    -0.247 OA
HETATM    6  N   UNL     1     -45.036 -47.876  10.021  1.00  0.00    -0.275 N 
HETATM    7  C   UNL     1     -43.800 -47.683  10.572  1.00  0.00     0.263 A 
HETATM    8  O   UNL     1     -43.312 -48.459  11.386  1.00  0.00    -0.267 OA
HETATM    9  H   UNL     1     -45.368 -45.299   8.124  1.00  0.00     0.170 HD
HETATM   10  H   UNL     1     -45.560 -48.690  10.308  1.00  0.00     0.173 HD
ENDROOT
BRANCH   1  11
HETATM   11  C   UNL     1     -41.751 -46.238  10.798  1.00  0.00     0.360 C 
HETATM   12  F   UNL     1     -40.896 -47.279  10.526  1.00  0.00    -0.188 F 
HETATM   13  F   UNL     1     -41.881 -46.263  12.162  1.00  0.00    -0.188 F 
BRANCH  11  14
HETATM   14  C   UNL     1     -41.111 -44.907  10.350  1.00  0.00     0.221 C 
HETATM   15  O   UNL     1     -41.399 -43.802  10.793  1.00  0.00    -0.645 OA
BRANCH  14  16
HETATM   16  O   UNL     1     -40.126 -45.078   9.420  1.00  0.00    -0.772 OA
HETATM   17  H   UNL     1     -39.465 -44.351   9.459  1.00  0.00     0.167 HD
ENDBRANCH  14  16
ENDBRANCH  11  14
ENDBRANCH   1  11
TORSDOF 3
ENDMDL
MODEL 5
REMARK VINA RESULT:      -5.2      4.571      5.628
REMARK  3 active torsions:
REMARK  status: ('A' for Active; 'I' for Inactive)
REMARK    1  A    between atoms: O_1  and  C_2 
REMARK    2  A    between atoms: C_2  and  C_4 
REMARK    3  A    between atoms: C_4  and  C_7 
ROOT
HETATM    1  C   UNL     1     -39.440 -49.047  11.806  1.00  0.00     0.107 A 
HETATM    2  C   UNL     1     -39.552 -47.781  11.382  1.00  0.00     0.112 A 
HETATM    3  N   UNL     1     -40.668 -47.350  10.720  1.00  0.00    -0.318 N 
HETATM    4  C   UNL     1     -41.739 -48.152  10.437  1.00  0.00     0.327 A 
HETATM    5  O   UNL     1     -42.746 -47.724   9.882  1.00  0.00    -0.247 OA
HETATM    6  N   UNL     1     -41.613 -49.456  10.826  1.00  0.00    -0.275 N 
HETATM    7  C   UNL     1     -40.547 -49.976  11.507  1.00  0.00     0.263 A 
HETATM    8  O   UNL     1     -40.505 -51.146  11.871  1.00  0.00    -0.267 OA
HETATM    9  H   UNL     1     -40.755 -46.380  10.430  1.00  0.00     0.170 HD
HETATM   10  H   UNL     1     -42.390 -50.067  10.626  1.00  0.00     0.173 HD
ENDROOT
BRANCH   1  11
HETATM   11  C   UNL     1     -38.308 -49.609  12.597  1.00  0.00     0.360 C 
HETATM   12  F   UNL     1     -38.781 -50.267  13.707  1.00  0.00    -0.188 F 
HETATM   13  F   UNL     1     -37.541 -48.596  13.113  1.00  0.00    -0.188 F 
BRANCH  11  14
HETATM   14  C   UNL     1     -37.432 -50.564  11.759  1.00  0.00     0.221 C 
HETATM   15  O   UNL     1     -36.925 -51.600  12.172  1.00  0.00    -0.645 OA
BRANCH  14  16
HETATM   16  O   UNL     1     -37.307 -50.167  10.459  1.00  0.00    -0.772 OA
HETATM   17  H   UNL     1     -36.501 -49.621  10.326  1.00  0.00     0.167 HD
ENDBRANCH  14  16
ENDBRANCH  11  14
ENDBRANCH   1  11
TORSDOF 3
ENDMDL
MODEL 6
REMARK VINA RESULT:      -5.1      8.353      9.441
REMARK  3 active torsions:
REMARK  status: ('A' for Active; 'I' for Inactive)
REMARK    1  A    between atoms: O_1  and  C_2 
REMARK    2  A    between atoms: C_2  and  C_4 
REMARK    3  A    between atoms: C_4  and  C_7 
ROOT
HETATM    1  C   UNL     1     -41.280 -53.740  14.268  1.00  0.00     0.107 A 
HETATM    2  C   UNL     1     -42.369 -54.165  14.924  1.00  0.00     0.112 A 
HETATM    3  N   UNL     1     -43.574 -54.291  14.290  1.00  0.00    -0.318 N 
HETATM    4  C   UNL     1     -43.771 -54.002  12.968  1.00  0.00     0.327 A 
HETATM    5  O   UNL     1     -44.854 -54.170  12.418  1.00  0.00    -0.247 OA
HETATM    6  N   UNL     1     -42.676 -53.526  12.304  1.00  0.00    -0.275 N 
HETATM    7  C   UNL     1     -41.428 -53.382  12.843  1.00  0.00     0.263 A 
HETATM    8  O   UNL     1     -40.467 -52.990  12.189  1.00  0.00    -0.267 OA
HETATM    9  H   UNL     1     -44.386 -54.642  14.789  1.00  0.00     0.170 HD
HETATM   10  H   UNL     1     -42.797 -53.304  11.328  1.00  0.00     0.173 HD
ENDROOT
BRANCH   1  11
HETATM   11  C   UNL     1     -39.905 -53.633  14.832  1.00  0.00     0.360 C 
HETATM   12  F   UNL     1     -39.959 -53.357  16.177  1.00  0.00    -0.188 F 
HETATM   13  F   UNL     1     -39.255 -52.551  14.296  1.00  0.00    -0.188 F 
BRANCH  11  14
HETATM   14  C   UNL     1     -39.080 -54.917  14.597  1.00  0.00     0.221 C 
HETATM   15  O   UNL     1     -38.855 -55.775  15.442  1.00  0.00    -0.645 OA
BRANCH  14  16
HETATM   16  O   UNL     1     -38.649 -55.043  13.308  1.00  0.00    -0.772 OA
HETATM   17  H   UNL     1     -37.819 -55.567  13.255  1.00  0.00     0.167 HD
ENDBRANCH  14  16
ENDBRANCH  11  14
ENDBRANCH   1  11
TORSDOF 3
ENDMDL
MODEL 7
REMARK VINA RESULT:      -5.0      2.485      4.193
REMARK  3 active torsions:
REMARK  status: ('A' for Active; 'I' for Inactive)
REMARK    1  A    between atoms: O_1  and  C_2 
REMARK    2  A    between atoms: C_2  and  C_4 
REMARK    3  A    between atoms: C_4  and  C_7 
ROOT
HETATM    1  C   UNL     1     -42.141 -47.430  10.512  1.00  0.00     0.107 A 
HETATM    2  C   UNL     1     -42.000 -48.640  11.071  1.00  0.00     0.112 A 
HETATM    3  N   UNL     1     -40.831 -49.011  11.674  1.00  0.00    -0.318 N 
HETATM    4  C   UNL     1     -39.730 -48.204  11.757  1.00  0.00     0.327 A 
HETATM    5  O   UNL     1     -38.711 -48.549  12.345  1.00  0.00    -0.247 OA
HETATM    6  N   UNL     1     -39.851 -46.986  11.150  1.00  0.00    -0.275 N 
HETATM    7  C   UNL     1     -40.981 -46.518  10.539  1.00  0.00     0.263 A 
HETATM    8  O   UNL     1     -41.048 -45.396  10.047  1.00  0.00    -0.267 OA
HETATM    9  H   UNL     1     -40.745 -49.919  12.121  1.00  0.00     0.170 HD
HETATM   10  H   UNL     1     -39.051 -46.373  11.196  1.00  0.00     0.173 HD
ENDROOT
BRANCH   1  11
HETATM   11  C   UNL     1     -43.385 -46.890   9.893  1.00  0.00     0.360 C 
HETATM   12  F   UNL     1     -43.520 -45.553  10.179  1.00  0.00    -0.188 F 
HETATM   13  F   UNL     1     -44.489 -47.466  10.469  1.00  0.00    -0.188 F 
BRANCH  11  14
HETATM   14  C   UNL     1     -43.412 -47.102   8.365  1.00  0.00     0.221 C 
HETATM   15  O   UNL     1     -44.002 -48.009   7.790  1.00  0.00    -0.645 OA
BRANCH  14  16
HETATM   16  O   UNL     1     -42.742 -46.129   7.682  1.00  0.00    -0.772 OA
HETATM   17  H   UNL     1     -43.292 -45.753   6.959  1.00  0.00     0.167 HD
ENDBRANCH  14  16
ENDBRANCH  11  14
ENDBRANCH   1  11
TORSDOF 3
ENDMDL
MODEL 8
REMARK VINA RESULT:      -5.0      8.697     10.087
REMARK  3 active torsions:
REMARK  status: ('A' for Active; 'I' for Inactive)
REMARK    1  A    between atoms: O_1  and  C_2 
REMARK    2  A    between atoms: C_2  and  C_4 
REMARK    3  A    between atoms: C_4  and  C_7 
ROOT
HETATM    1  C   UNL     1     -44.001 -53.910  13.486  1.00  0.00     0.107 A 
HETATM    2  C   UNL     1     -43.512 -53.098  12.539  1.00  0.00     0.112 A 
HETATM    3  N   UNL     1     -42.166 -52.982  12.330  1.00  0.00    -0.318 N 
HETATM    4  C   UNL     1     -41.224 -53.665  13.050  1.00  0.00     0.327 A 
HETATM    5  O   UNL     1     -40.026 -53.574  12.807  1.00  0.00    -0.247 OA
HETATM    6  N   UNL     1     -41.714 -54.461  14.046  1.00  0.00    -0.275 N 
HETATM    7  C   UNL     1     -43.039 -54.656  14.321  1.00  0.00     0.263 A 
HETATM    8  O   UNL     1     -43.425 -55.417  15.202  1.00  0.00    -0.267 OA
HETATM    9  H   UNL     1     -41.807 -52.386  11.590  1.00  0.00     0.170 HD
HETATM   10  H   UNL     1     -41.038 -54.973  14.592  1.00  0.00     0.173 HD
ENDROOT
BRANCH   1  11
HETATM   11  C   UNL     1     -45.444 -54.172  13.756  1.00  0.00     0.360 C 
HETATM   12  F   UNL     1     -45.734 -55.501  13.558  1.00  0.00    -0.188 F 
HETATM   13  F   UNL     1     -46.224 -53.521  12.836  1.00  0.00    -0.188 F 
BRANCH  11  14
HETATM   14  C   UNL     1     -45.851 -53.757  15.186  1.00  0.00     0.221 C 
HETATM   15  O   UNL     1     -45.887 -52.605  15.601  1.00  0.00    -0.645 OA
BRANCH  14  16
HETATM   16  O   UNL     1     -46.229 -54.816  15.959  1.00  0.00    -0.772 OA
HETATM   17  H   UNL     1     -46.457 -54.532  16.872  1.00  0.00     0.167 HD
ENDBRANCH  14  16
ENDBRANCH  11  14
ENDBRANCH   1  11
TORSDOF 3
ENDMDL
MODEL 9
REMARK VINA RESULT:      -4.9      8.165      9.528
REMARK  3 active torsions:
REMARK  status: ('A' for Active; 'I' for Inactive)
REMARK    1  A    between atoms: O_1  and  C_2 
REMARK    2  A    between atoms: C_2  and  C_4 
REMARK    3  A    between atoms: C_4  and  C_7 
ROOT
HETATM    1  C   UNL     1     -43.824 -53.537  13.557  1.00  0.00     0.107 A 
HETATM    2  C   UNL     1     -43.180 -52.646  12.790  1.00  0.00     0.112 A 
HETATM    3  N   UNL     1     -41.819 -52.674  12.662  1.00  0.00    -0.318 N 
HETATM    4  C   UNL     1     -41.015 -53.586  13.288  1.00  0.00     0.327 A 
HETATM    5  O   UNL     1     -39.802 -53.614  13.116  1.00  0.00    -0.247 OA
HETATM    6  N   UNL     1     -41.661 -54.469  14.107  1.00  0.00    -0.275 N 
HETATM    7  C   UNL     1     -43.015 -54.533  14.287  1.00  0.00     0.263 A 
HETATM    8  O   UNL     1     -43.547 -55.376  15.001  1.00  0.00    -0.267 OA
HETATM    9  H   UNL     1     -41.343 -52.013  12.055  1.00  0.00     0.170 HD
HETATM   10  H   UNL     1     -41.089 -55.151  14.581  1.00  0.00     0.173 HD
ENDROOT
BRANCH   1  11
HETATM   11  C   UNL     1     -45.302 -53.650  13.715  1.00  0.00     0.360 C 
HETATM   12  F   UNL     1     -45.642 -53.660  15.046  1.00  0.00    -0.188 F 
HETATM   13  F   UNL     1     -45.737 -54.865  13.252  1.00  0.00    -0.188 F 
BRANCH  11  14
HETATM   14  C   UNL     1     -46.051 -52.508  12.995  1.00  0.00     0.221 C 
HETATM   15  O   UNL     1     -46.329 -51.424  13.493  1.00  0.00    -0.645 OA
BRANCH  14  16
HETATM   16  O   UNL     1     -46.343 -52.801  11.695  1.00  0.00    -0.772 OA
HETATM   17  H   UNL     1     -46.965 -52.145  11.309  1.00  0.00     0.167 HD
ENDBRANCH  14  16
ENDBRANCH  11  14
ENDBRANCH   1  11
TORSDOF 3
ENDMDL
