MODEL 1
REMARK VINA RESULT:      -5.0      0.000      0.000
REMARK  1 active torsions:
REMARK  status: ('A' for Active; 'I' for Inactive)
REMARK    1  A    between atoms: C_7  and  C_11 
ROOT
HETATM    1  C   UNL     2     -46.233 -47.773   8.757  1.00  0.00     0.100 C 
HETATM    2  C   UNL     2     -44.822 -47.503   9.173  1.00  0.00     0.144 A 
HETATM    3  N   UNL     2     -44.439 -46.955  10.348  1.00  0.00    -0.327 N 
ATOM      4  HN  UNL     2     -45.018 -46.600  11.108  1.00  0.00     0.169 HD
HETATM    5  C   UNL     2     -43.089 -46.996  10.258  1.00  0.00     0.109 A 
HETATM    6  N   UNL     2     -42.699 -47.536   9.083  1.00  0.00    -0.247 N 
ATOM      7  HN  UNL     2     -41.741 -47.688   8.767  1.00  0.00     0.196 HD
HETATM    8  O   UNL     2     -43.786 -47.821   8.437  1.00  0.00    -0.223 OA
ENDROOT
BRANCH   5   9
HETATM    9  C   UNL     2     -42.093 -46.698  11.358  1.00  0.00     0.083 C 
HETATM   10  C   UNL     2     -42.192 -45.306  12.028  1.00  0.00     0.016 C 
HETATM   11  C   UNL     2     -41.505 -44.204  11.205  1.00  0.00     0.031 C 
HETATM   12  C   UNL     2     -40.068 -44.630  10.885  1.00  0.00     0.269 C 
HETATM   13  N   UNL     2     -40.097 -45.873  10.102  1.00  0.00     0.084 N 
HETATM   14  C   UNL     2     -40.637 -46.968  10.923  1.00  0.00     0.281 C 
HETATM   15  H   UNL     2     -39.113 -46.115   9.841  1.00  0.00     0.315 HD
ENDBRANCH   5   9
TORSDOF 1
ENDMDL
MODEL 2
REMARK VINA RESULT:      -4.9      1.759      2.373
REMARK  1 active torsions:
REMARK  status: ('A' for Active; 'I' for Inactive)
REMARK    1  A    between atoms: C_7  and  C_11 
ROOT
HETATM    1  C   UNL     2     -46.806 -48.569   8.778  1.00  0.00     0.100 C 
HETATM    2  C   UNL     2     -45.759 -47.553   9.107  1.00  0.00     0.144 A 
HETATM    3  N   UNL     2     -44.560 -47.814   9.677  1.00  0.00    -0.327 N 
ATOM      4  HN  UNL     2     -44.191 -48.704  10.011  1.00  0.00     0.169 HD
HETATM    5  C   UNL     2     -43.976 -46.594   9.689  1.00  0.00     0.109 A 
HETATM    6  N   UNL     2     -44.795 -45.659   9.159  1.00  0.00    -0.247 N 
ATOM      7  HN  UNL     2     -44.597 -44.665   9.044  1.00  0.00     0.196 HD
HETATM    8  O   UNL     2     -45.884 -46.279   8.827  1.00  0.00    -0.223 OA
ENDROOT
BRANCH   5   9
HETATM    9  C   UNL     2     -42.536 -46.276  10.033  1.00  0.00     0.083 C 
HETATM   10  C   UNL     2     -41.727 -47.391  10.737  1.00  0.00     0.016 C 
HETATM   11  C   UNL     2     -41.999 -47.455  12.248  1.00  0.00     0.031 C 
HETATM   12  C   UNL     2     -41.790 -46.065  12.861  1.00  0.00     0.269 C 
HETATM   13  N   UNL     2     -42.726 -45.119  12.239  1.00  0.00     0.084 N 
HETATM   14  C   UNL     2     -42.396 -44.953  10.815  1.00  0.00     0.281 C 
HETATM   15  H   UNL     2     -42.612 -44.193  12.711  1.00  0.00     0.315 HD
ENDBRANCH   5   9
TORSDOF 1
ENDMDL
MODEL 3
REMARK VINA RESULT:      -4.8      6.629      8.063
REMARK  1 active torsions:
REMARK  status: ('A' for Active; 'I' for Inactive)
REMARK    1  A    between atoms: C_7  and  C_11 
ROOT
HETATM    1  C   UNL     2     -40.826 -50.809  12.180  1.00  0.00     0.100 C 
HETATM    2  C   UNL     2     -41.915 -51.807  12.414  1.00  0.00     0.144 A 
HETATM    3  N   UNL     2     -43.228 -51.520  12.558  1.00  0.00    -0.327 N 
ATOM      4  HN  UNL     2     -43.686 -50.608  12.580  1.00  0.00     0.169 HD
HETATM    5  C   UNL     2     -43.782 -52.750  12.667  1.00  0.00     0.109 A 
HETATM    6  N   UNL     2     -42.838 -53.713  12.598  1.00  0.00    -0.247 N 
ATOM      7  HN  UNL     2     -42.986 -54.721  12.646  1.00  0.00     0.196 HD
HETATM    8  O   UNL     2     -41.704 -53.100  12.457  1.00  0.00    -0.223 OA
ENDROOT
BRANCH   5   9
HETATM    9  C   UNL     2     -45.257 -53.090  12.657  1.00  0.00     0.083 C 
HETATM   10  C   UNL     2     -46.245 -51.904  12.775  1.00  0.00     0.016 C 
HETATM   11  C   UNL     2     -46.436 -51.437  14.226  1.00  0.00     0.031 C 
HETATM   12  C   UNL     2     -46.812 -52.637  15.102  1.00  0.00     0.269 C 
HETATM   13  N   UNL     2     -45.728 -53.628  15.050  1.00  0.00     0.084 N 
HETATM   14  C   UNL     2     -45.617 -54.178  13.691  1.00  0.00     0.281 C 
HETATM   15  H   UNL     2     -45.973 -54.410  15.700  1.00  0.00     0.315 HD
ENDBRANCH   5   9
TORSDOF 1
ENDMDL
MODEL 4
REMARK VINA RESULT:      -4.8      7.354      8.683
REMARK  1 active torsions:
REMARK  status: ('A' for Active; 'I' for Inactive)
REMARK    1  A    between atoms: C_7  and  C_11 
ROOT
HETATM    1  C   UNL     2     -40.600 -54.007  13.773  1.00  0.00     0.100 C 
HETATM    2  C   UNL     2     -41.961 -53.726  13.220  1.00  0.00     0.144 A 
HETATM    3  N   UNL     2     -43.120 -54.250  13.678  1.00  0.00    -0.327 N 
ATOM      4  HN  UNL     2     -43.264 -54.936  14.419  1.00  0.00     0.169 HD
HETATM    5  C   UNL     2     -44.041 -53.632  12.903  1.00  0.00     0.109 A 
HETATM    6  N   UNL     2     -43.450 -52.791  12.026  1.00  0.00    -0.247 N 
ATOM      7  HN  UNL     2     -43.914 -52.201  11.335  1.00  0.00     0.196 HD
HETATM    8  O   UNL     2     -42.174 -52.885  12.238  1.00  0.00    -0.223 OA
ENDROOT
BRANCH   5   9
HETATM    9  C   UNL     2     -45.545 -53.663  13.073  1.00  0.00     0.083 C 
HETATM   10  C   UNL     2     -46.296 -52.326  12.868  1.00  0.00     0.016 C 
HETATM   11  C   UNL     2     -46.246 -51.424  14.112  1.00  0.00     0.031 C 
HETATM   12  C   UNL     2     -46.725 -52.215  15.334  1.00  0.00     0.269 C 
HETATM   13  N   UNL     2     -45.839 -53.370  15.537  1.00  0.00     0.084 N 
HETATM   14  C   UNL     2     -45.973 -54.306  14.410  1.00  0.00     0.281 C 
HETATM   15  H   UNL     2     -46.143 -53.862  16.408  1.00  0.00     0.315 HD
ENDBRANCH   5   9
TORSDOF 1
ENDMDL
MODEL 5
REMARK VINA RESULT:      -4.7      6.719      7.379
REMARK  1 active torsions:
REMARK  status: ('A' for Active; 'I' for Inactive)
REMARK    1  A    between atoms: C_7  and  C_11 
ROOT
HETATM    1  C   UNL     2     -46.538 -51.716  13.030  1.00  0.00     0.100 C 
HETATM    2  C   UNL     2     -45.237 -52.388  12.724  1.00  0.00     0.144 A 
HETATM    3  N   UNL     2     -44.023 -51.794  12.736  1.00  0.00    -0.327 N 
ATOM      4  HN  UNL     2     -43.791 -50.815  12.903  1.00  0.00     0.169 HD
HETATM    5  C   UNL     2     -43.194 -52.830  12.471  1.00  0.00     0.109 A 
HETATM    6  N   UNL     2     -43.889 -53.976  12.303  1.00  0.00    -0.247 N 
ATOM      7  HN  UNL     2     -43.507 -54.900  12.100  1.00  0.00     0.196 HD
HETATM    8  O   UNL     2     -45.139 -53.665  12.450  1.00  0.00    -0.223 OA
ENDROOT
BRANCH   5   9
HETATM    9  C   UNL     2     -41.681 -52.829  12.545  1.00  0.00     0.083 C 
HETATM   10  C   UNL     2     -41.007 -54.141  13.013  1.00  0.00     0.016 C 
HETATM   11  C   UNL     2     -41.011 -54.293  14.543  1.00  0.00     0.031 C 
HETATM   12  C   UNL     2     -40.412 -53.034  15.180  1.00  0.00     0.269 C 
HETATM   13  N   UNL     2     -41.228 -51.871  14.807  1.00  0.00     0.084 N 
HETATM   14  C   UNL     2     -41.133 -51.637  13.358  1.00  0.00     0.281 C 
HETATM   15  H   UNL     2     -40.842 -51.033  15.300  1.00  0.00     0.315 HD
ENDBRANCH   5   9
TORSDOF 1
ENDMDL
MODEL 6
REMARK VINA RESULT:      -4.7      5.912      6.396
REMARK  1 active torsions:
REMARK  status: ('A' for Active; 'I' for Inactive)
REMARK    1  A    between atoms: C_7  and  C_11 
ROOT
HETATM    1  C   UNL     2     -46.804 -51.933  12.176  1.00  0.00     0.100 C 
HETATM    2  C   UNL     2     -45.475 -52.572  12.425  1.00  0.00     0.144 A 
HETATM    3  N   UNL     2     -44.301 -51.917  12.573  1.00  0.00    -0.327 N 
ATOM      4  HN  UNL     2     -44.112 -50.918  12.497  1.00  0.00     0.169 HD
HETATM    5  C   UNL     2     -43.441 -52.925  12.846  1.00  0.00     0.109 A 
HETATM    6  N   UNL     2     -44.078 -54.117  12.852  1.00  0.00    -0.247 N 
ATOM      7  HN  UNL     2     -43.665 -55.031  13.035  1.00  0.00     0.196 HD
HETATM    8  O   UNL     2     -45.320 -53.864  12.576  1.00  0.00    -0.223 OA
ENDROOT
BRANCH   5   9
HETATM    9  C   UNL     2     -42.003 -52.799  13.301  1.00  0.00     0.083 C 
HETATM   10  C   UNL     2     -41.645 -51.544  14.133  1.00  0.00     0.016 C 
HETATM   11  C   UNL     2     -41.402 -50.304  13.258  1.00  0.00     0.031 C 
HETATM   12  C   UNL     2     -40.368 -50.640  12.177  1.00  0.00     0.269 C 
HETATM   13  N   UNL     2     -40.883 -51.731  11.340  1.00  0.00     0.084 N 
HETATM   14  C   UNL     2     -41.001 -52.961  12.138  1.00  0.00     0.281 C 
HETATM   15  H   UNL     2     -40.193 -51.904  10.573  1.00  0.00     0.315 HD
ENDBRANCH   5   9
TORSDOF 1
ENDMDL
MODEL 7
REMARK VINA RESULT:      -4.7      2.296      2.844
REMARK  1 active torsions:
REMARK  status: ('A' for Active; 'I' for Inactive)
REMARK    1  A    between atoms: C_7  and  C_11 
ROOT
HETATM    1  C   UNL     2     -45.422 -47.019   9.039  1.00  0.00     0.100 C 
HETATM    2  C   UNL     2     -44.120 -47.490   9.607  1.00  0.00     0.144 A 
HETATM    3  N   UNL     2     -43.893 -47.798  10.903  1.00  0.00    -0.327 N 
ATOM      4  HN  UNL     2     -44.526 -47.723  11.700  1.00  0.00     0.169 HD
HETATM    5  C   UNL     2     -42.611 -48.230  10.876  1.00  0.00     0.109 A 
HETATM    6  N   UNL     2     -42.108 -48.171   9.624  1.00  0.00    -0.247 N 
ATOM      7  HN  UNL     2     -41.170 -48.443   9.327  1.00  0.00     0.196 HD
HETATM    8  O   UNL     2     -43.055 -47.699   8.874  1.00  0.00    -0.223 OA
ENDROOT
BRANCH   5   9
HETATM    9  C   UNL     2     -41.850 -48.898  12.001  1.00  0.00     0.083 C 
HETATM   10  C   UNL     2     -40.762 -48.051  12.704  1.00  0.00     0.016 C 
HETATM   11  C   UNL     2     -39.440 -48.022  11.923  1.00  0.00     0.031 C 
HETATM   12  C   UNL     2     -38.997 -49.457  11.618  1.00  0.00     0.269 C 
HETATM   13  N   UNL     2     -40.027 -50.116  10.803  1.00  0.00     0.084 N 
HETATM   14  C   UNL     2     -41.264 -50.264  11.585  1.00  0.00     0.281 C 
HETATM   15  H   UNL     2     -39.681 -51.071  10.554  1.00  0.00     0.315 HD
ENDBRANCH   5   9
TORSDOF 1
ENDMDL
MODEL 8
REMARK VINA RESULT:      -4.5      3.001      4.695
REMARK  1 active torsions:
REMARK  status: ('A' for Active; 'I' for Inactive)
REMARK    1  A    between atoms: C_7  and  C_11 
ROOT
HETATM    1  C   UNL     2     -38.575 -44.433   8.944  1.00  0.00     0.100 C 
HETATM    2  C   UNL     2     -39.613 -45.011   9.852  1.00  0.00     0.144 A 
HETATM    3  N   UNL     2     -39.708 -46.310  10.214  1.00  0.00    -0.327 N 
ATOM      4  HN  UNL     2     -39.142 -47.103   9.910  1.00  0.00     0.169 HD
HETATM    5  C   UNL     2     -40.745 -46.292  11.083  1.00  0.00     0.109 A 
HETATM    6  N   UNL     2     -41.241 -45.043  11.219  1.00  0.00    -0.247 N 
ATOM      7  HN  UNL     2     -42.016 -44.753  11.815  1.00  0.00     0.196 HD
HETATM    8  O   UNL     2     -40.533 -44.286  10.439  1.00  0.00    -0.223 OA
ENDROOT
BRANCH   5   9
HETATM    9  C   UNL     2     -41.206 -47.425  11.976  1.00  0.00     0.083 C 
HETATM   10  C   UNL     2     -40.163 -48.001  12.963  1.00  0.00     0.016 C 
HETATM   11  C   UNL     2     -39.214 -49.009  12.296  1.00  0.00     0.031 C 
HETATM   12  C   UNL     2     -40.036 -50.083  11.576  1.00  0.00     0.269 C 
HETATM   13  N   UNL     2     -40.866 -49.444  10.546  1.00  0.00     0.084 N 
HETATM   14  C   UNL     2     -41.865 -48.571  11.179  1.00  0.00     0.281 C 
HETATM   15  H   UNL     2     -41.373 -50.197  10.025  1.00  0.00     0.315 HD
ENDBRANCH   5   9
TORSDOF 1
ENDMDL
MODEL 9
REMARK VINA RESULT:      -4.5      7.903      8.594
REMARK  1 active torsions:
REMARK  status: ('A' for Active; 'I' for Inactive)
REMARK    1  A    between atoms: C_7  and  C_11 
ROOT
HETATM    1  C   UNL     2     -47.675 -51.208  16.634  1.00  0.00     0.100 C 
HETATM    2  C   UNL     2     -46.893 -51.780  15.494  1.00  0.00     0.144 A 
HETATM    3  N   UNL     2     -46.142 -52.903  15.540  1.00  0.00    -0.327 N 
ATOM      4  HN  UNL     2     -45.943 -53.509  16.335  1.00  0.00     0.169 HD
HETATM    5  C   UNL     2     -45.719 -53.018  14.259  1.00  0.00     0.109 A 
HETATM    6  N   UNL     2     -46.194 -52.006  13.500  1.00  0.00    -0.247 N 
ATOM      7  HN  UNL     2     -46.031 -51.859  12.504  1.00  0.00     0.196 HD
HETATM    8  O   UNL     2     -46.897 -51.258  14.292  1.00  0.00    -0.223 OA
ENDROOT
BRANCH   5   9
HETATM    9  C   UNL     2     -44.994 -54.194  13.641  1.00  0.00     0.083 C 
HETATM   10  C   UNL     2     -44.027 -54.977  14.561  1.00  0.00     0.016 C 
HETATM   11  C   UNL     2     -42.657 -54.294  14.695  1.00  0.00     0.031 C 
HETATM   12  C   UNL     2     -42.087 -54.019  13.299  1.00  0.00     0.269 C 
HETATM   13  N   UNL     2     -43.002 -53.130  12.572  1.00  0.00     0.084 N 
HETATM   14  C   UNL     2     -44.278 -53.819  12.326  1.00  0.00     0.281 C 
HETATM   15  H   UNL     2     -42.569 -52.904  11.647  1.00  0.00     0.315 HD
ENDBRANCH   5   9
TORSDOF 1
ENDMDL
