MODEL 1
REMARK VINA RESULT:      -6.6      0.000      0.000
REMARK  2 active torsions:
REMARK  status: ('A' for Active; 'I' for Inactive)
REMARK    1  A    between atoms: C_5  and  N_6 
REMARK       I    between atoms: N_6  and  C_7 
REMARK       I    between atoms: C_7  and  N_9 
REMARK    2  A    between atoms: N_9  and  C_10 
ROOT
HETATM    1  N   UNL     1     -41.807 -49.603  11.493  1.00  0.00    -0.335 N 
HETATM    2  C   UNL     1     -40.996 -48.600  11.067  1.00  0.00     0.322 C 
HETATM    3  O   UNL     1     -39.838 -48.454  11.446  1.00  0.00    -0.247 OA
HETATM    4  N   UNL     1     -41.548 -47.711  10.189  1.00  0.00    -0.294 N 
HETATM    5  H   UNL     1     -42.784 -49.528  11.231  1.00  0.00     0.164 HD
HETATM    6  H   UNL     1     -40.939 -46.943   9.952  1.00  0.00     0.172 HD
ENDROOT
BRANCH   1   7
HETATM    7  C   UNL     1     -41.450 -50.623  12.451  1.00  0.00     0.122 C 
HETATM    8  C   UNL     1     -41.671 -52.009  11.856  1.00  0.00     0.065 C 
HETATM    9  C   UNL     1     -42.556 -52.757  12.847  1.00  0.00     0.057 C 
HETATM   10  C   UNL     1     -41.996 -54.147  13.152  1.00  0.00     0.045 C 
HETATM   11  C   UNL     1     -43.994 -52.916  12.335  1.00  0.00     0.045 C 
HETATM   12  O   UNL     1     -42.564 -51.990  14.062  1.00  0.00    -0.369 OA
HETATM   13  C   UNL     1     -42.256 -50.609  13.767  1.00  0.00     0.075 C 
HETATM   14  C   UNL     1     -41.416 -50.053  14.919  1.00  0.00     0.048 C 
HETATM   15  C   UNL     1     -43.579 -49.829  13.722  1.00  0.00     0.048 C 
ENDBRANCH   1   7
BRANCH   4  16
HETATM   16  C   UNL     1     -42.810 -47.788   9.581  1.00  0.00     0.123 A 
HETATM   17  C   UNL     1     -43.932 -47.424  10.306  1.00  0.00     0.051 A 
HETATM   18  C   UNL     1     -45.178 -47.520   9.694  1.00  0.00     0.022 A 
HETATM   19  C   UNL     1     -45.236 -47.956   8.386  1.00  0.00     0.107 A 
HETATM   20  N   UNL     1     -44.141 -48.306   7.695  1.00  0.00    -0.310 N 
HETATM   21  N   UNL     1     -42.930 -48.224   8.307  1.00  0.00    -0.286 N 
ATOM     22  HN  UNL     1     -44.216 -48.627   6.730  1.00  0.00     0.186 HD
ATOM     23  HN  UNL     1     -42.092 -48.498   7.793  1.00  0.00     0.188 HD
ENDBRANCH   4  16
TORSDOF 2
ENDMDL
MODEL 2
REMARK VINA RESULT:      -6.5      2.555      3.507
REMARK  2 active torsions:
REMARK  status: ('A' for Active; 'I' for Inactive)
REMARK    1  A    between atoms: C_5  and  N_6 
REMARK       I    between atoms: N_6  and  C_7 
REMARK       I    between atoms: C_7  and  N_9 
REMARK    2  A    between atoms: N_9  and  C_10 
ROOT
HETATM    1  N   UNL     1     -41.536 -51.949  13.248  1.00  0.00    -0.335 N 
HETATM    2  C   UNL     1     -40.260 -52.193  12.854  1.00  0.00     0.322 C 
HETATM    3  O   UNL     1     -39.654 -53.228  13.114  1.00  0.00    -0.247 OA
HETATM    4  N   UNL     1     -39.644 -51.193  12.156  1.00  0.00    -0.294 N 
HETATM    5  H   UNL     1     -41.873 -51.001  13.109  1.00  0.00     0.164 HD
HETATM    6  H   UNL     1     -38.676 -51.382  11.945  1.00  0.00     0.172 HD
ENDROOT
BRANCH   1   7
HETATM    7  C   UNL     1     -42.360 -52.840  14.032  1.00  0.00     0.122 C 
HETATM    8  C   UNL     1     -43.149 -53.771  13.120  1.00  0.00     0.065 C 
HETATM    9  C   UNL     1     -44.610 -53.627  13.532  1.00  0.00     0.057 C 
HETATM   10  C   UNL     1     -45.271 -54.994  13.721  1.00  0.00     0.045 C 
HETATM   11  C   UNL     1     -45.427 -52.833  12.504  1.00  0.00     0.045 C 
HETATM   12  O   UNL     1     -44.622 -52.934  14.790  1.00  0.00    -0.369 OA
HETATM   13  C   UNL     1     -43.413 -52.156  14.929  1.00  0.00     0.075 C 
HETATM   14  C   UNL     1     -42.989 -52.192  16.399  1.00  0.00     0.048 C 
HETATM   15  C   UNL     1     -43.743 -50.700  14.564  1.00  0.00     0.048 C 
ENDBRANCH   1   7
BRANCH   4  16
HETATM   16  C   UNL     1     -40.218 -50.001  11.692  1.00  0.00     0.123 A 
HETATM   17  C   UNL     1     -40.342 -48.928  12.558  1.00  0.00     0.051 A 
HETATM   18  C   UNL     1     -40.929 -47.757  12.085  1.00  0.00     0.022 A 
HETATM   19  C   UNL     1     -41.342 -47.714  10.770  1.00  0.00     0.107 A 
HETATM   20  N   UNL     1     -41.216 -48.761   9.941  1.00  0.00    -0.310 N 
HETATM   21  N   UNL     1     -40.657 -49.906  10.416  1.00  0.00    -0.286 N 
ATOM     22  HN  UNL     1     -41.533 -48.699   8.974  1.00  0.00     0.186 HD
ATOM     23  HN  UNL     1     -40.566 -50.711   9.796  1.00  0.00     0.188 HD
ENDBRANCH   4  16
TORSDOF 2
ENDMDL
MODEL 3
REMARK VINA RESULT:      -6.2      2.796      3.955
REMARK  2 active torsions:
REMARK  status: ('A' for Active; 'I' for Inactive)
REMARK    1  A    between atoms: C_5  and  N_6 
REMARK       I    between atoms: N_6  and  C_7 
REMARK       I    between atoms: C_7  and  N_9 
REMARK    2  A    between atoms: N_9  and  C_10 
ROOT
HETATM    1  N   UNL     1     -42.097 -51.491  12.525  1.00  0.00    -0.335 N 
HETATM    2  C   UNL     1     -40.979 -52.009  11.952  1.00  0.00     0.322 C 
HETATM    3  O   UNL     1     -40.745 -53.212  11.884  1.00  0.00    -0.247 OA
HETATM    4  N   UNL     1     -40.081 -51.105  11.462  1.00  0.00    -0.294 N 
HETATM    5  H   UNL     1     -42.104 -50.486  12.661  1.00  0.00     0.164 HD
HETATM    6  H   UNL     1     -39.233 -51.524  11.111  1.00  0.00     0.172 HD
ENDROOT
BRANCH   1   7
HETATM    7  C   UNL     1     -43.154 -52.255  13.147  1.00  0.00     0.122 C 
HETATM    8  C   UNL     1     -44.398 -51.392  13.321  1.00  0.00     0.065 C 
HETATM    9  C   UNL     1     -44.780 -51.495  14.794  1.00  0.00     0.057 C 
HETATM   10  C   UNL     1     -46.270 -51.798  14.960  1.00  0.00     0.045 C 
HETATM   11  C   UNL     1     -44.458 -50.210  15.568  1.00  0.00     0.045 C 
HETATM   12  O   UNL     1     -44.027 -52.587  15.344  1.00  0.00    -0.369 OA
HETATM   13  C   UNL     1     -42.838 -52.807  14.552  1.00  0.00     0.075 C 
HETATM   14  C   UNL     1     -42.570 -54.313  14.503  1.00  0.00     0.048 C 
HETATM   15  C   UNL     1     -41.658 -52.136  15.274  1.00  0.00     0.048 C 
ENDBRANCH   1   7
BRANCH   4  16
HETATM   16  C   UNL     1     -40.237 -49.713  11.370  1.00  0.00     0.123 A 
HETATM   17  C   UNL     1     -39.614 -48.900  12.299  1.00  0.00     0.051 A 
HETATM   18  C   UNL     1     -39.792 -47.523  12.203  1.00  0.00     0.022 A 
HETATM   19  C   UNL     1     -40.566 -47.031  11.172  1.00  0.00     0.107 A 
HETATM   20  N   UNL     1     -41.165 -47.831  10.277  1.00  0.00    -0.310 N 
HETATM   21  N   UNL     1     -40.999 -49.176  10.390  1.00  0.00    -0.286 N 
ATOM     22  HN  UNL     1     -41.734 -47.438   9.528  1.00  0.00     0.186 HD
ATOM     23  HN  UNL     1     -41.459 -49.793   9.720  1.00  0.00     0.188 HD
ENDBRANCH   4  16
TORSDOF 2
ENDMDL
MODEL 4
REMARK VINA RESULT:      -6.1      3.439      5.858
REMARK  2 active torsions:
REMARK  status: ('A' for Active; 'I' for Inactive)
REMARK    1  A    between atoms: C_5  and  N_6 
REMARK       I    between atoms: N_6  and  C_7 
REMARK       I    between atoms: C_7  and  N_9 
REMARK    2  A    between atoms: N_9  and  C_10 
ROOT
HETATM    1  N   UNL     1     -43.673 -51.321  13.357  1.00  0.00    -0.335 N 
HETATM    2  C   UNL     1     -42.836 -50.408  12.799  1.00  0.00     0.322 C 
HETATM    3  O   UNL     1     -43.174 -49.264  12.508  1.00  0.00    -0.247 OA
HETATM    4  N   UNL     1     -41.565 -50.836  12.539  1.00  0.00    -0.294 N 
HETATM    5  H   UNL     1     -43.325 -52.273  13.407  1.00  0.00     0.164 HD
HETATM    6  H   UNL     1     -40.997 -50.154  12.060  1.00  0.00     0.172 HD
ENDROOT
BRANCH   1   7
HETATM    7  C   UNL     1     -45.065 -51.103  13.673  1.00  0.00     0.122 C 
HETATM    8  C   UNL     1     -45.255 -50.994  15.181  1.00  0.00     0.065 C 
HETATM    9  C   UNL     1     -46.335 -52.007  15.546  1.00  0.00     0.057 C 
HETATM   10  C   UNL     1     -47.405 -51.380  16.441  1.00  0.00     0.045 C 
HETATM   11  C   UNL     1     -45.759 -53.233  16.266  1.00  0.00     0.045 C 
HETATM   12  O   UNL     1     -46.950 -52.421  14.316  1.00  0.00    -0.369 OA
HETATM   13  C   UNL     1     -46.032 -52.217  13.219  1.00  0.00     0.075 C 
HETATM   14  C   UNL     1     -46.841 -51.776  11.996  1.00  0.00     0.048 C 
HETATM   15  C   UNL     1     -45.375 -53.568  12.894  1.00  0.00     0.048 C 
ENDBRANCH   1   7
BRANCH   4  16
HETATM   16  C   UNL     1     -40.991 -52.065  12.897  1.00  0.00     0.123 A 
HETATM   17  C   UNL     1     -40.193 -52.134  14.026  1.00  0.00     0.051 A 
HETATM   18  C   UNL     1     -39.618 -53.357  14.358  1.00  0.00     0.022 A 
HETATM   19  C   UNL     1     -39.886 -54.449  13.558  1.00  0.00     0.107 A 
HETATM   20  N   UNL     1     -40.662 -54.368  12.467  1.00  0.00    -0.310 N 
HETATM   21  N   UNL     1     -41.206 -53.165  12.141  1.00  0.00    -0.286 N 
ATOM     22  HN  UNL     1     -40.841 -55.192  11.893  1.00  0.00     0.186 HD
ATOM     23  HN  UNL     1     -41.789 -53.091  11.307  1.00  0.00     0.188 HD
ENDBRANCH   4  16
TORSDOF 2
ENDMDL
MODEL 5
REMARK VINA RESULT:      -6.1      3.556      6.550
REMARK  2 active torsions:
REMARK  status: ('A' for Active; 'I' for Inactive)
REMARK    1  A    between atoms: C_5  and  N_6 
REMARK       I    between atoms: N_6  and  C_7 
REMARK       I    between atoms: C_7  and  N_9 
REMARK    2  A    between atoms: N_9  and  C_10 
ROOT
HETATM    1  N   UNL     1     -41.004 -47.472  11.563  1.00  0.00    -0.335 N 
HETATM    2  C   UNL     1     -41.496 -48.320  10.623  1.00  0.00     0.322 C 
HETATM    3  O   UNL     1     -42.428 -48.039   9.876  1.00  0.00    -0.247 OA
HETATM    4  N   UNL     1     -40.908 -49.551  10.557  1.00  0.00    -0.294 N 
HETATM    5  H   UNL     1     -40.341 -47.871  12.221  1.00  0.00     0.164 HD
HETATM    6  H   UNL     1     -41.347 -50.175   9.897  1.00  0.00     0.172 HD
ENDROOT
BRANCH   1   7
HETATM    7  C   UNL     1     -41.500 -46.144  11.840  1.00  0.00     0.122 C 
HETATM    8  C   UNL     1     -40.562 -45.096  11.254  1.00  0.00     0.065 C 
HETATM    9  C   UNL     1     -40.214 -44.152  12.400  1.00  0.00     0.057 C 
HETATM   10  C   UNL     1     -40.380 -42.690  11.985  1.00  0.00     0.045 C 
HETATM   11  C   UNL     1     -38.777 -44.353  12.900  1.00  0.00     0.045 C 
HETATM   12  O   UNL     1     -41.135 -44.434  13.466  1.00  0.00    -0.369 OA
HETATM   13  C   UNL     1     -41.634 -45.783  13.335  1.00  0.00     0.075 C 
HETATM   14  C   UNL     1     -43.101 -45.793  13.772  1.00  0.00     0.048 C 
HETATM   15  C   UNL     1     -40.842 -46.677  14.303  1.00  0.00     0.048 C 
ENDBRANCH   1   7
BRANCH   4  16
HETATM   16  C   UNL     1     -39.778 -49.994  11.260  1.00  0.00     0.123 A 
HETATM   17  C   UNL     1     -39.933 -50.508  12.535  1.00  0.00     0.051 A 
HETATM   18  C   UNL     1     -38.799 -50.928  13.225  1.00  0.00     0.022 A 
HETATM   19  C   UNL     1     -37.575 -50.831  12.597  1.00  0.00     0.107 A 
HETATM   20  N   UNL     1     -37.438 -50.330  11.360  1.00  0.00    -0.310 N 
HETATM   21  N   UNL     1     -38.549 -49.907  10.701  1.00  0.00    -0.286 N 
ATOM     22  HN  UNL     1     -36.518 -50.268  10.923  1.00  0.00     0.186 HD
ATOM     23  HN  UNL     1     -38.454 -49.515   9.764  1.00  0.00     0.188 HD
ENDBRANCH   4  16
TORSDOF 2
ENDMDL
MODEL 6
REMARK VINA RESULT:      -5.9      4.856      7.055
REMARK  2 active torsions:
REMARK  status: ('A' for Active; 'I' for Inactive)
REMARK    1  A    between atoms: C_5  and  N_6 
REMARK       I    between atoms: N_6  and  C_7 
REMARK       I    between atoms: C_7  and  N_9 
REMARK    2  A    between atoms: N_9  and  C_10 
ROOT
HETATM    1  N   UNL     1     -45.397 -53.439  15.195  1.00  0.00    -0.335 N 
HETATM    2  C   UNL     1     -45.709 -54.487  14.388  1.00  0.00     0.322 C 
HETATM    3  O   UNL     1     -46.720 -55.170  14.521  1.00  0.00    -0.247 OA
HETATM    4  N   UNL     1     -44.806 -54.778  13.405  1.00  0.00    -0.294 N 
HETATM    5  H   UNL     1     -44.465 -53.053  15.086  1.00  0.00     0.164 HD
HETATM    6  H   UNL     1     -45.036 -55.604  12.875  1.00  0.00     0.172 HD
ENDROOT
BRANCH   1   7
HETATM    7  C   UNL     1     -46.178 -52.984  16.322  1.00  0.00     0.122 C 
HETATM    8  C   UNL     1     -46.604 -51.535  16.120  1.00  0.00     0.065 C 
HETATM    9  C   UNL     1     -46.154 -50.785  17.370  1.00  0.00     0.057 C 
HETATM   10  C   UNL     1     -47.282 -49.919  17.933  1.00  0.00     0.045 C 
HETATM   11  C   UNL     1     -44.941 -49.885  17.100  1.00  0.00     0.045 C 
HETATM   12  O   UNL     1     -45.806 -51.777  18.348  1.00  0.00    -0.369 OA
HETATM   13  C   UNL     1     -45.457 -53.013  17.686  1.00  0.00     0.075 C 
HETATM   14  C   UNL     1     -45.960 -54.174  18.548  1.00  0.00     0.048 C 
HETATM   15  C   UNL     1     -43.924 -53.099  17.619  1.00  0.00     0.048 C 
ENDBRANCH   1   7
BRANCH   4  16
HETATM   16  C   UNL     1     -43.662 -54.045  13.055  1.00  0.00     0.123 A 
HETATM   17  C   UNL     1     -42.489 -54.245  13.761  1.00  0.00     0.051 A 
HETATM   18  C   UNL     1     -41.367 -53.498  13.411  1.00  0.00     0.022 A 
HETATM   19  C   UNL     1     -41.473 -52.607  12.364  1.00  0.00     0.107 A 
HETATM   20  N   UNL     1     -42.616 -52.422  11.688  1.00  0.00    -0.310 N 
HETATM   21  N   UNL     1     -43.711 -53.144  12.048  1.00  0.00    -0.286 N 
ATOM     22  HN  UNL     1     -42.664 -51.753  10.920  1.00  0.00     0.186 HD
ATOM     23  HN  UNL     1     -44.588 -53.003  11.546  1.00  0.00     0.188 HD
ENDBRANCH   4  16
TORSDOF 2
ENDMDL
MODEL 7
REMARK VINA RESULT:      -5.7      3.876      5.879
REMARK  2 active torsions:
REMARK  status: ('A' for Active; 'I' for Inactive)
REMARK    1  A    between atoms: C_5  and  N_6 
REMARK       I    between atoms: N_6  and  C_7 
REMARK       I    between atoms: C_7  and  N_9 
REMARK    2  A    between atoms: N_9  and  C_10 
ROOT
HETATM    1  N   UNL     1     -40.135 -51.968  13.544  1.00  0.00    -0.335 N 
HETATM    2  C   UNL     1     -39.747 -53.270  13.560  1.00  0.00     0.322 C 
HETATM    3  O   UNL     1     -38.589 -53.632  13.744  1.00  0.00    -0.247 OA
HETATM    4  N   UNL     1     -40.728 -54.192  13.328  1.00  0.00    -0.294 N 
HETATM    5  H   UNL     1     -41.083 -51.788  13.228  1.00  0.00     0.164 HD
HETATM    6  H   UNL     1     -40.389 -55.141  13.276  1.00  0.00     0.172 HD
ENDROOT
BRANCH   1   7
HETATM    7  C   UNL     1     -39.264 -50.829  13.718  1.00  0.00     0.122 C 
HETATM    8  C   UNL     1     -39.789 -49.925  14.827  1.00  0.00     0.065 C 
HETATM    9  C   UNL     1     -39.889 -48.529  14.222  1.00  0.00     0.057 C 
HETATM   10  C   UNL     1     -39.248 -47.482  15.134  1.00  0.00     0.045 C 
HETATM   11  C   UNL     1     -41.343 -48.115  13.956  1.00  0.00     0.045 C 
HETATM   12  O   UNL     1     -39.166 -48.560  12.981  1.00  0.00    -0.369 OA
HETATM   13  C   UNL     1     -39.109 -49.915  12.484  1.00  0.00     0.075 C 
HETATM   14  C   UNL     1     -37.748 -50.121  11.816  1.00  0.00     0.048 C 
HETATM   15  C   UNL     1     -40.196 -50.071  11.408  1.00  0.00     0.048 C 
ENDBRANCH   1   7
BRANCH   4  16
HETATM   16  C   UNL     1     -42.105 -53.957  13.201  1.00  0.00     0.123 A 
HETATM   17  C   UNL     1     -42.955 -54.360  14.216  1.00  0.00     0.051 A 
HETATM   18  C   UNL     1     -44.321 -54.134  14.068  1.00  0.00     0.022 A 
HETATM   19  C   UNL     1     -44.761 -53.500  12.925  1.00  0.00     0.107 A 
HETATM   20  N   UNL     1     -43.926 -53.114  11.948  1.00  0.00    -0.310 N 
HETATM   21  N   UNL     1     -42.596 -53.354  12.094  1.00  0.00    -0.286 N 
ATOM     22  HN  UNL     1     -44.282 -52.649  11.113  1.00  0.00     0.186 HD
ATOM     23  HN  UNL     1     -41.954 -53.074  11.353  1.00  0.00     0.188 HD
ENDBRANCH   4  16
TORSDOF 2
ENDMDL
MODEL 8
REMARK VINA RESULT:      -5.7      4.270      5.855
REMARK  2 active torsions:
REMARK  status: ('A' for Active; 'I' for Inactive)
REMARK    1  A    between atoms: C_5  and  N_6 
REMARK       I    between atoms: N_6  and  C_7 
REMARK       I    between atoms: C_7  and  N_9 
REMARK    2  A    between atoms: N_9  and  C_10 
ROOT
HETATM    1  N   UNL     1     -42.326 -53.025  14.858  1.00  0.00    -0.335 N 
HETATM    2  C   UNL     1     -43.057 -53.916  15.578  1.00  0.00     0.322 C 
HETATM    3  O   UNL     1     -42.581 -54.643  16.444  1.00  0.00    -0.247 OA
HETATM    4  N   UNL     1     -44.385 -53.992  15.269  1.00  0.00    -0.294 N 
HETATM    5  H   UNL     1     -42.797 -52.596  14.068  1.00  0.00     0.164 HD
HETATM    6  H   UNL     1     -44.878 -54.714  15.774  1.00  0.00     0.172 HD
ENDROOT
BRANCH   1   7
HETATM    7  C   UNL     1     -40.903 -52.810  14.981  1.00  0.00     0.122 C 
HETATM    8  C   UNL     1     -40.562 -51.351  14.704  1.00  0.00     0.065 C 
HETATM    9  C   UNL     1     -39.484 -51.367  13.626  1.00  0.00     0.057 C 
HETATM   10  C   UNL     1     -38.311 -50.459  14.000  1.00  0.00     0.045 C 
HETATM   11  C   UNL     1     -40.023 -50.923  12.260  1.00  0.00     0.045 C 
HETATM   12  O   UNL     1     -39.005 -52.718  13.535  1.00  0.00    -0.369 OA
HETATM   13  C   UNL     1     -40.020 -53.628  14.015  1.00  0.00     0.075 C 
HETATM   14  C   UNL     1     -39.323 -54.777  14.746  1.00  0.00     0.048 C 
HETATM   15  C   UNL     1     -40.748 -54.212  12.793  1.00  0.00     0.048 C 
ENDBRANCH   1   7
BRANCH   4  16
HETATM   16  C   UNL     1     -45.103 -53.171  14.387  1.00  0.00     0.123 A 
HETATM   17  C   UNL     1     -45.912 -52.173  14.900  1.00  0.00     0.051 A 
HETATM   18  C   UNL     1     -46.630 -51.377  14.012  1.00  0.00     0.022 A 
HETATM   19  C   UNL     1     -46.486 -51.609  12.659  1.00  0.00     0.107 A 
HETATM   20  N   UNL     1     -45.698 -52.580  12.175  1.00  0.00    -0.310 N 
HETATM   21  N   UNL     1     -45.014 -53.363  13.051  1.00  0.00    -0.286 N 
ATOM     22  HN  UNL     1     -45.614 -52.728  11.169  1.00  0.00     0.186 HD
ATOM     23  HN  UNL     1     -44.420 -54.111  12.693  1.00  0.00     0.188 HD
ENDBRANCH   4  16
TORSDOF 2
ENDMDL
MODEL 9
REMARK VINA RESULT:      -5.5      2.705      5.386
REMARK  2 active torsions:
REMARK  status: ('A' for Active; 'I' for Inactive)
REMARK    1  A    between atoms: C_5  and  N_6 
REMARK       I    between atoms: N_6  and  C_7 
REMARK       I    between atoms: C_7  and  N_9 
REMARK    2  A    between atoms: N_9  and  C_10 
ROOT
HETATM    1  N   UNL     1     -42.555 -49.264  13.297  1.00  0.00    -0.335 N 
HETATM    2  C   UNL     1     -42.193 -50.057  14.338  1.00  0.00     0.322 C 
HETATM    3  O   UNL     1     -41.222 -49.837  15.055  1.00  0.00    -0.247 OA
HETATM    4  N   UNL     1     -42.965 -51.165  14.547  1.00  0.00    -0.294 N 
HETATM    5  H   UNL     1     -43.278 -49.631  12.686  1.00  0.00     0.164 HD
HETATM    6  H   UNL     1     -42.623 -51.765  15.282  1.00  0.00     0.172 HD
ENDROOT
BRANCH   1   7
HETATM    7  C   UNL     1     -41.860 -48.073  12.865  1.00  0.00     0.122 C 
HETATM    8  C   UNL     1     -42.817 -47.135  12.139  1.00  0.00     0.065 C 
HETATM    9  C   UNL     1     -42.167 -46.827  10.795  1.00  0.00     0.057 C 
HETATM   10  C   UNL     1     -42.171 -45.325  10.507  1.00  0.00     0.045 C 
HETATM   11  C   UNL     1     -42.870 -47.544   9.634  1.00  0.00     0.045 C 
HETATM   12  O   UNL     1     -40.805 -47.275  10.878  1.00  0.00    -0.369 OA
HETATM   13  C   UNL     1     -40.691 -48.304  11.885  1.00  0.00     0.075 C 
HETATM   14  C   UNL     1     -39.343 -48.134  12.590  1.00  0.00     0.048 C 
HETATM   15  C   UNL     1     -40.687 -49.666  11.172  1.00  0.00     0.048 C 
ENDBRANCH   1   7
BRANCH   4  16
HETATM   16  C   UNL     1     -44.157 -51.507  13.892  1.00  0.00     0.123 A 
HETATM   17  C   UNL     1     -45.368 -51.162  14.467  1.00  0.00     0.051 A 
HETATM   18  C   UNL     1     -46.542 -51.523  13.811  1.00  0.00     0.022 A 
HETATM   19  C   UNL     1     -46.444 -52.192  12.609  1.00  0.00     0.107 A 
HETATM   20  N   UNL     1     -45.264 -52.522  12.063  1.00  0.00    -0.310 N 
HETATM   21  N   UNL     1     -44.123 -52.179  12.718  1.00  0.00    -0.286 N 
ATOM     22  HN  UNL     1     -45.223 -53.019  11.173  1.00  0.00     0.186 HD
ATOM     23  HN  UNL     1     -43.221 -52.434  12.316  1.00  0.00     0.188 HD
ENDBRANCH   4  16
TORSDOF 2
ENDMDL
