MODEL 1
REMARK VINA RESULT:      -6.5      0.000      0.000
REMARK  5 active torsions:
REMARK  status: ('A' for Active; 'I' for Inactive)
REMARK    1  A    between atoms: C_4  and  N_5 
REMARK       I    between atoms: N_5  and  C_6 
REMARK       I    between atoms: C_6  and  N_8 
REMARK    2  A    between atoms: N_8  and  C_9 
REMARK    3  A    between atoms: C_9  and  C_11 
REMARK    4  A    between atoms: C_9  and  C_13 
REMARK    5  A    between atoms: C_11  and  O_12 
ROOT
HETATM    1  N   UNL     1     -41.073 -49.190  10.580  1.00  0.00    -0.293 N 
HETATM    2  C   UNL     1     -41.279 -49.823  11.841  1.00  0.00     0.322 C 
HETATM    3  O   UNL     1     -41.904 -49.283  12.736  1.00  0.00    -0.247 OA
HETATM    4  N   UNL     1     -40.615 -51.000  11.904  1.00  0.00    -0.331 N 
HETATM    5  H   UNL     1     -40.403 -49.580   9.940  1.00  0.00     0.172 HD
HETATM    6  H   UNL     1     -40.360 -51.461  11.041  1.00  0.00     0.165 HD
ENDROOT
BRANCH   4   7
HETATM    7  C   UNL     1     -40.405 -51.802  13.135  1.00  0.00     0.055 C 
HETATM    8  C   UNL     1     -41.522 -51.561  14.185  1.00  0.00     0.041 C 
BRANCH   7   9
HETATM    9  C   UNL     1     -40.528 -53.301  12.702  1.00  0.00     0.195 C 
BRANCH   9  10
HETATM   10  O   UNL     1     -40.585 -53.412  11.277  1.00  0.00    -0.398 OA
HETATM   11  H   UNL     1     -40.911 -54.302  11.056  1.00  0.00     0.209 HD
ENDBRANCH   9  10
ENDBRANCH   7   9
BRANCH   7  12
HETATM   12  C   UNL     1     -38.986 -51.554  13.805  1.00  0.00     0.015 C 
HETATM   13  C   UNL     1     -38.910 -50.473  14.907  1.00  0.00     0.007 C 
HETATM   14  C   UNL     1     -38.791 -49.028  14.419  1.00  0.00     0.000 C 
HETATM   15  C   UNL     1     -37.867 -48.811  13.222  1.00  0.00     0.000 C 
HETATM   16  C   UNL     1     -37.883 -49.925  12.183  1.00  0.00     0.000 C 
HETATM   17  C   UNL     1     -37.815 -51.297  12.836  1.00  0.00     0.007 C 
ENDBRANCH   7  12
ENDBRANCH   4   7
BRANCH   1  18
HETATM   18  C   UNL     1     -41.661 -47.963  10.282  1.00  0.00     0.127 A 
HETATM   19  C   UNL     1     -42.844 -47.759   9.603  1.00  0.00     0.076 A 
HETATM   20  C   UNL     1     -43.043 -46.369   9.570  1.00  0.00     0.025 A 
HETATM   21  C   UNL     1     -44.198 -45.654   8.972  1.00  0.00     0.070 C 
HETATM   22  N   UNL     1     -42.036 -45.715  10.156  1.00  0.00    -0.302 N 
HETATM   23  N   UNL     1     -41.210 -46.697  10.584  1.00  0.00    -0.281 N 
ATOM     24  HN  UNL     1     -41.917 -44.707  10.257  1.00  0.00     0.186 HD
HETATM   25  C   UNL     1     -40.043 -46.311  11.337  1.00  0.00     0.179 C 
ENDBRANCH   1  18
TORSDOF 5
ENDMDL
MODEL 2
REMARK VINA RESULT:      -6.2      2.308      3.686
REMARK  5 active torsions:
REMARK  status: ('A' for Active; 'I' for Inactive)
REMARK    1  A    between atoms: C_4  and  N_5 
REMARK       I    between atoms: N_5  and  C_6 
REMARK       I    between atoms: C_6  and  N_8 
REMARK    2  A    between atoms: N_8  and  C_9 
REMARK    3  A    between atoms: C_9  and  C_11 
REMARK    4  A    between atoms: C_9  and  C_13 
REMARK    5  A    between atoms: C_11  and  O_12 
ROOT
HETATM    1  N   UNL     1     -41.504 -49.601  11.085  1.00  0.00    -0.293 N 
HETATM    2  C   UNL     1     -42.374 -50.064  12.115  1.00  0.00     0.322 C 
HETATM    3  O   UNL     1     -42.929 -49.296  12.881  1.00  0.00    -0.247 OA
HETATM    4  N   UNL     1     -42.392 -51.416  12.160  1.00  0.00    -0.331 N 
HETATM    5  H   UNL     1     -40.925 -50.263  10.599  1.00  0.00     0.172 HD
HETATM    6  H   UNL     1     -42.117 -51.933  11.336  1.00  0.00     0.165 HD
ENDROOT
BRANCH   4   7
HETATM    7  C   UNL     1     -42.986 -52.231  13.248  1.00  0.00     0.055 C 
HETATM    8  C   UNL     1     -42.642 -51.668  14.653  1.00  0.00     0.041 C 
BRANCH   7   9
HETATM    9  C   UNL     1     -44.538 -52.096  13.092  1.00  0.00     0.195 C 
BRANCH   9  10
HETATM   10  O   UNL     1     -45.017 -52.943  12.043  1.00  0.00    -0.398 OA
HETATM   11  H   UNL     1     -45.665 -53.560  12.426  1.00  0.00     0.209 HD
ENDBRANCH   9  10
ENDBRANCH   7   9
BRANCH   7  12
HETATM   12  C   UNL     1     -42.574 -53.763  13.176  1.00  0.00     0.015 C 
HETATM   13  C   UNL     1     -42.794 -54.610  14.450  1.00  0.00     0.007 C 
HETATM   14  C   UNL     1     -41.709 -54.499  15.523  1.00  0.00     0.000 C 
HETATM   15  C   UNL     1     -40.273 -54.454  15.004  1.00  0.00     0.000 C 
HETATM   16  C   UNL     1     -40.079 -53.691  13.699  1.00  0.00     0.000 C 
HETATM   17  C   UNL     1     -41.145 -54.057  12.678  1.00  0.00     0.007 C 
ENDBRANCH   7  12
ENDBRANCH   4   7
BRANCH   1  18
HETATM   18  C   UNL     1     -41.325 -48.240  10.848  1.00  0.00     0.127 A 
HETATM   19  C   UNL     1     -40.318 -47.442  11.349  1.00  0.00     0.076 A 
HETATM   20  C   UNL     1     -40.532 -46.159  10.817  1.00  0.00     0.025 A 
HETATM   21  C   UNL     1     -39.690 -44.957  11.041  1.00  0.00     0.070 C 
HETATM   22  N   UNL     1     -41.627 -46.121  10.054  1.00  0.00    -0.302 N 
HETATM   23  N   UNL     1     -42.092 -47.391  10.082  1.00  0.00    -0.281 N 
ATOM     24  HN  UNL     1     -42.022 -45.319   9.562  1.00  0.00     0.186 HD
HETATM   25  C   UNL     1     -43.248 -47.699   9.277  1.00  0.00     0.179 C 
ENDBRANCH   1  18
TORSDOF 5
ENDMDL
MODEL 3
REMARK VINA RESULT:      -6.1      2.915      5.142
REMARK  5 active torsions:
REMARK  status: ('A' for Active; 'I' for Inactive)
REMARK    1  A    between atoms: C_4  and  N_5 
REMARK       I    between atoms: N_5  and  C_6 
REMARK       I    between atoms: C_6  and  N_8 
REMARK    2  A    between atoms: N_8  and  C_9 
REMARK    3  A    between atoms: C_9  and  C_11 
REMARK    4  A    between atoms: C_9  and  C_13 
REMARK    5  A    between atoms: C_11  and  O_12 
ROOT
HETATM    1  N   UNL     1     -42.134 -51.125  11.837  1.00  0.00    -0.293 N 
HETATM    2  C   UNL     1     -43.026 -50.986  12.941  1.00  0.00     0.322 C 
HETATM    3  O   UNL     1     -42.760 -50.280  13.897  1.00  0.00    -0.247 OA
HETATM    4  N   UNL     1     -44.096 -51.802  12.802  1.00  0.00    -0.331 N 
HETATM    5  H   UNL     1     -42.300 -51.852  11.163  1.00  0.00     0.172 HD
HETATM    6  H   UNL     1     -44.341 -52.130  11.877  1.00  0.00     0.165 HD
ENDROOT
BRANCH   4   7
HETATM    7  C   UNL     1     -45.092 -52.098  13.861  1.00  0.00     0.055 C 
HETATM    8  C   UNL     1     -45.234 -50.929  14.872  1.00  0.00     0.041 C 
BRANCH   7   9
HETATM    9  C   UNL     1     -46.474 -52.218  13.135  1.00  0.00     0.195 C 
BRANCH   9  10
HETATM   10  O   UNL     1     -46.300 -52.664  11.787  1.00  0.00    -0.398 OA
HETATM   11  H   UNL     1     -45.358 -52.867  11.656  1.00  0.00     0.209 HD
ENDBRANCH   9  10
ENDBRANCH   7   9
BRANCH   7  12
HETATM   12  C   UNL     1     -44.784 -53.443  14.647  1.00  0.00     0.015 C 
HETATM   13  C   UNL     1     -43.972 -53.321  15.956  1.00  0.00     0.007 C 
HETATM   14  C   UNL     1     -42.454 -53.216  15.794  1.00  0.00     0.000 C 
HETATM   15  C   UNL     1     -41.843 -54.119  14.724  1.00  0.00     0.000 C 
HETATM   16  C   UNL     1     -42.691 -54.305  13.472  1.00  0.00     0.000 C 
HETATM   17  C   UNL     1     -44.146 -54.579  13.822  1.00  0.00     0.007 C 
ENDBRANCH   7  12
ENDBRANCH   4   7
BRANCH   1  18
HETATM   18  C   UNL     1     -40.959 -50.382  11.760  1.00  0.00     0.127 A 
HETATM   19  C   UNL     1     -39.711 -50.766  12.205  1.00  0.00     0.076 A 
HETATM   20  C   UNL     1     -38.839 -49.710  11.887  1.00  0.00     0.025 A 
HETATM   21  C   UNL     1     -37.378 -49.664  12.141  1.00  0.00     0.070 C 
HETATM   22  N   UNL     1     -39.488 -48.696  11.310  1.00  0.00    -0.302 N 
HETATM   23  N   UNL     1     -40.769 -49.122  11.238  1.00  0.00    -0.281 N 
ATOM     24  HN  UNL     1     -39.105 -47.804  10.995  1.00  0.00     0.186 HD
HETATM   25  C   UNL     1     -41.725 -48.264  10.583  1.00  0.00     0.179 C 
ENDBRANCH   1  18
TORSDOF 5
ENDMDL
MODEL 4
REMARK VINA RESULT:      -6.1      2.783      4.737
REMARK  5 active torsions:
REMARK  status: ('A' for Active; 'I' for Inactive)
REMARK    1  A    between atoms: C_4  and  N_5 
REMARK       I    between atoms: N_5  and  C_6 
REMARK       I    between atoms: C_6  and  N_8 
REMARK    2  A    between atoms: N_8  and  C_9 
REMARK    3  A    between atoms: C_9  and  C_11 
REMARK    4  A    between atoms: C_9  and  C_13 
REMARK    5  A    between atoms: C_11  and  O_12 
ROOT
HETATM    1  N   UNL     1     -43.251 -48.633  11.691  1.00  0.00    -0.293 N 
HETATM    2  C   UNL     1     -42.535 -49.734  12.246  1.00  0.00     0.322 C 
HETATM    3  O   UNL     1     -41.328 -49.840  12.129  1.00  0.00    -0.247 OA
HETATM    4  N   UNL     1     -43.384 -50.634  12.794  1.00  0.00    -0.331 N 
HETATM    5  H   UNL     1     -44.254 -48.674  11.645  1.00  0.00     0.172 HD
HETATM    6  H   UNL     1     -44.309 -50.327  13.065  1.00  0.00     0.165 HD
ENDROOT
BRANCH   4   7
HETATM    7  C   UNL     1     -43.015 -52.000  13.239  1.00  0.00     0.055 C 
HETATM    8  C   UNL     1     -42.100 -52.720  12.214  1.00  0.00     0.041 C 
BRANCH   7   9
HETATM    9  C   UNL     1     -42.158 -51.817  14.536  1.00  0.00     0.195 C 
BRANCH   9  10
HETATM   10  O   UNL     1     -40.764 -51.950  14.243  1.00  0.00    -0.398 OA
HETATM   11  H   UNL     1     -40.444 -52.768  14.664  1.00  0.00     0.209 HD
ENDBRANCH   9  10
ENDBRANCH   7   9
BRANCH   7  12
HETATM   12  C   UNL     1     -44.275 -52.913  13.557  1.00  0.00     0.015 C 
HETATM   13  C   UNL     1     -45.475 -52.817  12.586  1.00  0.00     0.007 C 
HETATM   14  C   UNL     1     -46.427 -51.642  12.814  1.00  0.00     0.000 C 
HETATM   15  C   UNL     1     -46.738 -51.320  14.274  1.00  0.00     0.000 C 
HETATM   16  C   UNL     1     -45.573 -51.503  15.239  1.00  0.00     0.000 C 
HETATM   17  C   UNL     1     -44.842 -52.812  14.987  1.00  0.00     0.007 C 
ENDBRANCH   7  12
ENDBRANCH   4   7
BRANCH   1  18
HETATM   18  C   UNL     1     -42.587 -47.577  11.071  1.00  0.00     0.127 A 
HETATM   19  C   UNL     1     -41.662 -46.732  11.649  1.00  0.00     0.076 A 
HETATM   20  C   UNL     1     -41.248 -45.851  10.636  1.00  0.00     0.025 A 
HETATM   21  C   UNL     1     -40.237 -44.772  10.761  1.00  0.00     0.070 C 
HETATM   22  N   UNL     1     -41.892 -46.085   9.489  1.00  0.00    -0.302 N 
HETATM   23  N   UNL     1     -42.696 -47.136   9.771  1.00  0.00    -0.281 N 
ATOM     24  HN  UNL     1     -41.799 -45.586   8.604  1.00  0.00     0.186 HD
HETATM   25  C   UNL     1     -43.481 -47.686   8.694  1.00  0.00     0.179 C 
ENDBRANCH   1  18
TORSDOF 5
ENDMDL
MODEL 5
REMARK VINA RESULT:      -5.9      2.858      4.879
REMARK  5 active torsions:
REMARK  status: ('A' for Active; 'I' for Inactive)
REMARK    1  A    between atoms: C_4  and  N_5 
REMARK       I    between atoms: N_5  and  C_6 
REMARK       I    between atoms: C_6  and  N_8 
REMARK    2  A    between atoms: N_8  and  C_9 
REMARK    3  A    between atoms: C_9  and  C_11 
REMARK    4  A    between atoms: C_9  and  C_13 
REMARK    5  A    between atoms: C_11  and  O_12 
ROOT
HETATM    1  N   UNL     1     -41.974 -50.096  11.403  1.00  0.00    -0.293 N 
HETATM    2  C   UNL     1     -42.248 -50.765  12.632  1.00  0.00     0.322 C 
HETATM    3  O   UNL     1     -41.696 -50.452  13.671  1.00  0.00    -0.247 OA
HETATM    4  N   UNL     1     -43.090 -51.806  12.436  1.00  0.00    -0.331 N 
HETATM    5  H   UNL     1     -42.302 -50.498  10.542  1.00  0.00     0.172 HD
HETATM    6  H   UNL     1     -43.677 -51.809  11.613  1.00  0.00     0.165 HD
ENDROOT
BRANCH   4   7
HETATM    7  C   UNL     1     -43.396 -52.860  13.434  1.00  0.00     0.055 C 
HETATM    8  C   UNL     1     -44.322 -53.962  12.852  1.00  0.00     0.041 C 
BRANCH   7   9
HETATM    9  C   UNL     1     -42.034 -53.561  13.757  1.00  0.00     0.195 C 
BRANCH   9  10
HETATM   10  O   UNL     1     -41.527 -54.237  12.602  1.00  0.00    -0.398 OA
HETATM   11  H   UNL     1     -41.559 -53.617  11.852  1.00  0.00     0.209 HD
ENDBRANCH   9  10
ENDBRANCH   7   9
BRANCH   7  12
HETATM   12  C   UNL     1     -44.032 -52.287  14.771  1.00  0.00     0.015 C 
HETATM   13  C   UNL     1     -44.710 -53.303  15.719  1.00  0.00     0.007 C 
HETATM   14  C   UNL     1     -46.143 -53.701  15.358  1.00  0.00     0.000 C 
HETATM   15  C   UNL     1     -47.037 -52.565  14.865  1.00  0.00     0.000 C 
HETATM   16  C   UNL     1     -46.340 -51.519  14.004  1.00  0.00     0.000 C 
HETATM   17  C   UNL     1     -45.006 -51.103  14.605  1.00  0.00     0.007 C 
ENDBRANCH   7  12
ENDBRANCH   4   7
BRANCH   1  18
HETATM   18  C   UNL     1     -41.130 -48.988  11.356  1.00  0.00     0.127 A 
HETATM   19  C   UNL     1     -41.506 -47.673  11.182  1.00  0.00     0.076 A 
HETATM   20  C   UNL     1     -40.323 -46.916  11.231  1.00  0.00     0.025 A 
HETATM   21  C   UNL     1     -40.212 -45.440  11.123  1.00  0.00     0.070 C 
HETATM   22  N   UNL     1     -39.250 -47.695  11.386  1.00  0.00    -0.302 N 
HETATM   23  N   UNL     1     -39.758 -48.946  11.463  1.00  0.00    -0.281 N 
ATOM     24  HN  UNL     1     -38.271 -47.412  11.436  1.00  0.00     0.186 HD
HETATM   25  C   UNL     1     -38.839 -50.029  11.711  1.00  0.00     0.179 C 
ENDBRANCH   1  18
TORSDOF 5
ENDMDL
MODEL 6
REMARK VINA RESULT:      -5.9      2.052      4.092
REMARK  5 active torsions:
REMARK  status: ('A' for Active; 'I' for Inactive)
REMARK    1  A    between atoms: C_4  and  N_5 
REMARK       I    between atoms: N_5  and  C_6 
REMARK       I    between atoms: C_6  and  N_8 
REMARK    2  A    between atoms: N_8  and  C_9 
REMARK    3  A    between atoms: C_9  and  C_11 
REMARK    4  A    between atoms: C_9  and  C_13 
REMARK    5  A    between atoms: C_11  and  O_12 
ROOT
HETATM    1  N   UNL     1     -41.615 -49.271  10.753  1.00  0.00    -0.293 N 
HETATM    2  C   UNL     1     -41.747 -49.900  12.026  1.00  0.00     0.322 C 
HETATM    3  O   UNL     1     -41.770 -49.258  13.060  1.00  0.00    -0.247 OA
HETATM    4  N   UNL     1     -41.734 -51.247  11.901  1.00  0.00    -0.331 N 
HETATM    5  H   UNL     1     -41.413 -49.835   9.946  1.00  0.00     0.172 HD
HETATM    6  H   UNL     1     -41.975 -51.655  11.007  1.00  0.00     0.165 HD
ENDROOT
BRANCH   4   7
HETATM    7  C   UNL     1     -41.607 -52.211  13.022  1.00  0.00     0.055 C 
HETATM    8  C   UNL     1     -41.338 -53.655  12.520  1.00  0.00     0.041 C 
BRANCH   7   9
HETATM    9  C   UNL     1     -40.330 -51.782  13.819  1.00  0.00     0.195 C 
BRANCH   9  10
HETATM   10  O   UNL     1     -39.143 -52.176  13.123  1.00  0.00    -0.398 OA
HETATM   11  H   UNL     1     -38.636 -52.770  13.704  1.00  0.00     0.209 HD
ENDBRANCH   9  10
ENDBRANCH   7   9
BRANCH   7  12
HETATM   12  C   UNL     1     -42.866 -52.212  13.989  1.00  0.00     0.015 C 
HETATM   13  C   UNL     1     -43.008 -53.412  14.955  1.00  0.00     0.007 C 
HETATM   14  C   UNL     1     -43.623 -54.680  14.360  1.00  0.00     0.000 C 
HETATM   15  C   UNL     1     -44.798 -54.458  13.410  1.00  0.00     0.000 C 
HETATM   16  C   UNL     1     -44.691 -53.224  12.524  1.00  0.00     0.000 C 
HETATM   17  C   UNL     1     -44.238 -52.008  13.316  1.00  0.00     0.007 C 
ENDBRANCH   7  12
ENDBRANCH   4   7
BRANCH   1  18
HETATM   18  C   UNL     1     -41.603 -47.883  10.631  1.00  0.00     0.127 A 
HETATM   19  C   UNL     1     -40.540 -47.042  10.889  1.00  0.00     0.076 A 
HETATM   20  C   UNL     1     -40.988 -45.743  10.598  1.00  0.00     0.025 A 
HETATM   21  C   UNL     1     -40.195 -44.492  10.692  1.00  0.00     0.070 C 
HETATM   22  N   UNL     1     -42.268 -45.740  10.215  1.00  0.00    -0.302 N 
HETATM   23  N   UNL     1     -42.622 -47.045  10.238  1.00  0.00    -0.281 N 
ATOM     24  HN  UNL     1     -42.845 -44.937   9.963  1.00  0.00     0.186 HD
HETATM   25  C   UNL     1     -43.950 -47.387   9.793  1.00  0.00     0.179 C 
ENDBRANCH   1  18
TORSDOF 5
ENDMDL
MODEL 7
REMARK VINA RESULT:      -5.8      1.821      3.262
REMARK  5 active torsions:
REMARK  status: ('A' for Active; 'I' for Inactive)
REMARK    1  A    between atoms: C_4  and  N_5 
REMARK       I    between atoms: N_5  and  C_6 
REMARK       I    between atoms: C_6  and  N_8 
REMARK    2  A    between atoms: N_8  and  C_9 
REMARK    3  A    between atoms: C_9  and  C_11 
REMARK    4  A    between atoms: C_9  and  C_13 
REMARK    5  A    between atoms: C_11  and  O_12 
ROOT
HETATM    1  N   UNL     1     -41.056 -49.263  10.806  1.00  0.00    -0.293 N 
HETATM    2  C   UNL     1     -41.783 -49.936  11.831  1.00  0.00     0.322 C 
HETATM    3  O   UNL     1     -42.427 -49.328  12.667  1.00  0.00    -0.247 OA
HETATM    4  N   UNL     1     -41.563 -51.270  11.783  1.00  0.00    -0.331 N 
HETATM    5  H   UNL     1     -40.394 -49.781  10.255  1.00  0.00     0.172 HD
HETATM    6  H   UNL     1     -41.240 -51.678  10.916  1.00  0.00     0.165 HD
ENDROOT
BRANCH   4   7
HETATM    7  C   UNL     1     -41.955 -52.243  12.832  1.00  0.00     0.055 C 
HETATM    8  C   UNL     1     -43.436 -52.686  12.691  1.00  0.00     0.041 C 
BRANCH   7   9
HETATM    9  C   UNL     1     -41.091 -53.524  12.580  1.00  0.00     0.195 C 
BRANCH   9  10
HETATM   10  O   UNL     1     -40.552 -53.517  11.254  1.00  0.00    -0.398 OA
HETATM   11  H   UNL     1     -39.836 -52.858  11.223  1.00  0.00     0.209 HD
ENDBRANCH   9  10
ENDBRANCH   7   9
BRANCH   7  12
HETATM   12  C   UNL     1     -41.700 -51.709  14.305  1.00  0.00     0.015 C 
HETATM   13  C   UNL     1     -40.262 -51.839  14.860  1.00  0.00     0.007 C 
HETATM   14  C   UNL     1     -39.886 -53.209  15.428  1.00  0.00     0.000 C 
HETATM   15  C   UNL     1     -40.973 -53.902  16.248  1.00  0.00     0.000 C 
HETATM   16  C   UNL     1     -42.396 -53.695  15.745  1.00  0.00     0.000 C 
HETATM   17  C   UNL     1     -42.655 -52.238  15.393  1.00  0.00     0.007 C 
ENDBRANCH   7  12
ENDBRANCH   4   7
BRANCH   1  18
HETATM   18  C   UNL     1     -41.128 -47.880  10.657  1.00  0.00     0.127 A 
HETATM   19  C   UNL     1     -40.249 -46.949  11.170  1.00  0.00     0.076 A 
HETATM   20  C   UNL     1     -40.710 -45.694  10.739  1.00  0.00     0.025 A 
HETATM   21  C   UNL     1     -40.078 -44.379  11.010  1.00  0.00     0.070 C 
HETATM   22  N   UNL     1     -41.835 -45.803  10.027  1.00  0.00    -0.302 N 
HETATM   23  N   UNL     1     -42.071 -47.134   9.986  1.00  0.00    -0.281 N 
ATOM     24  HN  UNL     1     -42.389 -45.055   9.610  1.00  0.00     0.186 HD
HETATM   25  C   UNL     1     -43.198 -47.591   9.210  1.00  0.00     0.179 C 
ENDBRANCH   1  18
TORSDOF 5
ENDMDL
MODEL 8
REMARK VINA RESULT:      -5.8      2.390      3.861
REMARK  5 active torsions:
REMARK  status: ('A' for Active; 'I' for Inactive)
REMARK    1  A    between atoms: C_4  and  N_5 
REMARK       I    between atoms: N_5  and  C_6 
REMARK       I    between atoms: C_6  and  N_8 
REMARK    2  A    between atoms: N_8  and  C_9 
REMARK    3  A    between atoms: C_9  and  C_11 
REMARK    4  A    between atoms: C_9  and  C_13 
REMARK    5  A    between atoms: C_11  and  O_12 
ROOT
HETATM    1  N   UNL     1     -41.919 -50.358  11.613  1.00  0.00    -0.293 N 
HETATM    2  C   UNL     1     -42.870 -50.503  12.664  1.00  0.00     0.322 C 
HETATM    3  O   UNL     1     -43.041 -49.635  13.501  1.00  0.00    -0.247 OA
HETATM    4  N   UNL     1     -43.435 -51.732  12.637  1.00  0.00    -0.331 N 
HETATM    5  H   UNL     1     -41.674 -51.161  11.059  1.00  0.00     0.172 HD
HETATM    6  H   UNL     1     -43.420 -52.256  11.772  1.00  0.00     0.165 HD
ENDROOT
BRANCH   4   7
HETATM    7  C   UNL     1     -44.277 -52.314  13.712  1.00  0.00     0.055 C 
HETATM    8  C   UNL     1     -45.088 -51.228  14.469  1.00  0.00     0.041 C 
BRANCH   7   9
HETATM    9  C   UNL     1     -45.330 -53.223  12.994  1.00  0.00     0.195 C 
BRANCH   9  10
HETATM   10  O   UNL     1     -45.847 -52.574  11.829  1.00  0.00    -0.398 OA
HETATM   11  H   UNL     1     -45.842 -53.216  11.098  1.00  0.00     0.209 HD
ENDBRANCH   9  10
ENDBRANCH   7   9
BRANCH   7  12
HETATM   12  C   UNL     1     -43.448 -53.178  14.755  1.00  0.00     0.015 C 
HETATM   13  C   UNL     1     -42.403 -52.429  15.614  1.00  0.00     0.007 C 
HETATM   14  C   UNL     1     -41.051 -52.169  14.945  1.00  0.00     0.000 C 
HETATM   15  C   UNL     1     -40.504 -53.316  14.098  1.00  0.00     0.000 C 
HETATM   16  C   UNL     1     -41.552 -54.105  13.323  1.00  0.00     0.000 C 
HETATM   17  C   UNL     1     -42.755 -54.436  14.193  1.00  0.00     0.007 C 
ENDBRANCH   7  12
ENDBRANCH   4   7
BRANCH   1  18
HETATM   18  C   UNL     1     -41.208 -49.173  11.439  1.00  0.00     0.127 A 
HETATM   19  C   UNL     1     -41.690 -47.993  10.913  1.00  0.00     0.076 A 
HETATM   20  C   UNL     1     -40.626 -47.077  10.964  1.00  0.00     0.025 A 
HETATM   21  C   UNL     1     -40.661 -45.656  10.536  1.00  0.00     0.070 C 
HETATM   22  N   UNL     1     -39.518 -47.639  11.455  1.00  0.00    -0.302 N 
HETATM   23  N   UNL     1     -39.891 -48.907  11.740  1.00  0.00    -0.281 N 
ATOM     24  HN  UNL     1     -38.602 -47.210  11.585  1.00  0.00     0.186 HD
HETATM   25  C   UNL     1     -38.918 -49.767  12.367  1.00  0.00     0.179 C 
ENDBRANCH   1  18
TORSDOF 5
ENDMDL
MODEL 9
REMARK VINA RESULT:      -5.8      2.213      6.368
REMARK  5 active torsions:
REMARK  status: ('A' for Active; 'I' for Inactive)
REMARK    1  A    between atoms: C_4  and  N_5 
REMARK       I    between atoms: N_5  and  C_6 
REMARK       I    between atoms: C_6  and  N_8 
REMARK    2  A    between atoms: N_8  and  C_9 
REMARK    3  A    between atoms: C_9  and  C_11 
REMARK    4  A    between atoms: C_9  and  C_13 
REMARK    5  A    between atoms: C_11  and  O_12 
ROOT
HETATM    1  N   UNL     1     -39.887 -49.480  11.245  1.00  0.00    -0.293 N 
HETATM    2  C   UNL     1     -39.919 -48.179  11.827  1.00  0.00     0.322 C 
HETATM    3  O   UNL     1     -40.022 -48.015  13.029  1.00  0.00    -0.247 OA
HETATM    4  N   UNL     1     -39.925 -47.223  10.869  1.00  0.00    -0.331 N 
HETATM    5  H   UNL     1     -39.990 -49.574  10.249  1.00  0.00     0.172 HD
HETATM    6  H   UNL     1     -39.578 -47.455   9.948  1.00  0.00     0.165 HD
ENDROOT
BRANCH   4   7
HETATM    7  C   UNL     1     -40.199 -45.782  11.097  1.00  0.00     0.055 C 
HETATM    8  C   UNL     1     -39.646 -45.293  12.462  1.00  0.00     0.041 C 
BRANCH   7   9
HETATM    9  C   UNL     1     -39.394 -45.010   9.998  1.00  0.00     0.195 C 
BRANCH   9  10
HETATM   10  O   UNL     1     -39.925 -43.694   9.815  1.00  0.00    -0.398 OA
HETATM   11  H   UNL     1     -40.493 -43.488  10.578  1.00  0.00     0.209 HD
ENDBRANCH   9  10
ENDBRANCH   7   9
BRANCH   7  12
HETATM   12  C   UNL     1     -41.740 -45.416  10.987  1.00  0.00     0.015 C 
HETATM   13  C   UNL     1     -42.604 -45.628  12.252  1.00  0.00     0.007 C 
HETATM   14  C   UNL     1     -43.091 -47.058  12.496  1.00  0.00     0.000 C 
HETATM   15  C   UNL     1     -43.547 -47.819  11.253  1.00  0.00     0.000 C 
HETATM   16  C   UNL     1     -42.745 -47.536   9.989  1.00  0.00     0.000 C 
HETATM   17  C   UNL     1     -42.504 -46.046   9.806  1.00  0.00     0.007 C 
ENDBRANCH   7  12
ENDBRANCH   4   7
BRANCH   1  18
HETATM   18  C   UNL     1     -39.874 -50.626  12.037  1.00  0.00     0.127 A 
HETATM   19  C   UNL     1     -40.919 -51.506  12.229  1.00  0.00     0.076 A 
HETATM   20  C   UNL     1     -40.431 -52.515  13.077  1.00  0.00     0.025 A 
HETATM   21  C   UNL     1     -41.174 -53.708  13.551  1.00  0.00     0.070 C 
HETATM   22  N   UNL     1     -39.167 -52.281  13.440  1.00  0.00    -0.302 N 
HETATM   23  N   UNL     1     -38.846 -51.135  12.799  1.00  0.00    -0.281 N 
ATOM     24  HN  UNL     1     -38.579 -52.839  14.060  1.00  0.00     0.186 HD
HETATM   25  C   UNL     1     -37.495 -50.648  12.930  1.00  0.00     0.179 C 
ENDBRANCH   1  18
TORSDOF 5
ENDMDL
