MODEL 1
REMARK VINA RESULT:      -6.6      0.000      0.000
REMARK  7 active torsions:
REMARK  status: ('A' for Active; 'I' for Inactive)
REMARK    1  A    between atoms: N_11  and  C_12 
REMARK    2  A    between atoms: C_12  and  C_13 
REMARK    3  A    between atoms: C_13  and  O_14 
REMARK    4  A    between atoms: C_13  and  C_15 
REMARK    5  A    between atoms: C_15  and  O_16 
REMARK    6  A    between atoms: O_16  and  C_17 
REMARK    7  A    between atoms: C_17  and  C_18 
ROOT
HETATM    1  C   UNL     1     -40.500 -43.809  12.585  1.00  0.00     0.164 C 
HETATM    2  N   UNL     1     -40.842 -45.039  11.896  1.00  0.00    -0.269 N 
HETATM    3  C   UNL     1     -41.855 -44.995  10.916  1.00  0.00     0.332 A 
HETATM    4  O   UNL     1     -42.438 -43.943  10.639  1.00  0.00    -0.246 OA
HETATM    5  N   UNL     1     -42.170 -46.196  10.274  1.00  0.00    -0.287 N 
HETATM    6  C   UNL     1     -43.193 -46.237   9.243  1.00  0.00     0.163 C 
HETATM    7  C   UNL     1     -41.494 -47.343  10.617  1.00  0.00     0.145 A 
HETATM    8  N   UNL     1     -41.696 -48.582  10.092  1.00  0.00    -0.336 N 
ATOM      9  HN  UNL     1     -42.368 -48.856   9.375  1.00  0.00     0.168 HD
HETATM   10  C   UNL     1     -40.826 -49.349  10.718  1.00  0.00     0.185 A 
HETATM   11  N   UNL     1     -40.078 -48.636  11.619  1.00  0.00    -0.333 N 
HETATM   12  C   UNL     1     -40.512 -47.342  11.562  1.00  0.00     0.149 A 
HETATM   13  C   UNL     1     -40.105 -46.172  12.256  1.00  0.00     0.282 A 
HETATM   14  O   UNL     1     -39.192 -46.168  13.081  1.00  0.00    -0.265 OA
ENDROOT
BRANCH  11  15
HETATM   15  C   UNL     1     -39.063 -49.185  12.498  1.00  0.00     0.164 C 
BRANCH  15  16
HETATM   16  C   UNL     1     -38.883 -50.701  12.333  1.00  0.00     0.160 C 
BRANCH  16  17
HETATM   17  O   UNL     1     -37.512 -51.098  12.447  1.00  0.00    -0.392 OA
HETATM   18  H   UNL     1     -37.372 -51.909  11.918  1.00  0.00     0.210 HD
ENDBRANCH  16  17
BRANCH  16  19
HETATM   19  C   UNL     1     -39.697 -51.467  13.383  1.00  0.00     0.201 C 
BRANCH  19  20
HETATM   20  O   UNL     1     -40.046 -52.751  12.880  1.00  0.00    -0.384 OA
BRANCH  20  21
HETATM   21  C   UNL     1     -41.267 -52.720  12.142  1.00  0.00     0.206 C 
BRANCH  21  22
HETATM   22  C   UNL     1     -42.309 -53.471  12.927  1.00  0.00    -0.035 A 
HETATM   23  C   UNL     1     -41.943 -54.193  14.073  1.00  0.00     0.009 A 
HETATM   24  C   UNL     1     -42.899 -54.904  14.799  1.00  0.00     0.001 A 
HETATM   25  C   UNL     1     -44.230 -54.899  14.390  1.00  0.00     0.000 A 
HETATM   26  C   UNL     1     -44.609 -54.179  13.257  1.00  0.00     0.001 A 
HETATM   27  C   UNL     1     -43.653 -53.467  12.529  1.00  0.00     0.009 A 
ENDBRANCH  21  22
ENDBRANCH  20  21
ENDBRANCH  19  20
ENDBRANCH  16  19
ENDBRANCH  15  16
ENDBRANCH  11  15
TORSDOF 7
ENDMDL
MODEL 2
REMARK VINA RESULT:      -6.5      2.564      3.549
REMARK  7 active torsions:
REMARK  status: ('A' for Active; 'I' for Inactive)
REMARK    1  A    between atoms: N_11  and  C_12 
REMARK    2  A    between atoms: C_12  and  C_13 
REMARK    3  A    between atoms: C_13  and  O_14 
REMARK    4  A    between atoms: C_13  and  C_15 
REMARK    5  A    between atoms: C_15  and  O_16 
REMARK    6  A    between atoms: O_16  and  C_17 
REMARK    7  A    between atoms: C_17  and  C_18 
ROOT
HETATM    1  C   UNL     1     -38.409 -46.926  15.805  1.00  0.00     0.164 C 
HETATM    2  N   UNL     1     -38.938 -47.200  14.482  1.00  0.00    -0.269 N 
HETATM    3  C   UNL     1     -39.239 -46.107  13.644  1.00  0.00     0.332 A 
HETATM    4  O   UNL     1     -39.056 -44.943  14.013  1.00  0.00    -0.246 OA
HETATM    5  N   UNL     1     -39.755 -46.399  12.379  1.00  0.00    -0.287 N 
HETATM    6  C   UNL     1     -40.081 -45.333  11.449  1.00  0.00     0.163 C 
HETATM    7  C   UNL     1     -39.943 -47.711  12.013  1.00  0.00     0.145 A 
HETATM    8  N   UNL     1     -40.444 -48.151  10.826  1.00  0.00    -0.336 N 
ATOM      9  HN  UNL     1     -40.758 -47.591  10.034  1.00  0.00     0.168 HD
HETATM   10  C   UNL     1     -40.433 -49.464  10.932  1.00  0.00     0.185 A 
HETATM   11  N   UNL     1     -39.938 -49.871  12.145  1.00  0.00    -0.333 N 
HETATM   12  C   UNL     1     -39.628 -48.741  12.847  1.00  0.00     0.149 A 
HETATM   13  C   UNL     1     -39.080 -48.550  14.144  1.00  0.00     0.282 A 
HETATM   14  O   UNL     1     -38.761 -49.483  14.879  1.00  0.00    -0.265 OA
ENDROOT
BRANCH  11  15
HETATM   15  C   UNL     1     -39.829 -51.245  12.595  1.00  0.00     0.164 C 
BRANCH  15  16
HETATM   16  C   UNL     1     -40.996 -52.126  12.126  1.00  0.00     0.160 C 
BRANCH  16  17
HETATM   17  O   UNL     1     -40.549 -53.378  11.596  1.00  0.00    -0.392 OA
HETATM   18  H   UNL     1     -40.903 -53.484  10.690  1.00  0.00     0.210 HD
ENDBRANCH  16  17
BRANCH  16  19
HETATM   19  C   UNL     1     -41.968 -52.407  13.278  1.00  0.00     0.201 C 
BRANCH  19  20
HETATM   20  O   UNL     1     -42.226 -51.206  13.995  1.00  0.00    -0.384 OA
BRANCH  20  21
HETATM   21  C   UNL     1     -43.288 -50.454  13.411  1.00  0.00     0.206 C 
BRANCH  21  22
HETATM   22  C   UNL     1     -44.567 -50.823  14.114  1.00  0.00    -0.035 A 
HETATM   23  C   UNL     1     -45.657 -51.316  13.380  1.00  0.00     0.009 A 
HETATM   24  C   UNL     1     -46.852 -51.647  14.020  1.00  0.00     0.001 A 
HETATM   25  C   UNL     1     -46.969 -51.493  15.399  1.00  0.00     0.000 A 
HETATM   26  C   UNL     1     -45.891 -51.012  16.141  1.00  0.00     0.001 A 
HETATM   27  C   UNL     1     -44.694 -50.679  15.502  1.00  0.00     0.009 A 
ENDBRANCH  21  22
ENDBRANCH  20  21
ENDBRANCH  19  20
ENDBRANCH  16  19
ENDBRANCH  15  16
ENDBRANCH  11  15
TORSDOF 7
ENDMDL
MODEL 3
REMARK VINA RESULT:      -6.5      2.208      3.403
REMARK  7 active torsions:
REMARK  status: ('A' for Active; 'I' for Inactive)
REMARK    1  A    between atoms: N_11  and  C_12 
REMARK    2  A    between atoms: C_12  and  C_13 
REMARK    3  A    between atoms: C_13  and  O_14 
REMARK    4  A    between atoms: C_13  and  C_15 
REMARK    5  A    between atoms: C_15  and  O_16 
REMARK    6  A    between atoms: O_16  and  C_17 
REMARK    7  A    between atoms: C_17  and  C_18 
ROOT
HETATM    1  C   UNL     1     -38.625 -46.815  15.525  1.00  0.00     0.164 C 
HETATM    2  N   UNL     1     -39.165 -47.180  14.230  1.00  0.00    -0.269 N 
HETATM    3  C   UNL     1     -39.344 -46.162  13.270  1.00  0.00     0.332 A 
HETATM    4  O   UNL     1     -39.047 -44.989  13.513  1.00  0.00    -0.246 OA
HETATM    5  N   UNL     1     -39.875 -46.541  12.034  1.00  0.00    -0.287 N 
HETATM    6  C   UNL     1     -40.080 -45.558  10.985  1.00  0.00     0.163 C 
HETATM    7  C   UNL     1     -40.192 -47.860  11.811  1.00  0.00     0.145 A 
HETATM    8  N   UNL     1     -40.724 -48.377  10.669  1.00  0.00    -0.336 N 
ATOM      9  HN  UNL     1     -40.970 -47.880   9.813  1.00  0.00     0.168 HD
HETATM   10  C   UNL     1     -40.848 -49.664  10.919  1.00  0.00     0.185 A 
HETATM   11  N   UNL     1     -40.410 -49.981  12.179  1.00  0.00    -0.333 N 
HETATM   12  C   UNL     1     -39.993 -48.817  12.760  1.00  0.00     0.149 A 
HETATM   13  C   UNL     1     -39.441 -48.538  14.039  1.00  0.00     0.282 A 
HETATM   14  O   UNL     1     -39.227 -49.411  14.879  1.00  0.00    -0.265 OA
ENDROOT
BRANCH  11  15
HETATM   15  C   UNL     1     -40.446 -51.300  12.780  1.00  0.00     0.164 C 
BRANCH  15  16
HETATM   16  C   UNL     1     -41.303 -52.298  11.987  1.00  0.00     0.160 C 
BRANCH  16  17
HETATM   17  O   UNL     1     -40.510 -53.314  11.364  1.00  0.00    -0.392 OA
HETATM   18  H   UNL     1     -41.096 -54.046  11.084  1.00  0.00     0.210 HD
ENDBRANCH  16  17
BRANCH  16  19
HETATM   19  C   UNL     1     -42.334 -52.978  12.895  1.00  0.00     0.201 C 
BRANCH  19  20
HETATM   20  O   UNL     1     -43.575 -53.097  12.211  1.00  0.00    -0.384 OA
BRANCH  20  21
HETATM   21  C   UNL     1     -44.453 -54.020  12.856  1.00  0.00     0.206 C 
BRANCH  21  22
HETATM   22  C   UNL     1     -45.353 -53.245  13.779  1.00  0.00    -0.035 A 
HETATM   23  C   UNL     1     -45.986 -52.076  13.329  1.00  0.00     0.009 A 
HETATM   24  C   UNL     1     -46.811 -51.342  14.182  1.00  0.00     0.001 A 
HETATM   25  C   UNL     1     -47.013 -51.769  15.492  1.00  0.00     0.000 A 
HETATM   26  C   UNL     1     -46.396 -52.933  15.950  1.00  0.00     0.001 A 
HETATM   27  C   UNL     1     -45.570 -53.668  15.098  1.00  0.00     0.009 A 
ENDBRANCH  21  22
ENDBRANCH  20  21
ENDBRANCH  19  20
ENDBRANCH  16  19
ENDBRANCH  15  16
ENDBRANCH  11  15
TORSDOF 7
ENDMDL
MODEL 4
REMARK VINA RESULT:      -6.4      2.656      2.935
REMARK  7 active torsions:
REMARK  status: ('A' for Active; 'I' for Inactive)
REMARK    1  A    between atoms: N_11  and  C_12 
REMARK    2  A    between atoms: C_12  and  C_13 
REMARK    3  A    between atoms: C_13  and  O_14 
REMARK    4  A    between atoms: C_13  and  C_15 
REMARK    5  A    between atoms: C_15  and  O_16 
REMARK    6  A    between atoms: O_16  and  C_17 
REMARK    7  A    between atoms: C_17  and  C_18 
ROOT
HETATM    1  C   UNL     1     -42.632 -43.568  11.356  1.00  0.00     0.164 C 
HETATM    2  N   UNL     1     -42.397 -44.952  10.993  1.00  0.00    -0.269 N 
HETATM    3  C   UNL     1     -43.056 -45.466   9.858  1.00  0.00     0.332 A 
HETATM    4  O   UNL     1     -43.812 -44.763   9.179  1.00  0.00    -0.246 OA
HETATM    5  N   UNL     1     -42.819 -46.805   9.536  1.00  0.00    -0.287 N 
HETATM    6  C   UNL     1     -43.448 -47.410   8.376  1.00  0.00     0.163 C 
HETATM    7  C   UNL     1     -41.970 -47.547  10.323  1.00  0.00     0.145 A 
HETATM    8  N   UNL     1     -41.651 -48.859  10.145  1.00  0.00    -0.336 N 
ATOM      9  HN  UNL     1     -41.983 -49.490   9.416  1.00  0.00     0.168 HD
HETATM   10  C   UNL     1     -40.814 -49.128  11.127  1.00  0.00     0.185 A 
HETATM   11  N   UNL     1     -40.591 -48.032  11.919  1.00  0.00    -0.333 N 
HETATM   12  C   UNL     1     -41.342 -47.011  11.406  1.00  0.00     0.149 A 
HETATM   13  C   UNL     1     -41.501 -45.657  11.804  1.00  0.00     0.282 A 
HETATM   14  O   UNL     1     -40.903 -45.167  12.760  1.00  0.00    -0.265 OA
ENDROOT
BRANCH  11  15
HETATM   15  C   UNL     1     -39.757 -48.000  13.104  1.00  0.00     0.164 C 
BRANCH  15  16
HETATM   16  C   UNL     1     -40.518 -48.375  14.384  1.00  0.00     0.160 C 
BRANCH  16  17
HETATM   17  O   UNL     1     -41.505 -47.398  14.731  1.00  0.00    -0.392 OA
HETATM   18  H   UNL     1     -41.675 -47.446  15.693  1.00  0.00     0.210 HD
ENDBRANCH  16  17
BRANCH  16  19
HETATM   19  C   UNL     1     -41.213 -49.732  14.232  1.00  0.00     0.201 C 
BRANCH  19  20
HETATM   20  O   UNL     1     -42.612 -49.541  14.058  1.00  0.00    -0.384 OA
BRANCH  20  21
HETATM   21  C   UNL     1     -43.228 -50.663  13.427  1.00  0.00     0.206 C 
BRANCH  21  22
HETATM   22  C   UNL     1     -44.546 -50.919  14.108  1.00  0.00    -0.035 A 
HETATM   23  C   UNL     1     -44.674 -50.723  15.491  1.00  0.00     0.009 A 
HETATM   24  C   UNL     1     -45.887 -50.971  16.134  1.00  0.00     0.001 A 
HETATM   25  C   UNL     1     -46.985 -51.415  15.402  1.00  0.00     0.000 A 
HETATM   26  C   UNL     1     -46.874 -51.606  14.025  1.00  0.00     0.001 A 
HETATM   27  C   UNL     1     -45.660 -51.359  13.380  1.00  0.00     0.009 A 
ENDBRANCH  21  22
ENDBRANCH  20  21
ENDBRANCH  19  20
ENDBRANCH  16  19
ENDBRANCH  15  16
ENDBRANCH  11  15
TORSDOF 7
ENDMDL
MODEL 5
REMARK VINA RESULT:      -6.3      1.613      2.248
REMARK  7 active torsions:
REMARK  status: ('A' for Active; 'I' for Inactive)
REMARK    1  A    between atoms: N_11  and  C_12 
REMARK    2  A    between atoms: C_12  and  C_13 
REMARK    3  A    between atoms: C_13  and  O_14 
REMARK    4  A    between atoms: C_13  and  C_15 
REMARK    5  A    between atoms: C_15  and  O_16 
REMARK    6  A    between atoms: O_16  and  C_17 
REMARK    7  A    between atoms: C_17  and  C_18 
ROOT
HETATM    1  C   UNL     1     -39.187 -45.892  15.280  1.00  0.00     0.164 C 
HETATM    2  N   UNL     1     -39.749 -45.992  13.947  1.00  0.00    -0.269 N 
HETATM    3  C   UNL     1     -39.654 -44.872  13.095  1.00  0.00     0.332 A 
HETATM    4  O   UNL     1     -39.103 -43.830  13.462  1.00  0.00    -0.246 OA
HETATM    5  N   UNL     1     -40.212 -44.994  11.820  1.00  0.00    -0.287 N 
HETATM    6  C   UNL     1     -40.146 -43.893  10.876  1.00  0.00     0.163 C 
HETATM    7  C   UNL     1     -40.816 -46.175  11.457  1.00  0.00     0.145 A 
HETATM    8  N   UNL     1     -41.410 -46.439  10.262  1.00  0.00    -0.336 N 
ATOM      9  HN  UNL     1     -41.504 -45.817   9.459  1.00  0.00     0.168 HD
HETATM   10  C   UNL     1     -41.837 -47.680  10.375  1.00  0.00     0.185 A 
HETATM   11  N   UNL     1     -41.531 -48.212  11.602  1.00  0.00    -0.333 N 
HETATM   12  C   UNL     1     -40.878 -47.240  12.305  1.00  0.00     0.149 A 
HETATM   13  C   UNL     1     -40.324 -47.223  13.613  1.00  0.00     0.282 A 
HETATM   14  O   UNL     1     -40.348 -48.200  14.361  1.00  0.00    -0.265 OA
ENDROOT
BRANCH  11  15
HETATM   15  C   UNL     1     -41.892 -49.539  12.063  1.00  0.00     0.164 C 
BRANCH  15  16
HETATM   16  C   UNL     1     -40.930 -50.629  11.569  1.00  0.00     0.160 C 
BRANCH  16  17
HETATM   17  O   UNL     1     -40.185 -50.212  10.420  1.00  0.00    -0.392 OA
HETATM   18  H   UNL     1     -40.477 -49.314  10.162  1.00  0.00     0.210 HD
ENDBRANCH  16  17
BRANCH  16  19
HETATM   19  C   UNL     1     -39.941 -51.026  12.670  1.00  0.00     0.201 C 
BRANCH  19  20
HETATM   20  O   UNL     1     -40.500 -52.058  13.473  1.00  0.00    -0.384 OA
BRANCH  20  21
HETATM   21  C   UNL     1     -40.854 -53.203  12.698  1.00  0.00     0.206 C 
BRANCH  21  22
HETATM   22  C   UNL     1     -42.157 -53.741  13.224  1.00  0.00    -0.035 A 
HETATM   23  C   UNL     1     -42.175 -54.546  14.373  1.00  0.00     0.009 A 
HETATM   24  C   UNL     1     -43.376 -55.062  14.860  1.00  0.00     0.001 A 
HETATM   25  C   UNL     1     -44.572 -54.777  14.206  1.00  0.00     0.000 A 
HETATM   26  C   UNL     1     -44.570 -53.972  13.068  1.00  0.00     0.001 A 
HETATM   27  C   UNL     1     -43.368 -53.455  12.579  1.00  0.00     0.009 A 
ENDBRANCH  21  22
ENDBRANCH  20  21
ENDBRANCH  19  20
ENDBRANCH  16  19
ENDBRANCH  15  16
ENDBRANCH  11  15
TORSDOF 7
ENDMDL
MODEL 6
REMARK VINA RESULT:      -6.3      4.595      7.955
REMARK  7 active torsions:
REMARK  status: ('A' for Active; 'I' for Inactive)
REMARK    1  A    between atoms: N_11  and  C_12 
REMARK    2  A    between atoms: C_12  and  C_13 
REMARK    3  A    between atoms: C_13  and  O_14 
REMARK    4  A    between atoms: C_13  and  C_15 
REMARK    5  A    between atoms: C_15  and  O_16 
REMARK    6  A    between atoms: O_16  and  C_17 
REMARK    7  A    between atoms: C_17  and  C_18 
ROOT
HETATM    1  C   UNL     1     -37.819 -55.648  16.273  1.00  0.00     0.164 C 
HETATM    2  N   UNL     1     -39.235 -55.415  16.059  1.00  0.00    -0.269 N 
HETATM    3  C   UNL     1     -40.144 -55.890  17.026  1.00  0.00     0.332 A 
HETATM    4  O   UNL     1     -39.757 -56.486  18.036  1.00  0.00    -0.246 OA
HETATM    5  N   UNL     1     -41.502 -55.659  16.790  1.00  0.00    -0.287 N 
HETATM    6  C   UNL     1     -42.504 -56.104  17.742  1.00  0.00     0.163 C 
HETATM    7  C   UNL     1     -41.885 -54.992  15.650  1.00  0.00     0.145 A 
HETATM    8  N   UNL     1     -43.162 -54.704  15.279  1.00  0.00    -0.336 N 
ATOM      9  HN  UNL     1     -44.024 -54.932  15.773  1.00  0.00     0.168 HD
HETATM   10  C   UNL     1     -43.034 -54.062  14.135  1.00  0.00     0.185 A 
HETATM   11  N   UNL     1     -41.718 -53.931  13.771  1.00  0.00    -0.333 N 
HETATM   12  C   UNL     1     -40.974 -54.537  14.744  1.00  0.00     0.149 A 
HETATM   13  C   UNL     1     -39.573 -54.704  14.902  1.00  0.00     0.282 A 
HETATM   14  O   UNL     1     -38.752 -54.259  14.101  1.00  0.00    -0.265 OA
ENDROOT
BRANCH  11  15
HETATM   15  C   UNL     1     -41.235 -53.314  12.552  1.00  0.00     0.164 C 
BRANCH  15  16
HETATM   16  C   UNL     1     -40.619 -51.926  12.784  1.00  0.00     0.160 C 
BRANCH  16  17
HETATM   17  O   UNL     1     -39.303 -51.820  12.231  1.00  0.00    -0.392 OA
HETATM   18  H   UNL     1     -38.855 -51.046  12.626  1.00  0.00     0.210 HD
ENDBRANCH  16  17
BRANCH  16  19
HETATM   19  C   UNL     1     -41.493 -50.828  12.168  1.00  0.00     0.201 C 
BRANCH  19  20
HETATM   20  O   UNL     1     -42.841 -50.991  12.591  1.00  0.00    -0.384 OA
BRANCH  20  21
HETATM   21  C   UNL     1     -43.105 -50.296  13.809  1.00  0.00     0.206 C 
BRANCH  21  22
HETATM   22  C   UNL     1     -44.460 -50.722  14.309  1.00  0.00    -0.035 A 
HETATM   23  C   UNL     1     -45.423 -51.204  13.409  1.00  0.00     0.009 A 
HETATM   24  C   UNL     1     -46.686 -51.588  13.860  1.00  0.00     0.001 A 
HETATM   25  C   UNL     1     -46.999 -51.496  15.214  1.00  0.00     0.000 A 
HETATM   26  C   UNL     1     -46.049 -51.026  16.120  1.00  0.00     0.001 A 
HETATM   27  C   UNL     1     -44.784 -50.642  15.670  1.00  0.00     0.009 A 
ENDBRANCH  21  22
ENDBRANCH  20  21
ENDBRANCH  19  20
ENDBRANCH  16  19
ENDBRANCH  15  16
ENDBRANCH  11  15
TORSDOF 7
ENDMDL
MODEL 7
REMARK VINA RESULT:      -6.3      3.289      7.684
REMARK  7 active torsions:
REMARK  status: ('A' for Active; 'I' for Inactive)
REMARK    1  A    between atoms: N_11  and  C_12 
REMARK    2  A    between atoms: C_12  and  C_13 
REMARK    3  A    between atoms: C_13  and  O_14 
REMARK    4  A    between atoms: C_13  and  C_15 
REMARK    5  A    between atoms: C_15  and  O_16 
REMARK    6  A    between atoms: O_16  and  C_17 
REMARK    7  A    between atoms: C_17  and  C_18 
ROOT
HETATM    1  C   UNL     1     -46.227 -52.513  14.799  1.00  0.00     0.164 C 
HETATM    2  N   UNL     1     -44.811 -52.768  14.620  1.00  0.00    -0.269 N 
HETATM    3  C   UNL     1     -44.246 -53.883  15.272  1.00  0.00     0.332 A 
HETATM    4  O   UNL     1     -44.930 -54.633  15.975  1.00  0.00    -0.246 OA
HETATM    5  N   UNL     1     -42.877 -54.100  15.089  1.00  0.00    -0.287 N 
HETATM    6  C   UNL     1     -42.218 -55.233  15.715  1.00  0.00     0.163 C 
HETATM    7  C   UNL     1     -42.157 -53.237  14.298  1.00  0.00     0.145 A 
HETATM    8  N   UNL     1     -40.823 -53.310  14.036  1.00  0.00    -0.336 N 
ATOM      9  HN  UNL     1     -40.156 -54.001  14.378  1.00  0.00     0.168 HD
HETATM   10  C   UNL     1     -40.589 -52.287  13.240  1.00  0.00     0.185 A 
HETATM   11  N   UNL     1     -41.729 -51.569  12.987  1.00  0.00    -0.333 N 
HETATM   12  C   UNL     1     -42.742 -52.176  13.675  1.00  0.00     0.149 A 
HETATM   13  C   UNL     1     -44.127 -51.881  13.781  1.00  0.00     0.282 A 
HETATM   14  O   UNL     1     -44.659 -50.945  13.185  1.00  0.00    -0.265 OA
ENDROOT
BRANCH  11  15
HETATM   15  C   UNL     1     -41.810 -50.364  12.184  1.00  0.00     0.164 C 
BRANCH  15  16
HETATM   16  C   UNL     1     -40.447 -49.915  11.637  1.00  0.00     0.160 C 
BRANCH  16  17
HETATM   17  O   UNL     1     -40.354 -50.078  10.218  1.00  0.00    -0.392 OA
HETATM   18  H   UNL     1     -40.783 -50.921   9.968  1.00  0.00     0.210 HD
ENDBRANCH  16  17
BRANCH  16  19
HETATM   19  C   UNL     1     -40.180 -48.443  11.973  1.00  0.00     0.201 C 
BRANCH  19  20
HETATM   20  O   UNL     1     -40.786 -47.607  10.995  1.00  0.00    -0.384 OA
BRANCH  20  21
HETATM   21  C   UNL     1     -41.737 -46.714  11.573  1.00  0.00     0.206 C 
BRANCH  21  22
HETATM   22  C   UNL     1     -42.924 -46.631  10.651  1.00  0.00    -0.035 A 
HETATM   23  C   UNL     1     -43.889 -47.650  10.652  1.00  0.00     0.009 A 
HETATM   24  C   UNL     1     -44.985 -47.590   9.791  1.00  0.00     0.001 A 
HETATM   25  C   UNL     1     -45.130 -46.511   8.923  1.00  0.00     0.000 A 
HETATM   26  C   UNL     1     -44.183 -45.488   8.918  1.00  0.00     0.001 A 
HETATM   27  C   UNL     1     -43.085 -45.547   9.778  1.00  0.00     0.009 A 
ENDBRANCH  21  22
ENDBRANCH  20  21
ENDBRANCH  19  20
ENDBRANCH  16  19
ENDBRANCH  15  16
ENDBRANCH  11  15
TORSDOF 7
ENDMDL
MODEL 8
REMARK VINA RESULT:      -6.2      2.119      3.143
REMARK  7 active torsions:
REMARK  status: ('A' for Active; 'I' for Inactive)
REMARK    1  A    between atoms: N_11  and  C_12 
REMARK    2  A    between atoms: C_12  and  C_13 
REMARK    3  A    between atoms: C_13  and  O_14 
REMARK    4  A    between atoms: C_13  and  C_15 
REMARK    5  A    between atoms: C_15  and  O_16 
REMARK    6  A    between atoms: O_16  and  C_17 
REMARK    7  A    between atoms: C_17  and  C_18 
ROOT
HETATM    1  C   UNL     1     -44.331 -47.480  10.164  1.00  0.00     0.164 C 
HETATM    2  N   UNL     1     -42.965 -47.377  10.640  1.00  0.00    -0.269 N 
HETATM    3  C   UNL     1     -42.200 -46.263  10.240  1.00  0.00     0.332 A 
HETATM    4  O   UNL     1     -42.672 -45.387   9.508  1.00  0.00    -0.246 OA
HETATM    5  N   UNL     1     -40.884 -46.194  10.706  1.00  0.00    -0.287 N 
HETATM    6  C   UNL     1     -40.032 -45.073  10.352  1.00  0.00     0.163 C 
HETATM    7  C   UNL     1     -40.403 -47.194  11.518  1.00  0.00     0.145 A 
HETATM    8  N   UNL     1     -39.147 -47.271  12.039  1.00  0.00    -0.336 N 
ATOM      9  HN  UNL     1     -38.376 -46.616  11.912  1.00  0.00     0.168 HD
HETATM   10  C   UNL     1     -39.154 -48.384  12.744  1.00  0.00     0.185 A 
HETATM   11  N   UNL     1     -40.371 -49.013  12.690  1.00  0.00    -0.333 N 
HETATM   12  C   UNL     1     -41.178 -48.250  11.893  1.00  0.00     0.149 A 
HETATM   13  C   UNL     1     -42.531 -48.401  11.489  1.00  0.00     0.282 A 
HETATM   14  O   UNL     1     -43.239 -49.336  11.861  1.00  0.00    -0.265 OA
ENDROOT
BRANCH  11  15
HETATM   15  C   UNL     1     -40.699 -50.277  13.320  1.00  0.00     0.164 C 
BRANCH  15  16
HETATM   16  C   UNL     1     -40.542 -51.478  12.376  1.00  0.00     0.160 C 
BRANCH  16  17
HETATM   17  O   UNL     1     -39.172 -51.733  12.051  1.00  0.00    -0.392 OA
HETATM   18  H   UNL     1     -38.672 -51.883  12.879  1.00  0.00     0.210 HD
ENDBRANCH  16  17
BRANCH  16  19
HETATM   19  C   UNL     1     -41.136 -52.746  12.999  1.00  0.00     0.201 C 
BRANCH  19  20
HETATM   20  O   UNL     1     -42.488 -52.899  12.586  1.00  0.00    -0.384 OA
BRANCH  20  21
HETATM   21  C   UNL     1     -43.257 -53.633  13.538  1.00  0.00     0.206 C 
BRANCH  21  22
HETATM   22  C   UNL     1     -44.502 -52.845  13.843  1.00  0.00    -0.035 A 
HETATM   23  C   UNL     1     -45.361 -52.455  12.804  1.00  0.00     0.009 A 
HETATM   24  C   UNL     1     -46.510 -51.712  13.074  1.00  0.00     0.001 A 
HETATM   25  C   UNL     1     -46.816 -51.354  14.385  1.00  0.00     0.000 A 
HETATM   26  C   UNL     1     -45.976 -51.743  15.428  1.00  0.00     0.001 A 
HETATM   27  C   UNL     1     -44.824 -52.486  15.159  1.00  0.00     0.009 A 
ENDBRANCH  21  22
ENDBRANCH  20  21
ENDBRANCH  19  20
ENDBRANCH  16  19
ENDBRANCH  15  16
ENDBRANCH  11  15
TORSDOF 7
ENDMDL
MODEL 9
REMARK VINA RESULT:      -5.8      4.769      6.635
REMARK  7 active torsions:
REMARK  status: ('A' for Active; 'I' for Inactive)
REMARK    1  A    between atoms: N_11  and  C_12 
REMARK    2  A    between atoms: C_12  and  C_13 
REMARK    3  A    between atoms: C_13  and  O_14 
REMARK    4  A    between atoms: C_13  and  C_15 
REMARK    5  A    between atoms: C_15  and  O_16 
REMARK    6  A    between atoms: O_16  and  C_17 
REMARK    7  A    between atoms: C_17  and  C_18 
ROOT
HETATM    1  C   UNL     1     -38.057 -52.935  18.829  1.00  0.00     0.164 C 
HETATM    2  N   UNL     1     -37.969 -52.182  17.592  1.00  0.00    -0.269 N 
HETATM    3  C   UNL     1     -37.070 -51.097  17.534  1.00  0.00     0.332 A 
HETATM    4  O   UNL     1     -36.367 -50.791  18.502  1.00  0.00    -0.246 OA
HETATM    5  N   UNL     1     -37.012 -50.383  16.334  1.00  0.00    -0.287 N 
HETATM    6  C   UNL     1     -36.105 -49.259  16.185  1.00  0.00     0.163 C 
HETATM    7  C   UNL     1     -37.816 -50.762  15.284  1.00  0.00     0.145 A 
HETATM    8  N   UNL     1     -37.879 -50.161  14.064  1.00  0.00    -0.336 N 
ATOM      9  HN  UNL     1     -37.355 -49.350  13.738  1.00  0.00     0.168 HD
HETATM   10  C   UNL     1     -38.772 -50.866  13.399  1.00  0.00     0.185 A 
HETATM   11  N   UNL     1     -39.274 -51.893  14.155  1.00  0.00    -0.333 N 
HETATM   12  C   UNL     1     -38.664 -51.824  15.376  1.00  0.00     0.149 A 
HETATM   13  C   UNL     1     -38.782 -52.624  16.543  1.00  0.00     0.282 A 
HETATM   14  O   UNL     1     -39.520 -53.606  16.609  1.00  0.00    -0.265 OA
ENDROOT
BRANCH  11  15
HETATM   15  C   UNL     1     -40.300 -52.829  13.737  1.00  0.00     0.164 C 
BRANCH  15  16
HETATM   16  C   UNL     1     -40.868 -52.514  12.345  1.00  0.00     0.160 C 
BRANCH  16  17
HETATM   17  O   UNL     1     -40.521 -53.514  11.382  1.00  0.00    -0.392 OA
HETATM   18  H   UNL     1     -40.426 -53.090  10.505  1.00  0.00     0.210 HD
ENDBRANCH  16  17
BRANCH  16  19
HETATM   19  C   UNL     1     -42.396 -52.396  12.390  1.00  0.00     0.201 C 
BRANCH  19  20
HETATM   20  O   UNL     1     -42.950 -53.549  13.013  1.00  0.00    -0.384 OA
BRANCH  20  21
HETATM   21  C   UNL     1     -44.293 -53.787  12.593  1.00  0.00     0.206 C 
BRANCH  21  22
HETATM   22  C   UNL     1     -45.218 -53.123  13.577  1.00  0.00    -0.035 A 
HETATM   23  C   UNL     1     -45.965 -51.998  13.193  1.00  0.00     0.009 A 
HETATM   24  C   UNL     1     -46.814 -51.366  14.102  1.00  0.00     0.001 A 
HETATM   25  C   UNL     1     -46.928 -51.852  15.402  1.00  0.00     0.000 A 
HETATM   26  C   UNL     1     -46.198 -52.974  15.794  1.00  0.00     0.001 A 
HETATM   27  C   UNL     1     -45.347 -53.607  14.886  1.00  0.00     0.009 A 
ENDBRANCH  21  22
ENDBRANCH  20  21
ENDBRANCH  19  20
ENDBRANCH  16  19
ENDBRANCH  15  16
ENDBRANCH  11  15
TORSDOF 7
ENDMDL
