MODEL 1
REMARK VINA RESULT:      -6.3      0.000      0.000
REMARK  5 active torsions:
REMARK  status: ('A' for Active; 'I' for Inactive)
REMARK    1  A    between atoms: C_2  and  C_5 
REMARK    2  A    between atoms: C_5  and  O_6 
REMARK    3  A    between atoms: O_6  and  C_7 
REMARK    4  A    between atoms: C_10  and  N_11 
REMARK       I    between atoms: N_11  and  C_12 
REMARK       I    between atoms: C_12  and  N_14 
REMARK    5  A    between atoms: N_14  and  C_15 
ROOT
HETATM    1  C   UNL     1     -40.685 -45.510  10.427  1.00  0.00     0.142 A 
HETATM    2  C   UNL     1     -42.064 -45.591  10.411  1.00  0.00     0.058 A 
HETATM    3  C   UNL     1     -42.657 -46.820  10.684  1.00  0.00     0.035 A 
HETATM    4  C   UNL     1     -41.862 -47.918  11.004  1.00  0.00     0.051 A 
HETATM    5  C   UNL     1     -40.482 -47.731  10.959  1.00  0.00     0.119 A 
HETATM    6  N   UNL     1     -39.870 -46.554  10.674  1.00  0.00    -0.345 N 
ATOM      7  HN  UNL     1     -38.854 -46.465  10.647  1.00  0.00     0.167 HD
ENDROOT
BRANCH   4   8
HETATM    8  N   UNL     1     -42.396 -49.182  11.341  1.00  0.00    -0.308 N 
HETATM    9  C   UNL     1     -42.981 -49.499  12.550  1.00  0.00     0.321 C 
HETATM   10  O   UNL     1     -43.018 -48.786  13.543  1.00  0.00    -0.247 OA
HETATM   11  N   UNL     1     -43.585 -50.735  12.509  1.00  0.00    -0.338 N 
HETATM   12  H   UNL     1     -43.178 -51.393  11.865  1.00  0.00     0.164 HD
HETATM   13  H   UNL     1     -42.217 -49.942  10.705  1.00  0.00     0.170 HD
BRANCH  11  14
HETATM   14  C   UNL     1     -44.265 -51.300  13.681  1.00  0.00     0.090 C 
HETATM   15  C   UNL     1     -43.746 -52.718  13.934  1.00  0.00     0.051 C 
HETATM   16  C   UNL     1     -44.241 -53.659  12.840  1.00  0.00     0.169 C 
HETATM   17  O   UNL     1     -45.666 -53.668  12.794  1.00  0.00    -0.391 OA
HETATM   18  C   UNL     1     -46.209 -52.381  12.492  1.00  0.00     0.169 C 
HETATM   19  C   UNL     1     -45.794 -51.357  13.538  1.00  0.00     0.051 C 
ENDBRANCH  11  14
ENDBRANCH   4   8
BRANCH   1  20
HETATM   20  O   UNL     1     -40.149 -44.258  10.220  1.00  0.00    -0.327 OA
BRANCH  20  21
HETATM   21  C   UNL     1     -40.502 -43.315  11.238  1.00  0.00     0.294 C 
BRANCH  21  22
HETATM   22  C   UNL     1     -39.808 -43.506  12.582  1.00  0.00     0.408 C 
HETATM   23  F   UNL     1     -40.526 -44.221  13.474  1.00  0.00    -0.169 F 
HETATM   24  F   UNL     1     -39.576 -42.293  13.154  1.00  0.00    -0.169 F 
HETATM   25  F   UNL     1     -38.598 -44.098  12.441  1.00  0.00    -0.169 F 
ENDBRANCH  21  22
ENDBRANCH  20  21
ENDBRANCH   1  20
TORSDOF 5
ENDMDL
MODEL 2
REMARK VINA RESULT:      -5.8      5.666      8.541
REMARK  5 active torsions:
REMARK  status: ('A' for Active; 'I' for Inactive)
REMARK    1  A    between atoms: C_2  and  C_5 
REMARK    2  A    between atoms: C_5  and  O_6 
REMARK    3  A    between atoms: O_6  and  C_7 
REMARK    4  A    between atoms: C_10  and  N_11 
REMARK       I    between atoms: N_11  and  C_12 
REMARK       I    between atoms: C_12  and  N_14 
REMARK    5  A    between atoms: N_14  and  C_15 
ROOT
HETATM    1  C   UNL     1     -39.808 -53.897  13.678  1.00  0.00     0.142 A 
HETATM    2  C   UNL     1     -39.327 -52.639  13.983  1.00  0.00     0.058 A 
HETATM    3  C   UNL     1     -39.777 -51.559  13.229  1.00  0.00     0.035 A 
HETATM    4  C   UNL     1     -40.719 -51.759  12.223  1.00  0.00     0.051 A 
HETATM    5  C   UNL     1     -41.110 -53.075  11.981  1.00  0.00     0.119 A 
HETATM    6  N   UNL     1     -40.675 -54.153  12.680  1.00  0.00    -0.345 N 
ATOM      7  HN  UNL     1     -40.985 -55.100  12.462  1.00  0.00     0.167 HD
ENDROOT
BRANCH   4   8
HETATM    8  N   UNL     1     -41.258 -50.705  11.453  1.00  0.00    -0.308 N 
HETATM    9  C   UNL     1     -42.157 -49.765  11.913  1.00  0.00     0.321 C 
HETATM   10  O   UNL     1     -42.712 -49.771  13.003  1.00  0.00    -0.247 OA
HETATM   11  N   UNL     1     -42.340 -48.752  11.000  1.00  0.00    -0.338 N 
HETATM   12  H   UNL     1     -42.205 -49.011  10.036  1.00  0.00     0.164 HD
HETATM   13  H   UNL     1     -41.076 -50.720  10.462  1.00  0.00     0.170 HD
BRANCH  11  14
HETATM   14  C   UNL     1     -43.263 -47.640  11.256  1.00  0.00     0.090 C 
HETATM   15  C   UNL     1     -44.178 -47.450  10.044  1.00  0.00     0.051 C 
HETATM   16  C   UNL     1     -43.382 -46.891   8.869  1.00  0.00     0.169 C 
HETATM   17  O   UNL     1     -42.782 -45.647   9.219  1.00  0.00    -0.391 OA
HETATM   18  C   UNL     1     -41.860 -45.772  10.303  1.00  0.00     0.169 C 
HETATM   19  C   UNL     1     -42.555 -46.307  11.547  1.00  0.00     0.051 C 
ENDBRANCH  11  14
ENDBRANCH   4   8
BRANCH   1  20
HETATM   20  O   UNL     1     -39.387 -54.922  14.497  1.00  0.00    -0.327 OA
BRANCH  20  21
HETATM   21  C   UNL     1     -38.897 -54.470  15.763  1.00  0.00     0.294 C 
BRANCH  21  22
HETATM   22  C   UNL     1     -38.343 -55.555  16.680  1.00  0.00     0.408 C 
HETATM   23  F   UNL     1     -37.082 -55.935  16.381  1.00  0.00    -0.169 F 
HETATM   24  F   UNL     1     -39.116 -56.671  16.589  1.00  0.00    -0.169 F 
HETATM   25  F   UNL     1     -38.374 -55.176  17.979  1.00  0.00    -0.169 F 
ENDBRANCH  21  22
ENDBRANCH  20  21
ENDBRANCH   1  20
TORSDOF 5
ENDMDL
MODEL 3
REMARK VINA RESULT:      -5.7      4.834      8.767
REMARK  5 active torsions:
REMARK  status: ('A' for Active; 'I' for Inactive)
REMARK    1  A    between atoms: C_2  and  C_5 
REMARK    2  A    between atoms: C_5  and  O_6 
REMARK    3  A    between atoms: O_6  and  C_7 
REMARK    4  A    between atoms: C_10  and  N_11 
REMARK       I    between atoms: N_11  and  C_12 
REMARK       I    between atoms: C_12  and  N_14 
REMARK    5  A    between atoms: N_14  and  C_15 
ROOT
HETATM    1  C   UNL     1     -43.029 -52.760  12.490  1.00  0.00     0.142 A 
HETATM    2  C   UNL     1     -43.613 -51.702  13.159  1.00  0.00     0.058 A 
HETATM    3  C   UNL     1     -42.999 -50.455  13.087  1.00  0.00     0.035 A 
HETATM    4  C   UNL     1     -41.847 -50.292  12.320  1.00  0.00     0.051 A 
HETATM    5  C   UNL     1     -41.328 -51.435  11.714  1.00  0.00     0.119 A 
HETATM    6  N   UNL     1     -41.887 -52.669  11.783  1.00  0.00    -0.345 N 
ATOM      7  HN  UNL     1     -41.467 -53.479  11.327  1.00  0.00     0.167 HD
ENDROOT
BRANCH   4   8
HETATM    8  N   UNL     1     -41.200 -49.047  12.160  1.00  0.00    -0.308 N 
HETATM    9  C   UNL     1     -41.512 -48.108  11.199  1.00  0.00     0.321 C 
HETATM   10  O   UNL     1     -42.300 -48.255  10.276  1.00  0.00    -0.247 OA
HETATM   11  N   UNL     1     -40.852 -46.921  11.420  1.00  0.00    -0.338 N 
HETATM   12  H   UNL     1     -39.967 -47.001  11.894  1.00  0.00     0.164 HD
HETATM   13  H   UNL     1     -40.363 -48.891  12.700  1.00  0.00     0.170 HD
BRANCH  11  14
HETATM   14  C   UNL     1     -41.011 -45.771  10.522  1.00  0.00     0.090 C 
HETATM   15  C   UNL     1     -39.746 -44.909  10.571  1.00  0.00     0.051 C 
HETATM   16  C   UNL     1     -39.648 -44.202  11.919  1.00  0.00     0.169 C 
HETATM   17  O   UNL     1     -40.795 -43.387  12.142  1.00  0.00    -0.391 OA
HETATM   18  C   UNL     1     -42.005 -44.147  12.176  1.00  0.00     0.169 C 
HETATM   19  C   UNL     1     -42.220 -44.885  10.863  1.00  0.00     0.051 C 
ENDBRANCH  11  14
ENDBRANCH   4   8
BRANCH   1  20
HETATM   20  O   UNL     1     -43.712 -53.956  12.534  1.00  0.00    -0.327 OA
BRANCH  20  21
HETATM   21  C   UNL     1     -44.066 -54.357  13.862  1.00  0.00     0.294 C 
BRANCH  21  22
HETATM   22  C   UNL     1     -45.548 -54.633  14.094  1.00  0.00     0.408 C 
HETATM   23  F   UNL     1     -46.371 -53.735  13.512  1.00  0.00    -0.169 F 
HETATM   24  F   UNL     1     -45.817 -54.599  15.427  1.00  0.00    -0.169 F 
HETATM   25  F   UNL     1     -45.899 -55.869  13.666  1.00  0.00    -0.169 F 
ENDBRANCH  21  22
ENDBRANCH  20  21
ENDBRANCH   1  20
TORSDOF 5
ENDMDL
MODEL 4
REMARK VINA RESULT:      -5.6      3.447      4.472
REMARK  5 active torsions:
REMARK  status: ('A' for Active; 'I' for Inactive)
REMARK    1  A    between atoms: C_2  and  C_5 
REMARK    2  A    between atoms: C_5  and  O_6 
REMARK    3  A    between atoms: O_6  and  C_7 
REMARK    4  A    between atoms: C_10  and  N_11 
REMARK       I    between atoms: N_11  and  C_12 
REMARK       I    between atoms: C_12  and  N_14 
REMARK    5  A    between atoms: N_14  and  C_15 
ROOT
HETATM    1  C   UNL     1     -41.879 -48.212  10.783  1.00  0.00     0.142 A 
HETATM    2  C   UNL     1     -42.919 -48.131  11.689  1.00  0.00     0.058 A 
HETATM    3  C   UNL     1     -43.050 -49.142  12.637  1.00  0.00     0.035 A 
HETATM    4  C   UNL     1     -42.123 -50.180  12.677  1.00  0.00     0.051 A 
HETATM    5  C   UNL     1     -41.133 -50.179  11.695  1.00  0.00     0.119 A 
HETATM    6  N   UNL     1     -40.989 -49.223  10.743  1.00  0.00    -0.345 N 
ATOM      7  HN  UNL     1     -40.252 -49.267  10.040  1.00  0.00     0.167 HD
ENDROOT
BRANCH   4   8
HETATM    8  N   UNL     1     -42.164 -51.211  13.642  1.00  0.00    -0.308 N 
HETATM    9  C   UNL     1     -42.834 -52.409  13.496  1.00  0.00     0.321 C 
HETATM   10  O   UNL     1     -43.583 -52.708  12.577  1.00  0.00    -0.247 OA
HETATM   11  N   UNL     1     -42.524 -53.287  14.508  1.00  0.00    -0.338 N 
HETATM   12  H   UNL     1     -42.270 -52.862  15.385  1.00  0.00     0.164 HD
HETATM   13  H   UNL     1     -41.791 -51.003  14.555  1.00  0.00     0.170 HD
BRANCH  11  14
HETATM   14  C   UNL     1     -43.123 -54.625  14.579  1.00  0.00     0.090 C 
HETATM   15  C   UNL     1     -44.622 -54.496  14.865  1.00  0.00     0.051 C 
HETATM   16  C   UNL     1     -44.841 -54.014  16.295  1.00  0.00     0.169 C 
HETATM   17  O   UNL     1     -44.249 -54.917  17.225  1.00  0.00    -0.391 OA
HETATM   18  C   UNL     1     -42.835 -55.026  17.052  1.00  0.00     0.169 C 
HETATM   19  C   UNL     1     -42.495 -55.525  15.655  1.00  0.00     0.051 C 
ENDBRANCH  11  14
ENDBRANCH   4   8
BRANCH   1  20
HETATM   20  O   UNL     1     -41.750 -47.153   9.912  1.00  0.00    -0.327 OA
BRANCH  20  21
HETATM   21  C   UNL     1     -42.801 -46.189  10.033  1.00  0.00     0.294 C 
BRANCH  21  22
HETATM   22  C   UNL     1     -43.821 -46.182   8.899  1.00  0.00     0.408 C 
HETATM   23  F   UNL     1     -44.670 -47.231   8.918  1.00  0.00    -0.169 F 
HETATM   24  F   UNL     1     -43.175 -46.228   7.702  1.00  0.00    -0.169 F 
HETATM   25  F   UNL     1     -44.553 -45.043   8.893  1.00  0.00    -0.169 F 
ENDBRANCH  21  22
ENDBRANCH  20  21
ENDBRANCH   1  20
TORSDOF 5
ENDMDL
MODEL 5
REMARK VINA RESULT:      -5.5      5.676      8.574
REMARK  5 active torsions:
REMARK  status: ('A' for Active; 'I' for Inactive)
REMARK    1  A    between atoms: C_2  and  C_5 
REMARK    2  A    between atoms: C_5  and  O_6 
REMARK    3  A    between atoms: O_6  and  C_7 
REMARK    4  A    between atoms: C_10  and  N_11 
REMARK       I    between atoms: N_11  and  C_12 
REMARK       I    between atoms: C_12  and  N_14 
REMARK    5  A    between atoms: N_14  and  C_15 
ROOT
HETATM    1  C   UNL     1     -43.436 -53.144  12.649  1.00  0.00     0.142 A 
HETATM    2  C   UNL     1     -43.137 -53.493  13.952  1.00  0.00     0.058 A 
HETATM    3  C   UNL     1     -41.906 -53.108  14.474  1.00  0.00     0.035 A 
HETATM    4  C   UNL     1     -41.028 -52.355  13.698  1.00  0.00     0.051 A 
HETATM    5  C   UNL     1     -41.419 -52.087  12.387  1.00  0.00     0.119 A 
HETATM    6  N   UNL     1     -42.600 -52.466  11.839  1.00  0.00    -0.345 N 
ATOM      7  HN  UNL     1     -42.841 -52.252  10.871  1.00  0.00     0.167 HD
ENDROOT
BRANCH   4   8
HETATM    8  N   UNL     1     -39.785 -51.887  14.179  1.00  0.00    -0.308 N 
HETATM    9  C   UNL     1     -39.610 -50.773  14.973  1.00  0.00     0.321 C 
HETATM   10  O   UNL     1     -40.473 -49.962  15.279  1.00  0.00    -0.247 OA
HETATM   11  N   UNL     1     -38.320 -50.688  15.446  1.00  0.00    -0.338 N 
HETATM   12  H   UNL     1     -37.617 -51.103  14.856  1.00  0.00     0.164 HD
HETATM   13  H   UNL     1     -38.955 -52.319  13.804  1.00  0.00     0.170 HD
BRANCH  11  14
HETATM   14  C   UNL     1     -37.885 -49.580  16.303  1.00  0.00     0.090 C 
HETATM   15  C   UNL     1     -36.506 -49.094  15.845  1.00  0.00     0.051 C 
HETATM   16  C   UNL     1     -35.447 -50.140  16.177  1.00  0.00     0.169 C 
HETATM   17  O   UNL     1     -35.424 -50.403  17.577  1.00  0.00    -0.391 OA
HETATM   18  C   UNL     1     -36.666 -50.927  18.053  1.00  0.00     0.169 C 
HETATM   19  C   UNL     1     -37.803 -49.949  17.793  1.00  0.00     0.051 C 
ENDBRANCH  11  14
ENDBRANCH   4   8
BRANCH   1  20
HETATM   20  O   UNL     1     -44.693 -53.486  12.203  1.00  0.00    -0.327 OA
BRANCH  20  21
HETATM   21  C   UNL     1     -45.739 -53.091  13.097  1.00  0.00     0.294 C 
BRANCH  21  22
HETATM   22  C   UNL     1     -46.242 -51.660  12.930  1.00  0.00     0.408 C 
HETATM   23  F   UNL     1     -47.076 -51.254  13.911  1.00  0.00    -0.169 F 
HETATM   24  F   UNL     1     -46.934 -51.551  11.763  1.00  0.00    -0.169 F 
HETATM   25  F   UNL     1     -45.219 -50.777  12.850  1.00  0.00    -0.169 F 
ENDBRANCH  21  22
ENDBRANCH  20  21
ENDBRANCH   1  20
TORSDOF 5
ENDMDL
MODEL 6
REMARK VINA RESULT:      -5.5      4.519      5.657
REMARK  5 active torsions:
REMARK  status: ('A' for Active; 'I' for Inactive)
REMARK    1  A    between atoms: C_2  and  C_5 
REMARK    2  A    between atoms: C_5  and  O_6 
REMARK    3  A    between atoms: O_6  and  C_7 
REMARK    4  A    between atoms: C_10  and  N_11 
REMARK       I    between atoms: N_11  and  C_12 
REMARK       I    between atoms: C_12  and  N_14 
REMARK    5  A    between atoms: N_14  and  C_15 
ROOT
HETATM    1  C   UNL     1     -41.944 -48.515  10.695  1.00  0.00     0.142 A 
HETATM    2  C   UNL     1     -42.700 -48.598  11.848  1.00  0.00     0.058 A 
HETATM    3  C   UNL     1     -42.294 -49.482  12.843  1.00  0.00     0.035 A 
HETATM    4  C   UNL     1     -41.129 -50.227  12.676  1.00  0.00     0.051 A 
HETATM    5  C   UNL     1     -40.463 -50.089  11.460  1.00  0.00     0.119 A 
HETATM    6  N   UNL     1     -40.843 -49.254  10.460  1.00  0.00    -0.345 N 
ATOM      7  HN  UNL     1     -40.326 -49.190   9.583  1.00  0.00     0.167 HD
ENDROOT
BRANCH   4   8
HETATM    8  N   UNL     1     -40.630 -51.106  13.663  1.00  0.00    -0.308 N 
HETATM    9  C   UNL     1     -40.825 -52.471  13.682  1.00  0.00     0.321 C 
HETATM   10  O   UNL     1     -41.549 -53.107  12.930  1.00  0.00    -0.247 OA
HETATM   11  N   UNL     1     -40.053 -53.078  14.646  1.00  0.00    -0.338 N 
HETATM   12  H   UNL     1     -39.834 -52.506  15.446  1.00  0.00     0.164 HD
HETATM   13  H   UNL     1     -40.217 -50.689  14.483  1.00  0.00     0.170 HD
BRANCH  11  14
HETATM   14  C   UNL     1     -40.096 -54.527  14.870  1.00  0.00     0.090 C 
HETATM   15  C   UNL     1     -41.198 -54.853  15.882  1.00  0.00     0.051 C 
HETATM   16  C   UNL     1     -40.793 -54.366  17.270  1.00  0.00     0.169 C 
HETATM   17  O   UNL     1     -39.570 -54.973  17.677  1.00  0.00    -0.391 OA
HETATM   18  C   UNL     1     -38.484 -54.648  16.807  1.00  0.00     0.169 C 
HETATM   19  C   UNL     1     -38.771 -55.111  15.385  1.00  0.00     0.051 C 
ENDBRANCH  11  14
ENDBRANCH   4   8
BRANCH   1  20
HETATM   20  O   UNL     1     -42.347 -47.575   9.772  1.00  0.00    -0.327 OA
BRANCH  20  21
HETATM   21  C   UNL     1     -43.583 -46.940  10.113  1.00  0.00     0.294 C 
BRANCH  21  22
HETATM   22  C   UNL     1     -44.756 -47.241   9.185  1.00  0.00     0.408 C 
HETATM   23  F   UNL     1     -45.415 -46.142   8.761  1.00  0.00    -0.169 F 
HETATM   24  F   UNL     1     -45.668 -48.013   9.836  1.00  0.00    -0.169 F 
HETATM   25  F   UNL     1     -44.365 -47.947   8.098  1.00  0.00    -0.169 F 
ENDBRANCH  21  22
ENDBRANCH  20  21
ENDBRANCH   1  20
TORSDOF 5
ENDMDL
MODEL 7
REMARK VINA RESULT:      -5.3      1.793      2.213
REMARK  5 active torsions:
REMARK  status: ('A' for Active; 'I' for Inactive)
REMARK    1  A    between atoms: C_2  and  C_5 
REMARK    2  A    between atoms: C_5  and  O_6 
REMARK    3  A    between atoms: O_6  and  C_7 
REMARK    4  A    between atoms: C_10  and  N_11 
REMARK       I    between atoms: N_11  and  C_12 
REMARK       I    between atoms: C_12  and  N_14 
REMARK    5  A    between atoms: N_14  and  C_15 
ROOT
HETATM    1  C   UNL     1     -40.529 -47.429  11.107  1.00  0.00     0.142 A 
HETATM    2  C   UNL     1     -41.873 -47.304  11.398  1.00  0.00     0.058 A 
HETATM    3  C   UNL     1     -42.585 -48.449  11.741  1.00  0.00     0.035 A 
HETATM    4  C   UNL     1     -41.930 -49.675  11.821  1.00  0.00     0.051 A 
HETATM    5  C   UNL     1     -40.580 -49.691  11.475  1.00  0.00     0.119 A 
HETATM    6  N   UNL     1     -39.861 -48.598  11.114  1.00  0.00    -0.345 N 
ATOM      7  HN  UNL     1     -38.874 -48.659  10.863  1.00  0.00     0.167 HD
ENDROOT
BRANCH   4   8
HETATM    8  N   UNL     1     -42.576 -50.869  12.212  1.00  0.00    -0.308 N 
HETATM    9  C   UNL     1     -43.116 -51.109  13.458  1.00  0.00     0.321 C 
HETATM   10  O   UNL     1     -43.013 -50.386  14.440  1.00  0.00    -0.247 OA
HETATM   11  N   UNL     1     -43.852 -52.271  13.475  1.00  0.00    -0.338 N 
HETATM   12  H   UNL     1     -43.560 -52.976  12.818  1.00  0.00     0.164 HD
HETATM   13  H   UNL     1     -42.520 -51.651  11.578  1.00  0.00     0.170 HD
BRANCH  11  14
HETATM   14  C   UNL     1     -44.515 -52.746  14.695  1.00  0.00     0.090 C 
HETATM   15  C   UNL     1     -43.546 -53.625  15.490  1.00  0.00     0.051 C 
HETATM   16  C   UNL     1     -43.317 -54.945  14.761  1.00  0.00     0.169 C 
HETATM   17  O   UNL     1     -44.551 -55.634  14.575  1.00  0.00    -0.391 OA
HETATM   18  C   UNL     1     -45.475 -54.892  13.778  1.00  0.00     0.169 C 
HETATM   19  C   UNL     1     -45.796 -53.552  14.425  1.00  0.00     0.051 C 
ENDBRANCH  11  14
ENDBRANCH   4   8
BRANCH   1  20
HETATM   20  O   UNL     1     -39.854 -46.258  10.843  1.00  0.00    -0.327 OA
BRANCH  20  21
HETATM   21  C   UNL     1     -39.974 -45.287  11.888  1.00  0.00     0.294 C 
BRANCH  21  22
HETATM   22  C   UNL     1     -40.439 -43.902  11.449  1.00  0.00     0.408 C 
HETATM   23  F   UNL     1     -39.929 -43.501  10.266  1.00  0.00    -0.169 F 
HETATM   24  F   UNL     1     -40.054 -42.977  12.370  1.00  0.00    -0.169 F 
HETATM   25  F   UNL     1     -41.788 -43.827  11.376  1.00  0.00    -0.169 F 
ENDBRANCH  21  22
ENDBRANCH  20  21
ENDBRANCH   1  20
TORSDOF 5
ENDMDL
MODEL 8
REMARK VINA RESULT:      -5.3      6.886      9.346
REMARK  5 active torsions:
REMARK  status: ('A' for Active; 'I' for Inactive)
REMARK    1  A    between atoms: C_2  and  C_5 
REMARK    2  A    between atoms: C_5  and  O_6 
REMARK    3  A    between atoms: O_6  and  C_7 
REMARK    4  A    between atoms: C_10  and  N_11 
REMARK       I    between atoms: N_11  and  C_12 
REMARK       I    between atoms: C_12  and  N_14 
REMARK    5  A    between atoms: N_14  and  C_15 
ROOT
HETATM    1  C   UNL     1     -43.998 -53.882  13.276  1.00  0.00     0.142 A 
HETATM    2  C   UNL     1     -42.869 -53.221  12.831  1.00  0.00     0.058 A 
HETATM    3  C   UNL     1     -41.656 -53.490  13.458  1.00  0.00     0.035 A 
HETATM    4  C   UNL     1     -41.597 -54.434  14.480  1.00  0.00     0.051 A 
HETATM    5  C   UNL     1     -42.802 -55.016  14.869  1.00  0.00     0.119 A 
HETATM    6  N   UNL     1     -44.005 -54.760  14.297  1.00  0.00    -0.345 N 
ATOM      7  HN  UNL     1     -44.863 -55.207  14.620  1.00  0.00     0.167 HD
ENDROOT
BRANCH   4   8
HETATM    8  N   UNL     1     -40.393 -54.794  15.125  1.00  0.00    -0.308 N 
HETATM    9  C   UNL     1     -40.059 -54.466  16.423  1.00  0.00     0.321 C 
HETATM   10  O   UNL     1     -40.688 -53.722  17.163  1.00  0.00    -0.247 OA
HETATM   11  N   UNL     1     -38.924 -55.125  16.835  1.00  0.00    -0.338 N 
HETATM   12  H   UNL     1     -38.271 -55.357  16.103  1.00  0.00     0.164 HD
HETATM   13  H   UNL     1     -39.670 -55.204  14.555  1.00  0.00     0.170 HD
BRANCH  11  14
HETATM   14  C   UNL     1     -38.361 -54.929  18.176  1.00  0.00     0.090 C 
HETATM   15  C   UNL     1     -36.862 -54.642  18.061  1.00  0.00     0.051 C 
HETATM   16  C   UNL     1     -36.120 -55.902  17.626  1.00  0.00     0.169 C 
HETATM   17  O   UNL     1     -36.339 -56.958  18.557  1.00  0.00    -0.391 OA
HETATM   18  C   UNL     1     -37.717 -57.320  18.657  1.00  0.00     0.169 C 
HETATM   19  C   UNL     1     -38.558 -56.134  19.109  1.00  0.00     0.051 C 
ENDBRANCH  11  14
ENDBRANCH   4   8
BRANCH   1  20
HETATM   20  O   UNL     1     -45.159 -53.635  12.578  1.00  0.00    -0.327 OA
BRANCH  20  21
HETATM   21  C   UNL     1     -46.187 -53.043  13.381  1.00  0.00     0.294 C 
BRANCH  21  22
HETATM   22  C   UNL     1     -46.460 -51.566  13.117  1.00  0.00     0.408 C 
HETATM   23  F   UNL     1     -47.123 -51.328  11.965  1.00  0.00    -0.169 F 
HETATM   24  F   UNL     1     -45.282 -50.890  13.033  1.00  0.00    -0.169 F 
HETATM   25  F   UNL     1     -47.155 -50.998  14.130  1.00  0.00    -0.169 F 
ENDBRANCH  21  22
ENDBRANCH  20  21
ENDBRANCH   1  20
TORSDOF 5
ENDMDL
MODEL 9
REMARK VINA RESULT:      -5.1      5.561      9.273
REMARK  5 active torsions:
REMARK  status: ('A' for Active; 'I' for Inactive)
REMARK    1  A    between atoms: C_2  and  C_5 
REMARK    2  A    between atoms: C_5  and  O_6 
REMARK    3  A    between atoms: O_6  and  C_7 
REMARK    4  A    between atoms: C_10  and  N_11 
REMARK       I    between atoms: N_11  and  C_12 
REMARK       I    between atoms: C_12  and  N_14 
REMARK    5  A    between atoms: N_14  and  C_15 
ROOT
HETATM    1  C   UNL     1     -42.779 -54.954  15.088  1.00  0.00     0.142 A 
HETATM    2  C   UNL     1     -43.943 -54.760  14.370  1.00  0.00     0.058 A 
HETATM    3  C   UNL     1     -44.032 -53.645  13.542  1.00  0.00     0.035 A 
HETATM    4  C   UNL     1     -42.947 -52.781  13.425  1.00  0.00     0.051 A 
HETATM    5  C   UNL     1     -41.835 -53.055  14.219  1.00  0.00     0.119 A 
HETATM    6  N   UNL     1     -41.723 -54.119  15.054  1.00  0.00    -0.345 N 
ATOM      7  HN  UNL     1     -40.890 -54.276  15.622  1.00  0.00     0.167 HD
ENDROOT
BRANCH   4   8
HETATM    8  N   UNL     1     -42.946 -51.659  12.567  1.00  0.00    -0.308 N 
HETATM    9  C   UNL     1     -43.216 -50.362  12.954  1.00  0.00     0.321 C 
HETATM   10  O   UNL     1     -43.610 -50.006  14.056  1.00  0.00    -0.247 OA
HETATM   11  N   UNL     1     -42.941 -49.467  11.947  1.00  0.00    -0.338 N 
HETATM   12  H   UNL     1     -43.032 -49.829  11.011  1.00  0.00     0.164 HD
HETATM   13  H   UNL     1     -42.877 -51.837  11.577  1.00  0.00     0.170 HD
BRANCH  11  14
HETATM   14  C   UNL     1     -43.161 -48.025  12.114  1.00  0.00     0.090 C 
HETATM   15  C   UNL     1     -43.694 -47.437  10.805  1.00  0.00     0.051 C 
HETATM   16  C   UNL     1     -42.596 -47.433   9.748  1.00  0.00     0.169 C 
HETATM   17  O   UNL     1     -41.474 -46.676  10.194  1.00  0.00    -0.391 OA
HETATM   18  C   UNL     1     -40.887 -47.219  11.378  1.00  0.00     0.169 C 
HETATM   19  C   UNL     1     -41.895 -47.252  12.518  1.00  0.00     0.051 C 
ENDBRANCH  11  14
ENDBRANCH   4   8
BRANCH   1  20
HETATM   20  O   UNL     1     -42.714 -56.108  15.837  1.00  0.00    -0.327 OA
BRANCH  20  21
HETATM   21  C   UNL     1     -41.931 -55.967  17.027  1.00  0.00     0.294 C 
BRANCH  21  22
HETATM   22  C   UNL     1     -40.633 -56.768  17.060  1.00  0.00     0.408 C 
HETATM   23  F   UNL     1     -39.646 -56.245  16.303  1.00  0.00    -0.169 F 
HETATM   24  F   UNL     1     -40.858 -58.025  16.589  1.00  0.00    -0.169 F 
HETATM   25  F   UNL     1     -40.167 -56.913  18.323  1.00  0.00    -0.169 F 
ENDBRANCH  21  22
ENDBRANCH  20  21
ENDBRANCH   1  20
TORSDOF 5
ENDMDL
