MODEL 1
REMARK VINA RESULT:      -6.1      0.000      0.000
REMARK  6 active torsions:
REMARK  status: ('A' for Active; 'I' for Inactive)
REMARK    1  A    between atoms: C_2  and  C_3 
REMARK       I    between atoms: C_2  and  N_19 
REMARK    2  A    between atoms: C_3  and  N_4 
REMARK    3  A    between atoms: C_7  and  C_8 
REMARK    4  A    between atoms: C_8  and  N_9 
REMARK    5  A    between atoms: N_13  and  C_14 
REMARK    6  A    between atoms: N_19  and  C_20 
ROOT
HETATM    1  N   UNL     1     -40.884 -50.920  13.458  1.00  0.00    -0.256 N 
HETATM    2  C   UNL     1     -39.717 -51.051  12.720  1.00  0.00     0.273 A 
HETATM    3  O   UNL     1     -38.998 -52.044  12.745  1.00  0.00    -0.266 OA
HETATM    4  C   UNL     1     -39.382 -49.919  11.835  1.00  0.00     0.110 A 
HETATM    5  C   UNL     1     -40.207 -48.871  11.771  1.00  0.00     0.123 A 
HETATM    6  N   UNL     1     -41.352 -48.794  12.535  1.00  0.00    -0.303 N 
HETATM    7  C   UNL     1     -41.733 -49.814  13.420  1.00  0.00     0.332 A 
HETATM    8  O   UNL     1     -42.744 -49.754  14.122  1.00  0.00    -0.246 OA
ENDROOT
BRANCH   1   9
HETATM    9  C   UNL     1     -41.255 -52.020  14.335  1.00  0.00     0.239 C 
BRANCH   9  10
HETATM   10  C   UNL     1     -42.165 -52.987  13.581  1.00  0.00     0.236 C 
HETATM   11  O   UNL     1     -41.741 -53.976  12.993  1.00  0.00    -0.272 OA
HETATM   12  N   UNL     1     -43.509 -52.685  13.679  1.00  0.00    -0.355 N 
HETATM   13  H   UNL     1     -43.790 -52.056  14.429  1.00  0.00     0.162 HD
BRANCH  12  14
HETATM   14  C   UNL     1     -44.529 -53.513  13.041  1.00  0.00     0.084 C 
HETATM   15  C   UNL     1     -45.706 -52.647  12.577  1.00  0.00     0.025 C 
HETATM   16  C   UNL     1     -46.549 -52.129  13.741  1.00  0.00     0.002 C 
HETATM   17  C   UNL     1     -47.010 -53.262  14.652  1.00  0.00     0.000 C 
HETATM   18  C   UNL     1     -45.844 -54.122  15.132  1.00  0.00     0.002 C 
HETATM   19  C   UNL     1     -45.006 -54.642  13.965  1.00  0.00     0.025 C 
ENDBRANCH  12  14
ENDBRANCH   9  10
ENDBRANCH   1   9
BRANCH   4  20
HETATM   20  C   UNL     1     -38.090 -49.974  11.036  1.00  0.00    -0.030 C 
BRANCH  20  21
HETATM   21  N   UNL     1     -37.019 -50.019  10.373  1.00  0.00    -0.365 N 
ATOM     22  HN2 UNL     1     -37.892 -49.952  10.896  1.00  0.00     0.165 HD
ATOM     23  HN1 UNL     1     -36.152 -50.056   9.836  1.00  0.00     0.165 HD
ENDBRANCH  20  21
ENDBRANCH   4  20
BRANCH   6  24
HETATM   24  C   UNL     1     -42.217 -47.651  12.331  1.00  0.00     0.094 A 
HETATM   25  C   UNL     1     -43.347 -47.648  11.327  1.00  0.00     0.028 A 
HETATM   26  C   UNL     1     -42.133 -46.806  11.084  1.00  0.00     0.028 A 
ENDBRANCH   6  24
TORSDOF 6
ENDMDL
MODEL 2
REMARK VINA RESULT:      -5.9      4.034      6.682
REMARK  6 active torsions:
REMARK  status: ('A' for Active; 'I' for Inactive)
REMARK    1  A    between atoms: C_2  and  C_3 
REMARK       I    between atoms: C_2  and  N_19 
REMARK    2  A    between atoms: C_3  and  N_4 
REMARK    3  A    between atoms: C_7  and  C_8 
REMARK    4  A    between atoms: C_8  and  N_9 
REMARK    5  A    between atoms: N_13  and  C_14 
REMARK    6  A    between atoms: N_19  and  C_20 
ROOT
HETATM    1  N   UNL     1     -44.573 -53.605  14.404  1.00  0.00    -0.256 N 
HETATM    2  C   UNL     1     -45.176 -53.262  13.203  1.00  0.00     0.273 A 
HETATM    3  O   UNL     1     -44.954 -53.829  12.138  1.00  0.00    -0.266 OA
HETATM    4  C   UNL     1     -46.167 -52.171  13.266  1.00  0.00     0.110 A 
HETATM    5  C   UNL     1     -46.446 -51.606  14.444  1.00  0.00     0.123 A 
HETATM    6  N   UNL     1     -45.807 -51.985  15.605  1.00  0.00    -0.303 N 
HETATM    7  C   UNL     1     -44.835 -52.997  15.631  1.00  0.00     0.332 A 
HETATM    8  O   UNL     1     -44.244 -53.336  16.657  1.00  0.00    -0.246 OA
ENDROOT
BRANCH   1   9
HETATM    9  C   UNL     1     -43.597 -54.684  14.385  1.00  0.00     0.239 C 
BRANCH   9  10
HETATM   10  C   UNL     1     -42.223 -54.120  14.034  1.00  0.00     0.236 C 
HETATM   11  O   UNL     1     -41.899 -53.825  12.888  1.00  0.00    -0.272 OA
HETATM   12  N   UNL     1     -41.405 -53.911  15.126  1.00  0.00    -0.355 N 
HETATM   13  H   UNL     1     -41.852 -53.878  16.041  1.00  0.00     0.162 HD
BRANCH  12  14
HETATM   14  C   UNL     1     -40.062 -53.355  14.984  1.00  0.00     0.084 C 
HETATM   15  C   UNL     1     -39.056 -54.466  14.661  1.00  0.00     0.025 C 
HETATM   16  C   UNL     1     -38.784 -55.377  15.857  1.00  0.00     0.002 C 
HETATM   17  C   UNL     1     -38.366 -54.582  17.090  1.00  0.00     0.000 C 
HETATM   18  C   UNL     1     -39.370 -53.482  17.429  1.00  0.00     0.002 C 
HETATM   19  C   UNL     1     -39.635 -52.570  16.232  1.00  0.00     0.025 C 
ENDBRANCH  12  14
ENDBRANCH   9  10
ENDBRANCH   1   9
BRANCH   4  20
HETATM   20  C   UNL     1     -46.829 -51.710  11.978  1.00  0.00    -0.030 C 
BRANCH  20  21
HETATM   21  N   UNL     1     -47.378 -51.327  10.909  1.00  0.00    -0.365 N 
ATOM     22  HN2 UNL     1     -46.964 -51.645  11.786  1.00  0.00     0.165 HD
ATOM     23  HN1 UNL     1     -47.822 -51.018  10.045  1.00  0.00     0.165 HD
ENDBRANCH  20  21
ENDBRANCH   4  20
BRANCH   6  24
HETATM   24  C   UNL     1     -46.239 -51.363  16.840  1.00  0.00     0.094 A 
HETATM   25  C   UNL     1     -47.200 -52.028  17.798  1.00  0.00     0.028 A 
HETATM   26  C   UNL     1     -47.641 -50.833  17.011  1.00  0.00     0.028 A 
ENDBRANCH   6  24
TORSDOF 6
ENDMDL
MODEL 3
REMARK VINA RESULT:      -5.9      2.192      3.556
REMARK  6 active torsions:
REMARK  status: ('A' for Active; 'I' for Inactive)
REMARK    1  A    between atoms: C_2  and  C_3 
REMARK       I    between atoms: C_2  and  N_19 
REMARK    2  A    between atoms: C_3  and  N_4 
REMARK    3  A    between atoms: C_7  and  C_8 
REMARK    4  A    between atoms: C_8  and  N_9 
REMARK    5  A    between atoms: N_13  and  C_14 
REMARK    6  A    between atoms: N_19  and  C_20 
ROOT
HETATM    1  N   UNL     1     -40.323 -52.858  13.298  1.00  0.00    -0.256 N 
HETATM    2  C   UNL     1     -40.854 -52.003  12.343  1.00  0.00     0.273 A 
HETATM    3  O   UNL     1     -41.798 -52.292  11.615  1.00  0.00    -0.266 OA
HETATM    4  C   UNL     1     -40.241 -50.664  12.261  1.00  0.00     0.110 A 
HETATM    5  C   UNL     1     -39.256 -50.342  13.104  1.00  0.00     0.123 A 
HETATM    6  N   UNL     1     -38.765 -51.237  14.030  1.00  0.00    -0.303 N 
HETATM    7  C   UNL     1     -39.273 -52.539  14.159  1.00  0.00     0.332 A 
HETATM    8  O   UNL     1     -38.834 -53.356  14.970  1.00  0.00    -0.246 OA
ENDROOT
BRANCH   1   9
HETATM    9  C   UNL     1     -40.908 -54.184  13.417  1.00  0.00     0.239 C 
BRANCH   9  10
HETATM   10  C   UNL     1     -42.071 -54.141  14.406  1.00  0.00     0.236 C 
HETATM   11  O   UNL     1     -41.940 -54.409  15.596  1.00  0.00    -0.272 OA
HETATM   12  N   UNL     1     -43.261 -53.710  13.856  1.00  0.00    -0.355 N 
HETATM   13  H   UNL     1     -43.210 -53.214  12.968  1.00  0.00     0.162 HD
BRANCH  12  14
HETATM   14  C   UNL     1     -44.475 -53.584  14.657  1.00  0.00     0.084 C 
HETATM   15  C   UNL     1     -45.713 -53.880  13.803  1.00  0.00     0.025 C 
HETATM   16  C   UNL     1     -46.008 -52.771  12.793  1.00  0.00     0.002 C 
HETATM   17  C   UNL     1     -46.103 -51.405  13.466  1.00  0.00     0.000 C 
HETATM   18  C   UNL     1     -44.868 -51.095  14.308  1.00  0.00     0.002 C 
HETATM   19  C   UNL     1     -44.580 -52.203  15.319  1.00  0.00     0.025 C 
ENDBRANCH  12  14
ENDBRANCH   9  10
ENDBRANCH   1   9
BRANCH   4  20
HETATM   20  C   UNL     1     -40.739 -49.695  11.202  1.00  0.00    -0.030 C 
BRANCH  20  21
HETATM   21  N   UNL     1     -41.154 -48.892  10.323  1.00  0.00    -0.365 N 
ATOM     22  HN2 UNL     1     -40.814 -49.565  11.010  1.00  0.00     0.165 HD
ATOM     23  HN1 UNL     1     -41.489 -48.241   9.613  1.00  0.00     0.165 HD
ENDBRANCH  20  21
ENDBRANCH   4  20
BRANCH   6  24
HETATM   24  C   UNL     1     -37.750 -50.761  14.948  1.00  0.00     0.094 A 
HETATM   25  C   UNL     1     -38.081 -50.012  16.217  1.00  0.00     0.028 A 
HETATM   26  C   UNL     1     -37.426 -49.294  15.079  1.00  0.00     0.028 A 
ENDBRANCH   6  24
TORSDOF 6
ENDMDL
MODEL 4
REMARK VINA RESULT:      -5.8      2.503      7.388
REMARK  6 active torsions:
REMARK  status: ('A' for Active; 'I' for Inactive)
REMARK    1  A    between atoms: C_2  and  C_3 
REMARK       I    between atoms: C_2  and  N_19 
REMARK    2  A    between atoms: C_3  and  N_4 
REMARK    3  A    between atoms: C_7  and  C_8 
REMARK    4  A    between atoms: C_8  and  N_9 
REMARK    5  A    between atoms: N_13  and  C_14 
REMARK    6  A    between atoms: N_19  and  C_20 
ROOT
HETATM    1  N   UNL     1     -42.393 -53.749  13.046  1.00  0.00    -0.256 N 
HETATM    2  C   UNL     1     -43.760 -53.983  13.070  1.00  0.00     0.273 A 
HETATM    3  O   UNL     1     -44.511 -53.750  12.128  1.00  0.00    -0.266 OA
HETATM    4  C   UNL     1     -44.292 -54.585  14.307  1.00  0.00     0.110 A 
HETATM    5  C   UNL     1     -43.452 -54.892  15.299  1.00  0.00     0.123 A 
HETATM    6  N   UNL     1     -42.102 -54.629  15.221  1.00  0.00    -0.303 N 
HETATM    7  C   UNL     1     -41.516 -54.037  14.092  1.00  0.00     0.332 A 
HETATM    8  O   UNL     1     -40.314 -53.780  14.013  1.00  0.00    -0.246 OA
ENDROOT
BRANCH   1   9
HETATM    9  C   UNL     1     -41.829 -53.166  11.839  1.00  0.00     0.239 C 
BRANCH   9  10
HETATM   10  C   UNL     1     -41.479 -51.702  12.098  1.00  0.00     0.236 C 
HETATM   11  O   UNL     1     -42.322 -50.859  12.383  1.00  0.00    -0.272 OA
HETATM   12  N   UNL     1     -40.126 -51.430  12.047  1.00  0.00    -0.355 N 
HETATM   13  H   UNL     1     -39.490 -52.222  12.123  1.00  0.00     0.162 HD
BRANCH  12  14
HETATM   14  C   UNL     1     -39.604 -50.088  12.292  1.00  0.00     0.084 C 
HETATM   15  C   UNL     1     -38.160 -49.977  11.788  1.00  0.00     0.025 C 
HETATM   16  C   UNL     1     -37.173 -50.752  12.659  1.00  0.00     0.002 C 
HETATM   17  C   UNL     1     -37.287 -50.359  14.129  1.00  0.00     0.000 C 
HETATM   18  C   UNL     1     -38.718 -50.481  14.645  1.00  0.00     0.002 C 
HETATM   19  C   UNL     1     -39.702 -49.700  13.774  1.00  0.00     0.025 C 
ENDBRANCH  12  14
ENDBRANCH   9  10
ENDBRANCH   1   9
BRANCH   4  20
HETATM   20  C   UNL     1     -45.789 -54.821  14.420  1.00  0.00    -0.030 C 
BRANCH  20  21
HETATM   21  N   UNL     1     -47.031 -55.017  14.514  1.00  0.00    -0.365 N 
ATOM     22  HN2 UNL     1     -46.021 -54.890  14.447  1.00  0.00     0.165 HD
ATOM     23  HN1 UNL     1     -48.036 -55.175  14.589  1.00  0.00     0.165 HD
ENDBRANCH  20  21
ENDBRANCH   4  20
BRANCH   6  24
HETATM   24  C   UNL     1     -41.269 -55.073  16.320  1.00  0.00     0.094 A 
HETATM   25  C   UNL     1     -41.017 -56.532  16.619  1.00  0.00     0.028 A 
HETATM   26  C   UNL     1     -41.858 -55.717  17.551  1.00  0.00     0.028 A 
ENDBRANCH   6  24
TORSDOF 6
ENDMDL
MODEL 5
REMARK VINA RESULT:      -5.8      1.920      2.356
REMARK  6 active torsions:
REMARK  status: ('A' for Active; 'I' for Inactive)
REMARK    1  A    between atoms: C_2  and  C_3 
REMARK       I    between atoms: C_2  and  N_19 
REMARK    2  A    between atoms: C_3  and  N_4 
REMARK    3  A    between atoms: C_7  and  C_8 
REMARK    4  A    between atoms: C_8  and  N_9 
REMARK    5  A    between atoms: N_13  and  C_14 
REMARK    6  A    between atoms: N_19  and  C_20 
ROOT
HETATM    1  N   UNL     1     -38.656 -50.878  13.540  1.00  0.00    -0.256 N 
HETATM    2  C   UNL     1     -37.821 -50.987  12.438  1.00  0.00     0.273 A 
HETATM    3  O   UNL     1     -37.009 -51.894  12.281  1.00  0.00    -0.266 OA
HETATM    4  C   UNL     1     -37.982 -49.952  11.400  1.00  0.00     0.110 A 
HETATM    5  C   UNL     1     -38.914 -49.008  11.555  1.00  0.00     0.123 A 
HETATM    6  N   UNL     1     -39.711 -48.946  12.677  1.00  0.00    -0.303 N 
HETATM    7  C   UNL     1     -39.608 -49.876  13.724  1.00  0.00     0.332 A 
HETATM    8  O   UNL     1     -40.302 -49.825  14.741  1.00  0.00    -0.246 OA
ENDROOT
BRANCH   1   9
HETATM    9  C   UNL     1     -38.535 -51.887  14.582  1.00  0.00     0.239 C 
BRANCH   9  10
HETATM   10  C   UNL     1     -39.339 -53.124  14.188  1.00  0.00     0.236 C 
HETATM   11  O   UNL     1     -38.821 -54.125  13.704  1.00  0.00    -0.272 OA
HETATM   12  N   UNL     1     -40.683 -53.039  14.487  1.00  0.00    -0.355 N 
HETATM   13  H   UNL     1     -40.965 -52.329  15.160  1.00  0.00     0.162 HD
BRANCH  12  14
HETATM   14  C   UNL     1     -41.603 -54.137  14.202  1.00  0.00     0.084 C 
HETATM   15  C   UNL     1     -42.498 -53.788  13.007  1.00  0.00     0.025 C 
HETATM   16  C   UNL     1     -43.538 -52.721  13.343  1.00  0.00     0.002 C 
HETATM   17  C   UNL     1     -44.362 -53.101  14.569  1.00  0.00     0.000 C 
HETATM   18  C   UNL     1     -43.481 -53.436  15.770  1.00  0.00     0.002 C 
HETATM   19  C   UNL     1     -42.445 -54.507  15.431  1.00  0.00     0.025 C 
ENDBRANCH  12  14
ENDBRANCH   9  10
ENDBRANCH   1   9
BRANCH   4  20
HETATM   20  C   UNL     1     -37.063 -49.982  10.189  1.00  0.00    -0.030 C 
BRANCH  20  21
HETATM   21  N   UNL     1     -36.302 -50.008   9.185  1.00  0.00    -0.365 N 
ATOM     22  HN2 UNL     1     -36.915 -49.954   9.998  1.00  0.00     0.165 HD
ATOM     23  HN1 UNL     1     -35.686 -50.030   8.372  1.00  0.00     0.165 HD
ENDBRANCH  20  21
ENDBRANCH   4  20
BRANCH   6  24
HETATM   24  C   UNL     1     -40.743 -47.930  12.710  1.00  0.00     0.094 A 
HETATM   25  C   UNL     1     -42.109 -48.130  12.098  1.00  0.00     0.028 A 
HETATM   26  C   UNL     1     -41.146 -47.170  11.471  1.00  0.00     0.028 A 
ENDBRANCH   6  24
TORSDOF 6
ENDMDL
MODEL 6
REMARK VINA RESULT:      -5.7      3.553      5.411
REMARK  6 active torsions:
REMARK  status: ('A' for Active; 'I' for Inactive)
REMARK    1  A    between atoms: C_2  and  C_3 
REMARK       I    between atoms: C_2  and  N_19 
REMARK    2  A    between atoms: C_3  and  N_4 
REMARK    3  A    between atoms: C_7  and  C_8 
REMARK    4  A    between atoms: C_8  and  N_9 
REMARK    5  A    between atoms: N_13  and  C_14 
REMARK    6  A    between atoms: N_19  and  C_20 
ROOT
HETATM    1  N   UNL     1     -41.239 -49.075  12.875  1.00  0.00    -0.256 N 
HETATM    2  C   UNL     1     -40.368 -49.424  11.853  1.00  0.00     0.273 A 
HETATM    3  O   UNL     1     -40.729 -49.754  10.728  1.00  0.00    -0.266 OA
HETATM    4  C   UNL     1     -38.930 -49.338  12.172  1.00  0.00     0.110 A 
HETATM    5  C   UNL     1     -38.551 -48.916  13.381  1.00  0.00     0.123 A 
HETATM    6  N   UNL     1     -39.465 -48.589  14.360  1.00  0.00    -0.303 N 
HETATM    7  C   UNL     1     -40.850 -48.665  14.150  1.00  0.00     0.332 A 
HETATM    8  O   UNL     1     -41.679 -48.392  15.019  1.00  0.00    -0.246 OA
ENDROOT
BRANCH   1   9
HETATM    9  C   UNL     1     -42.665 -49.136  12.596  1.00  0.00     0.239 C 
BRANCH   9  10
HETATM   10  C   UNL     1     -43.085 -47.892  11.816  1.00  0.00     0.236 C 
HETATM   11  O   UNL     1     -42.829 -46.754  12.195  1.00  0.00    -0.272 OA
HETATM   12  N   UNL     1     -43.716 -48.165  10.619  1.00  0.00    -0.355 N 
HETATM   13  H   UNL     1     -43.603 -49.103  10.238  1.00  0.00     0.162 HD
BRANCH  12  14
HETATM   14  C   UNL     1     -44.167 -47.099   9.730  1.00  0.00     0.084 C 
HETATM   15  C   UNL     1     -45.680 -47.196   9.504  1.00  0.00     0.025 C 
HETATM   16  C   UNL     1     -46.068 -48.385   8.625  1.00  0.00     0.002 C 
HETATM   17  C   UNL     1     -45.302 -48.386   7.306  1.00  0.00     0.000 C 
HETATM   18  C   UNL     1     -43.793 -48.304   7.520  1.00  0.00     0.002 C 
HETATM   19  C   UNL     1     -43.409 -47.111   8.395  1.00  0.00     0.025 C 
ENDBRANCH  12  14
ENDBRANCH   9  10
ENDBRANCH   1   9
BRANCH   4  20
HETATM   20  C   UNL     1     -37.921 -49.755  11.115  1.00  0.00    -0.030 C 
BRANCH  20  21
HETATM   21  N   UNL     1     -37.084 -50.100  10.237  1.00  0.00    -0.365 N 
ATOM     22  HN2 UNL     1     -37.782 -49.812  10.923  1.00  0.00     0.165 HD
ATOM     23  HN1 UNL     1     -36.407 -50.380   9.528  1.00  0.00     0.165 HD
ENDBRANCH  20  21
ENDBRANCH   4  20
BRANCH   6  24
HETATM   24  C   UNL     1     -38.949 -48.068  15.609  1.00  0.00     0.094 A 
HETATM   25  C   UNL     1     -38.680 -46.598  15.834  1.00  0.00     0.028 A 
HETATM   26  C   UNL     1     -37.535 -47.557  15.731  1.00  0.00     0.028 A 
ENDBRANCH   6  24
TORSDOF 6
ENDMDL
MODEL 7
REMARK VINA RESULT:      -5.7      1.977      3.695
REMARK  6 active torsions:
REMARK  status: ('A' for Active; 'I' for Inactive)
REMARK    1  A    between atoms: C_2  and  C_3 
REMARK       I    between atoms: C_2  and  N_19 
REMARK    2  A    between atoms: C_3  and  N_4 
REMARK    3  A    between atoms: C_7  and  C_8 
REMARK    4  A    between atoms: C_8  and  N_9 
REMARK    5  A    between atoms: N_13  and  C_14 
REMARK    6  A    between atoms: N_19  and  C_20 
ROOT
HETATM    1  N   UNL     1     -40.868 -50.285  12.196  1.00  0.00    -0.256 N 
HETATM    2  C   UNL     1     -41.825 -49.297  12.369  1.00  0.00     0.273 A 
HETATM    3  O   UNL     1     -43.014 -49.441  12.103  1.00  0.00    -0.266 OA
HETATM    4  C   UNL     1     -41.346 -48.027  12.948  1.00  0.00     0.110 A 
HETATM    5  C   UNL     1     -40.061 -47.908  13.291  1.00  0.00     0.123 A 
HETATM    6  N   UNL     1     -39.153 -48.924  13.088  1.00  0.00    -0.303 N 
HETATM    7  C   UNL     1     -39.518 -50.155  12.522  1.00  0.00     0.332 A 
HETATM    8  O   UNL     1     -38.715 -51.067  12.318  1.00  0.00    -0.246 OA
ENDROOT
BRANCH   1   9
HETATM    9  C   UNL     1     -41.303 -51.556  11.637  1.00  0.00     0.239 C 
BRANCH   9  10
HETATM   10  C   UNL     1     -41.988 -52.381  12.723  1.00  0.00     0.236 C 
HETATM   11  O   UNL     1     -41.366 -52.970  13.601  1.00  0.00    -0.272 OA
HETATM   12  N   UNL     1     -43.367 -52.348  12.669  1.00  0.00    -0.355 N 
HETATM   13  H   UNL     1     -43.792 -51.599  12.126  1.00  0.00     0.162 HD
BRANCH  12  14
HETATM   14  C   UNL     1     -44.190 -53.060  13.642  1.00  0.00     0.084 C 
HETATM   15  C   UNL     1     -45.556 -53.406  13.035  1.00  0.00     0.025 C 
HETATM   16  C   UNL     1     -46.448 -52.178  12.859  1.00  0.00     0.002 C 
HETATM   17  C   UNL     1     -46.593 -51.394  14.160  1.00  0.00     0.000 C 
HETATM   18  C   UNL     1     -45.239 -51.032  14.764  1.00  0.00     0.002 C 
HETATM   19  C   UNL     1     -44.352 -52.263  14.944  1.00  0.00     0.025 C 
ENDBRANCH  12  14
ENDBRANCH   9  10
ENDBRANCH   1   9
BRANCH   4  20
HETATM   20  C   UNL     1     -42.333 -46.883  13.118  1.00  0.00    -0.030 C 
BRANCH  20  21
HETATM   21  N   UNL     1     -43.151 -45.934  13.258  1.00  0.00    -0.365 N 
ATOM     22  HN2 UNL     1     -42.513 -46.720  13.130  1.00  0.00     0.165 HD
ATOM     23  HN1 UNL     1     -43.812 -45.166  13.371  1.00  0.00     0.165 HD
ENDBRANCH  20  21
ENDBRANCH   4  20
BRANCH   6  24
HETATM   24  C   UNL     1     -37.802 -48.720  13.568  1.00  0.00     0.094 A 
HETATM   25  C   UNL     1     -37.368 -49.077  14.971  1.00  0.00     0.028 A 
HETATM   26  C   UNL     1     -37.471 -47.639  14.567  1.00  0.00     0.028 A 
ENDBRANCH   6  24
TORSDOF 6
ENDMDL
MODEL 8
REMARK VINA RESULT:      -5.7      2.237      3.301
REMARK  6 active torsions:
REMARK  status: ('A' for Active; 'I' for Inactive)
REMARK    1  A    between atoms: C_2  and  C_3 
REMARK       I    between atoms: C_2  and  N_19 
REMARK    2  A    between atoms: C_3  and  N_4 
REMARK    3  A    between atoms: C_7  and  C_8 
REMARK    4  A    between atoms: C_8  and  N_9 
REMARK    5  A    between atoms: N_13  and  C_14 
REMARK    6  A    between atoms: N_19  and  C_20 
ROOT
HETATM    1  N   UNL     1     -40.530 -49.971  12.939  1.00  0.00    -0.256 N 
HETATM    2  C   UNL     1     -39.775 -49.944  11.775  1.00  0.00     0.273 A 
HETATM    3  O   UNL     1     -40.245 -49.748  10.659  1.00  0.00    -0.266 OA
HETATM    4  C   UNL     1     -38.321 -50.125  11.943  1.00  0.00     0.110 A 
HETATM    5  C   UNL     1     -37.817 -50.273  13.171  1.00  0.00     0.123 A 
HETATM    6  N   UNL     1     -38.619 -50.299  14.292  1.00  0.00    -0.303 N 
HETATM    7  C   UNL     1     -40.013 -50.158  14.221  1.00  0.00     0.332 A 
HETATM    8  O   UNL     1     -40.746 -50.196  15.211  1.00  0.00    -0.246 OA
ENDROOT
BRANCH   1   9
HETATM    9  C   UNL     1     -41.968 -49.786  12.816  1.00  0.00     0.239 C 
BRANCH   9  10
HETATM   10  C   UNL     1     -42.667 -51.138  12.938  1.00  0.00     0.236 C 
HETATM   11  O   UNL     1     -42.361 -52.107  12.252  1.00  0.00    -0.272 OA
HETATM   12  N   UNL     1     -43.623 -51.188  13.933  1.00  0.00    -0.355 N 
HETATM   13  H   UNL     1     -43.588 -50.463  14.647  1.00  0.00     0.162 HD
BRANCH  12  14
HETATM   14  C   UNL     1     -44.378 -52.407  14.210  1.00  0.00     0.084 C 
HETATM   15  C   UNL     1     -45.646 -52.457  13.350  1.00  0.00     0.025 C 
HETATM   16  C   UNL     1     -46.700 -51.447  13.799  1.00  0.00     0.002 C 
HETATM   17  C   UNL     1     -47.023 -51.588  15.283  1.00  0.00     0.000 C 
HETATM   18  C   UNL     1     -45.768 -51.524  16.150  1.00  0.00     0.002 C 
HETATM   19  C   UNL     1     -44.718 -52.539  15.701  1.00  0.00     0.025 C 
ENDBRANCH  12  14
ENDBRANCH   9  10
ENDBRANCH   1   9
BRANCH   4  20
HETATM   20  C   UNL     1     -37.441 -50.157  10.705  1.00  0.00    -0.030 C 
BRANCH  20  21
HETATM   21  N   UNL     1     -36.711 -50.184   9.677  1.00  0.00    -0.365 N 
ATOM     22  HN2 UNL     1     -37.287 -50.190  10.519  1.00  0.00     0.165 HD
ATOM     23  HN1 UNL     1     -36.120 -50.205   8.846  1.00  0.00     0.165 HD
ENDBRANCH  20  21
ENDBRANCH   4  20
BRANCH   6  24
HETATM   24  C   UNL     1     -37.965 -50.386  15.581  1.00  0.00     0.094 A 
HETATM   25  C   UNL     1     -37.562 -49.167  16.379  1.00  0.00     0.028 A 
HETATM   26  C   UNL     1     -36.509 -50.030  15.757  1.00  0.00     0.028 A 
ENDBRANCH   6  24
TORSDOF 6
ENDMDL
MODEL 9
REMARK VINA RESULT:      -5.7      1.927      2.247
REMARK  6 active torsions:
REMARK  status: ('A' for Active; 'I' for Inactive)
REMARK    1  A    between atoms: C_2  and  C_3 
REMARK       I    between atoms: C_2  and  N_19 
REMARK    2  A    between atoms: C_3  and  N_4 
REMARK    3  A    between atoms: C_7  and  C_8 
REMARK    4  A    between atoms: C_8  and  N_9 
REMARK    5  A    between atoms: N_13  and  C_14 
REMARK    6  A    between atoms: N_19  and  C_20 
ROOT
HETATM    1  N   UNL     1     -40.274 -51.288  12.720  1.00  0.00    -0.256 N 
HETATM    2  C   UNL     1     -39.109 -51.382  13.466  1.00  0.00     0.273 A 
HETATM    3  O   UNL     1     -38.498 -52.429  13.652  1.00  0.00    -0.266 OA
HETATM    4  C   UNL     1     -38.588 -50.116  14.015  1.00  0.00     0.110 A 
HETATM    5  C   UNL     1     -39.229 -48.975  13.750  1.00  0.00     0.123 A 
HETATM    6  N   UNL     1     -40.389 -48.944  13.007  1.00  0.00    -0.303 N 
HETATM    7  C   UNL     1     -40.966 -50.103  12.467  1.00  0.00     0.332 A 
HETATM    8  O   UNL     1     -42.011 -50.095  11.815  1.00  0.00    -0.246 OA
ENDROOT
BRANCH   1   9
HETATM    9  C   UNL     1     -40.814 -52.513  12.152  1.00  0.00     0.239 C 
BRANCH   9  10
HETATM   10  C   UNL     1     -41.758 -53.167  13.158  1.00  0.00     0.236 C 
HETATM   11  O   UNL     1     -41.366 -53.913  14.049  1.00  0.00    -0.272 OA
HETATM   12  N   UNL     1     -43.078 -52.789  13.017  1.00  0.00    -0.355 N 
HETATM   13  H   UNL     1     -43.265 -51.945  12.479  1.00  0.00     0.162 HD
BRANCH  12  14
HETATM   14  C   UNL     1     -44.120 -53.296  13.906  1.00  0.00     0.084 C 
HETATM   15  C   UNL     1     -45.377 -53.656  13.106  1.00  0.00     0.025 C 
HETATM   16  C   UNL     1     -46.118 -52.423  12.590  1.00  0.00     0.002 C 
HETATM   17  C   UNL     1     -46.431 -51.441  13.714  1.00  0.00     0.000 C 
HETATM   18  C   UNL     1     -45.182 -51.064  14.509  1.00  0.00     0.002 C 
HETATM   19  C   UNL     1     -44.447 -52.299  15.027  1.00  0.00     0.025 C 
ENDBRANCH  12  14
ENDBRANCH   9  10
ENDBRANCH   1   9
BRANCH   4  20
HETATM   20  C   UNL     1     -37.342 -50.154  14.885  1.00  0.00    -0.030 C 
BRANCH  20  21
HETATM   21  N   UNL     1     -36.309 -50.185  15.607  1.00  0.00    -0.365 N 
ATOM     22  HN2 UNL     1     -37.135 -50.130  15.011  1.00  0.00     0.165 HD
ATOM     23  HN1 UNL     1     -35.473 -50.211  16.190  1.00  0.00     0.165 HD
ENDBRANCH  20  21
ENDBRANCH   4  20
BRANCH   6  24
HETATM   24  C   UNL     1     -40.961 -47.646  12.713  1.00  0.00     0.094 A 
HETATM   25  C   UNL     1     -40.567 -46.833  11.501  1.00  0.00     0.028 A 
HETATM   26  C   UNL     1     -40.163 -46.375  12.867  1.00  0.00     0.028 A 
ENDBRANCH   6  24
TORSDOF 6
ENDMDL
