MODEL 1
REMARK VINA RESULT:      -7.0      0.000      0.000
REMARK  4 active torsions:
REMARK  status: ('A' for Active; 'I' for Inactive)
REMARK    1  A    between atoms: C_2  and  C_5 
REMARK    2  A    between atoms: N_10  and  C_11 
REMARK    3  A    between atoms: C_11  and  C_12 
REMARK       I    between atoms: C_12  and  N_14 
REMARK    4  A    between atoms: N_14  and  C_15 
ROOT
HETATM    1  C   UNL     1     -41.141 -53.368  13.972  1.00  0.00     0.236 C 
HETATM    2  O   UNL     1     -40.812 -54.252  13.182  1.00  0.00    -0.272 OA
HETATM    3  N   UNL     1     -40.673 -52.073  13.891  1.00  0.00    -0.347 N 
HETATM    4  H   UNL     1     -41.217 -51.341  14.349  1.00  0.00     0.163 HD
ENDROOT
BRANCH   1   5
HETATM    5  C   UNL     1     -42.130 -53.636  15.106  1.00  0.00     0.234 C 
BRANCH   5   6
HETATM    6  N   UNL     1     -43.497 -53.774  14.609  1.00  0.00    -0.315 N 
HETATM    7  C   UNL     1     -44.088 -55.028  14.686  1.00  0.00     0.247 A 
HETATM    8  C   UNL     1     -45.475 -55.124  14.154  1.00  0.00     0.075 A 
HETATM    9  O   UNL     1     -43.539 -56.026  15.147  1.00  0.00    -0.268 OA
HETATM   10  C   UNL     1     -46.096 -54.034  13.685  1.00  0.00     0.023 A 
HETATM   11  C   UNL     1     -45.441 -52.739  13.687  1.00  0.00     0.063 A 
HETATM   12  C   UNL     1     -44.175 -52.659  14.136  1.00  0.00     0.110 A 
BRANCH  11  13
HETATM   13  C   UNL     1     -46.189 -51.526  13.207  1.00  0.00     0.418 C 
HETATM   14  F   UNL     1     -46.979 -51.783  12.132  1.00  0.00    -0.166 F 
HETATM   15  F   UNL     1     -45.347 -50.527  12.837  1.00  0.00    -0.166 F 
HETATM   16  F   UNL     1     -47.001 -51.019  14.169  1.00  0.00    -0.166 F 
ENDBRANCH  11  13
ENDBRANCH   5   6
ENDBRANCH   1   5
BRANCH   3  17
HETATM   17  C   UNL     1     -39.733 -51.666  12.837  1.00  0.00     0.170 C 
HETATM   18  C   UNL     1     -38.419 -51.193  13.467  1.00  0.00     0.034 C 
HETATM   19  C   UNL     1     -37.302 -51.070  12.432  1.00  0.00     0.004 C 
HETATM   20  C   UNL     1     -37.272 -49.738  11.691  1.00  0.00     0.015 C 
HETATM   21  C   UNL     1     -38.614 -49.053  11.497  1.00  0.00     0.095 C 
HETATM   22  N   UNL     1     -39.687 -49.903  11.028  1.00  0.00    -0.261 NA
HETATM   23  C   UNL     1     -40.434 -50.673  11.886  1.00  0.00     0.220 C 
HETATM   24  H   UNL     1     -40.322 -49.428  10.396  1.00  0.00     0.130 HD
HETATM   25  O   UNL     1     -41.662 -50.645  11.763  1.00  0.00    -0.278 OA
ENDBRANCH   3  17
TORSDOF 4
ENDMDL
MODEL 2
REMARK VINA RESULT:      -6.7      2.591      3.745
REMARK  4 active torsions:
REMARK  status: ('A' for Active; 'I' for Inactive)
REMARK    1  A    between atoms: C_2  and  C_5 
REMARK    2  A    between atoms: N_10  and  C_11 
REMARK    3  A    between atoms: C_11  and  C_12 
REMARK       I    between atoms: C_12  and  N_14 
REMARK    4  A    between atoms: N_14  and  C_15 
ROOT
HETATM    1  C   UNL     1     -43.508 -54.957  14.835  1.00  0.00     0.236 C 
HETATM    2  O   UNL     1     -43.075 -55.829  15.587  1.00  0.00    -0.272 OA
HETATM    3  N   UNL     1     -42.748 -53.889  14.403  1.00  0.00    -0.347 N 
HETATM    4  H   UNL     1     -43.044 -53.407  13.555  1.00  0.00     0.163 HD
ENDROOT
BRANCH   1   5
HETATM    5  C   UNL     1     -44.936 -55.004  14.292  1.00  0.00     0.234 C 
BRANCH   5   6
HETATM    6  N   UNL     1     -45.580 -53.695  14.353  1.00  0.00    -0.315 N 
HETATM    7  C   UNL     1     -45.699 -52.978  13.169  1.00  0.00     0.247 A 
HETATM    8  C   UNL     1     -46.349 -51.644  13.282  1.00  0.00     0.075 A 
HETATM    9  O   UNL     1     -45.302 -53.375  12.077  1.00  0.00    -0.268 OA
HETATM   10  C   UNL     1     -46.821 -51.220  14.463  1.00  0.00     0.023 A 
HETATM   11  C   UNL     1     -46.716 -52.045  15.652  1.00  0.00     0.063 A 
HETATM   12  C   UNL     1     -46.098 -53.236  15.557  1.00  0.00     0.110 A 
BRANCH  11  13
HETATM   13  C   UNL     1     -47.308 -51.561  16.947  1.00  0.00     0.418 C 
HETATM   14  F   UNL     1     -48.620 -51.229  16.837  1.00  0.00    -0.166 F 
HETATM   15  F   UNL     1     -46.668 -50.458  17.414  1.00  0.00    -0.166 F 
HETATM   16  F   UNL     1     -47.229 -52.502  17.922  1.00  0.00    -0.166 F 
ENDBRANCH  11  13
ENDBRANCH   5   6
ENDBRANCH   1   5
BRANCH   3  17
HETATM   17  C   UNL     1     -41.350 -53.727  14.826  1.00  0.00     0.170 C 
HETATM   18  C   UNL     1     -41.208 -52.461  15.677  1.00  0.00     0.034 C 
HETATM   19  C   UNL     1     -39.869 -52.413  16.410  1.00  0.00     0.004 C 
HETATM   20  C   UNL     1     -38.721 -51.832  15.593  1.00  0.00     0.015 C 
HETATM   21  C   UNL     1     -38.798 -52.047  14.090  1.00  0.00     0.095 C 
HETATM   22  N   UNL     1     -39.129 -53.392  13.669  1.00  0.00    -0.261 NA
HETATM   23  C   UNL     1     -40.429 -53.831  13.593  1.00  0.00     0.220 C 
HETATM   24  H   UNL     1     -38.652 -53.670  12.818  1.00  0.00     0.130 HD
HETATM   25  O   UNL     1     -40.774 -54.430  12.571  1.00  0.00    -0.278 OA
ENDBRANCH   3  17
TORSDOF 4
ENDMDL
MODEL 3
REMARK VINA RESULT:      -6.4      3.560      6.814
REMARK  4 active torsions:
REMARK  status: ('A' for Active; 'I' for Inactive)
REMARK    1  A    between atoms: C_2  and  C_5 
REMARK    2  A    between atoms: N_10  and  C_11 
REMARK    3  A    between atoms: C_11  and  C_12 
REMARK       I    between atoms: C_12  and  N_14 
REMARK    4  A    between atoms: N_14  and  C_15 
ROOT
HETATM    1  C   UNL     1     -41.191 -50.083  12.263  1.00  0.00     0.236 C 
HETATM    2  O   UNL     1     -40.930 -49.688  13.399  1.00  0.00    -0.272 OA
HETATM    3  N   UNL     1     -41.985 -51.183  12.011  1.00  0.00    -0.347 N 
HETATM    4  H   UNL     1     -42.418 -51.255  11.090  1.00  0.00     0.163 HD
ENDROOT
BRANCH   1   5
HETATM    5  C   UNL     1     -40.667 -49.358  11.024  1.00  0.00     0.234 C 
BRANCH   5   6
HETATM    6  N   UNL     1     -41.356 -48.089  10.809  1.00  0.00    -0.315 N 
HETATM    7  C   UNL     1     -40.722 -46.929  11.236  1.00  0.00     0.247 A 
HETATM    8  C   UNL     1     -41.469 -45.662  11.010  1.00  0.00     0.075 A 
HETATM    9  O   UNL     1     -39.620 -46.902  11.778  1.00  0.00    -0.268 OA
HETATM   10  C   UNL     1     -42.654 -45.678  10.385  1.00  0.00     0.023 A 
HETATM   11  C   UNL     1     -43.235 -46.920   9.911  1.00  0.00     0.063 A 
HETATM   12  C   UNL     1     -42.576 -48.069  10.146  1.00  0.00     0.110 A 
BRANCH  11  13
HETATM   13  C   UNL     1     -44.538 -46.893   9.162  1.00  0.00     0.418 C 
HETATM   14  F   UNL     1     -44.506 -47.623   8.017  1.00  0.00    -0.166 F 
HETATM   15  F   UNL     1     -44.890 -45.631   8.805  1.00  0.00    -0.166 F 
HETATM   16  F   UNL     1     -45.560 -47.389   9.906  1.00  0.00    -0.166 F 
ENDBRANCH  11  13
ENDBRANCH   5   6
ENDBRANCH   1   5
BRANCH   3  17
HETATM   17  C   UNL     1     -42.576 -51.963  13.107  1.00  0.00     0.170 C 
HETATM   18  C   UNL     1     -42.349 -53.458  12.861  1.00  0.00     0.034 C 
HETATM   19  C   UNL     1     -42.645 -54.293  14.106  1.00  0.00     0.004 C 
HETATM   20  C   UNL     1     -44.110 -54.679  14.274  1.00  0.00     0.015 C 
HETATM   21  C   UNL     1     -45.126 -53.697  13.715  1.00  0.00     0.095 C 
HETATM   22  N   UNL     1     -44.897 -52.307  14.045  1.00  0.00    -0.261 NA
HETATM   23  C   UNL     1     -44.039 -51.518  13.318  1.00  0.00     0.220 C 
HETATM   24  H   UNL     1     -45.755 -51.787  14.191  1.00  0.00     0.130 HD
HETATM   25  O   UNL     1     -44.435 -50.400  12.976  1.00  0.00    -0.278 OA
ENDBRANCH   3  17
TORSDOF 4
ENDMDL
MODEL 4
REMARK VINA RESULT:      -6.4      2.698      3.955
REMARK  4 active torsions:
REMARK  status: ('A' for Active; 'I' for Inactive)
REMARK    1  A    between atoms: C_2  and  C_5 
REMARK    2  A    between atoms: N_10  and  C_11 
REMARK    3  A    between atoms: C_11  and  C_12 
REMARK       I    between atoms: C_12  and  N_14 
REMARK    4  A    between atoms: N_14  and  C_15 
ROOT
HETATM    1  C   UNL     1     -41.657 -50.996  12.361  1.00  0.00     0.236 C 
HETATM    2  O   UNL     1     -42.064 -50.660  13.472  1.00  0.00    -0.272 OA
HETATM    3  N   UNL     1     -41.326 -50.090  11.374  1.00  0.00    -0.347 N 
HETATM    4  H   UNL     1     -40.704 -50.406  10.629  1.00  0.00     0.163 HD
ENDROOT
BRANCH   1   5
HETATM    5  C   UNL     1     -41.459 -52.466  11.992  1.00  0.00     0.234 C 
BRANCH   5   6
HETATM    6  N   UNL     1     -42.014 -53.357  13.008  1.00  0.00    -0.315 N 
HETATM    7  C   UNL     1     -41.145 -53.869  13.963  1.00  0.00     0.247 A 
HETATM    8  C   UNL     1     -41.753 -54.783  14.967  1.00  0.00     0.075 A 
HETATM    9  O   UNL     1     -39.944 -53.617  14.012  1.00  0.00    -0.268 OA
HETATM   10  C   UNL     1     -43.069 -55.032  14.946  1.00  0.00     0.023 A 
HETATM   11  C   UNL     1     -43.932 -54.419  13.954  1.00  0.00     0.063 A 
HETATM   12  C   UNL     1     -43.377 -53.619  13.025  1.00  0.00     0.110 A 
BRANCH  11  13
HETATM   13  C   UNL     1     -45.413 -54.675  13.996  1.00  0.00     0.418 C 
HETATM   14  F   UNL     1     -46.121 -53.816  13.219  1.00  0.00    -0.166 F 
HETATM   15  F   UNL     1     -45.911 -54.556  15.255  1.00  0.00    -0.166 F 
HETATM   16  F   UNL     1     -45.723 -55.926  13.569  1.00  0.00    -0.166 F 
ENDBRANCH  11  13
ENDBRANCH   5   6
ENDBRANCH   1   5
BRANCH   3  17
HETATM   17  C   UNL     1     -41.444 -48.643  11.596  1.00  0.00     0.170 C 
HETATM   18  C   UNL     1     -42.249 -48.007  10.459  1.00  0.00     0.034 C 
HETATM   19  C   UNL     1     -42.683 -46.581  10.794  1.00  0.00     0.004 C 
HETATM   20  C   UNL     1     -41.643 -45.513  10.476  1.00  0.00     0.015 C 
HETATM   21  C   UNL     1     -40.190 -45.947  10.579  1.00  0.00     0.095 C 
HETATM   22  N   UNL     1     -39.845 -46.695  11.769  1.00  0.00    -0.261 NA
HETATM   23  C   UNL     1     -40.044 -48.051  11.859  1.00  0.00     0.220 C 
HETATM   24  H   UNL     1     -38.912 -46.490  12.109  1.00  0.00     0.130 HD
HETATM   25  O   UNL     1     -39.116 -48.741  12.292  1.00  0.00    -0.278 OA
ENDBRANCH   3  17
TORSDOF 4
ENDMDL
MODEL 5
REMARK VINA RESULT:      -6.4      2.227      2.903
REMARK  4 active torsions:
REMARK  status: ('A' for Active; 'I' for Inactive)
REMARK    1  A    between atoms: C_2  and  C_5 
REMARK    2  A    between atoms: N_10  and  C_11 
REMARK    3  A    between atoms: C_11  and  C_12 
REMARK       I    between atoms: C_12  and  N_14 
REMARK    4  A    between atoms: N_14  and  C_15 
ROOT
HETATM    1  C   UNL     1     -42.535 -53.755  14.709  1.00  0.00     0.236 C 
HETATM    2  O   UNL     1     -41.645 -54.297  15.364  1.00  0.00    -0.272 OA
HETATM    3  N   UNL     1     -42.341 -52.595  13.988  1.00  0.00    -0.347 N 
HETATM    4  H   UNL     1     -42.994 -52.391  13.231  1.00  0.00     0.163 HD
ENDROOT
BRANCH   1   5
HETATM    5  C   UNL     1     -43.940 -54.351  14.624  1.00  0.00     0.234 C 
BRANCH   5   6
HETATM    6  N   UNL     1     -44.960 -53.312  14.503  1.00  0.00    -0.315 N 
HETATM    7  C   UNL     1     -45.379 -52.963  13.226  1.00  0.00     0.247 A 
HETATM    8  C   UNL     1     -46.408 -51.891  13.151  1.00  0.00     0.075 A 
HETATM    9  O   UNL     1     -44.951 -53.474  12.193  1.00  0.00    -0.268 OA
HETATM   10  C   UNL     1     -46.909 -51.356  14.273  1.00  0.00     0.023 A 
HETATM   11  C   UNL     1     -46.470 -51.808  15.580  1.00  0.00     0.063 A 
HETATM   12  C   UNL     1     -45.514 -52.753  15.647  1.00  0.00     0.110 A 
BRANCH  11  13
HETATM   13  C   UNL     1     -47.096 -51.226  16.817  1.00  0.00     0.418 C 
HETATM   14  F   UNL     1     -48.375 -50.816  16.620  1.00  0.00    -0.166 F 
HETATM   15  F   UNL     1     -46.409 -50.145  17.271  1.00  0.00    -0.166 F 
HETATM   16  F   UNL     1     -47.132 -52.123  17.836  1.00  0.00    -0.166 F 
ENDBRANCH  11  13
ENDBRANCH   5   6
ENDBRANCH   1   5
BRANCH   3  17
HETATM   17  C   UNL     1     -41.034 -51.924  13.960  1.00  0.00     0.170 C 
HETATM   18  C   UNL     1     -41.200 -50.447  14.329  1.00  0.00     0.034 C 
HETATM   19  C   UNL     1     -39.861 -49.780  14.634  1.00  0.00     0.004 C 
HETATM   20  C   UNL     1     -39.122 -49.254  13.409  1.00  0.00     0.015 C 
HETATM   21  C   UNL     1     -39.355 -50.014  12.114  1.00  0.00     0.095 C 
HETATM   22  N   UNL     1     -39.271 -51.455  12.212  1.00  0.00    -0.261 NA
HETATM   23  C   UNL     1     -40.337 -52.221  12.615  1.00  0.00     0.220 C 
HETATM   24  H   UNL     1     -38.867 -51.886  11.388  1.00  0.00     0.130 HD
HETATM   25  O   UNL     1     -40.614 -53.220  11.945  1.00  0.00    -0.278 OA
ENDBRANCH   3  17
TORSDOF 4
ENDMDL
MODEL 6
REMARK VINA RESULT:      -6.4      2.911      6.833
REMARK  4 active torsions:
REMARK  status: ('A' for Active; 'I' for Inactive)
REMARK    1  A    between atoms: C_2  and  C_5 
REMARK    2  A    between atoms: N_10  and  C_11 
REMARK    3  A    between atoms: C_11  and  C_12 
REMARK       I    between atoms: C_12  and  N_14 
REMARK    4  A    between atoms: N_14  and  C_15 
ROOT
HETATM    1  C   UNL     1     -42.721 -52.490  12.839  1.00  0.00     0.236 C 
HETATM    2  O   UNL     1     -42.669 -52.437  14.067  1.00  0.00    -0.272 OA
HETATM    3  N   UNL     1     -43.907 -52.563  12.137  1.00  0.00    -0.347 N 
HETATM    4  H   UNL     1     -43.898 -52.277  11.158  1.00  0.00     0.163 HD
ENDROOT
BRANCH   1   5
HETATM    5  C   UNL     1     -41.456 -52.451  11.983  1.00  0.00     0.234 C 
BRANCH   5   6
HETATM    6  N   UNL     1     -40.743 -51.185  12.129  1.00  0.00    -0.315 N 
HETATM    7  C   UNL     1     -39.524 -51.204  12.796  1.00  0.00     0.247 A 
HETATM    8  C   UNL     1     -38.842 -49.889  12.935  1.00  0.00     0.075 A 
HETATM    9  O   UNL     1     -39.007 -52.215  13.265  1.00  0.00    -0.268 OA
HETATM   10  C   UNL     1     -39.379 -48.788  12.392  1.00  0.00     0.023 A 
HETATM   11  C   UNL     1     -40.628 -48.848  11.657  1.00  0.00     0.063 A 
HETATM   12  C   UNL     1     -41.263 -50.030  11.562  1.00  0.00     0.110 A 
BRANCH  11  13
HETATM   13  C   UNL     1     -41.172 -47.603  11.012  1.00  0.00     0.418 C 
HETATM   14  F   UNL     1     -40.199 -46.731  10.641  1.00  0.00    -0.166 F 
HETATM   15  F   UNL     1     -42.002 -46.923  11.846  1.00  0.00    -0.166 F 
HETATM   16  F   UNL     1     -41.886 -47.883   9.892  1.00  0.00    -0.166 F 
ENDBRANCH  11  13
ENDBRANCH   5   6
ENDBRANCH   1   5
BRANCH   3  17
HETATM   17  C   UNL     1     -45.203 -52.584  12.829  1.00  0.00     0.170 C 
HETATM   18  C   UNL     1     -45.270 -51.437  13.843  1.00  0.00     0.034 C 
HETATM   19  C   UNL     1     -46.692 -51.208  14.352  1.00  0.00     0.004 C 
HETATM   20  C   UNL     1     -47.093 -52.092  15.526  1.00  0.00     0.015 C 
HETATM   21  C   UNL     1     -46.441 -53.464  15.581  1.00  0.00     0.095 C 
HETATM   22  N   UNL     1     -46.431 -54.200  14.335  1.00  0.00    -0.261 NA
HETATM   23  C   UNL     1     -45.463 -54.002  13.381  1.00  0.00     0.220 C 
HETATM   24  H   UNL     1     -46.547 -55.199  14.463  1.00  0.00     0.130 HD
HETATM   25  O   UNL     1     -44.927 -55.000  12.890  1.00  0.00    -0.278 OA
ENDBRANCH   3  17
TORSDOF 4
ENDMDL
MODEL 7
REMARK VINA RESULT:      -6.3      3.427      6.607
REMARK  4 active torsions:
REMARK  status: ('A' for Active; 'I' for Inactive)
REMARK    1  A    between atoms: C_2  and  C_5 
REMARK    2  A    between atoms: N_10  and  C_11 
REMARK    3  A    between atoms: C_11  and  C_12 
REMARK       I    between atoms: C_12  and  N_14 
REMARK    4  A    between atoms: N_14  and  C_15 
ROOT
HETATM    1  C   UNL     1     -40.788 -50.445  12.137  1.00  0.00     0.236 C 
HETATM    2  O   UNL     1     -41.337 -50.277  13.225  1.00  0.00    -0.272 OA
HETATM    3  N   UNL     1     -40.796 -51.652  11.468  1.00  0.00    -0.347 N 
HETATM    4  H   UNL     1     -40.621 -51.638  10.463  1.00  0.00     0.163 HD
ENDROOT
BRANCH   1   5
HETATM    5  C   UNL     1     -40.066 -49.305  11.420  1.00  0.00     0.234 C 
BRANCH   5   6
HETATM    6  N   UNL     1     -40.954 -48.171  11.177  1.00  0.00    -0.315 N 
HETATM    7  C   UNL     1     -40.740 -47.013  11.913  1.00  0.00     0.247 A 
HETATM    8  C   UNL     1     -41.678 -45.890  11.642  1.00  0.00     0.075 A 
HETATM    9  O   UNL     1     -39.851 -46.879  12.750  1.00  0.00    -0.268 OA
HETATM   10  C   UNL     1     -42.627 -46.014  10.703  1.00  0.00     0.023 A 
HETATM   11  C   UNL     1     -42.760 -47.233   9.928  1.00  0.00     0.063 A 
HETATM   12  C   UNL     1     -41.934 -48.260  10.197  1.00  0.00     0.110 A 
BRANCH  11  13
HETATM   13  C   UNL     1     -43.798 -47.315   8.843  1.00  0.00     0.418 C 
HETATM   14  F   UNL     1     -43.389 -48.044   7.773  1.00  0.00    -0.166 F 
HETATM   15  F   UNL     1     -44.129 -46.086   8.368  1.00  0.00    -0.166 F 
HETATM   16  F   UNL     1     -44.947 -47.888   9.283  1.00  0.00    -0.166 F 
ENDBRANCH  11  13
ENDBRANCH   5   6
ENDBRANCH   1   5
BRANCH   3  17
HETATM   17  C   UNL     1     -41.472 -52.830  12.027  1.00  0.00     0.170 C 
HETATM   18  C   UNL     1     -42.922 -52.480  12.377  1.00  0.00     0.034 C 
HETATM   19  C   UNL     1     -43.760 -53.727  12.651  1.00  0.00     0.004 C 
HETATM   20  C   UNL     1     -43.679 -54.241  14.084  1.00  0.00     0.015 C 
HETATM   21  C   UNL     1     -42.366 -53.991  14.807  1.00  0.00     0.095 C 
HETATM   22  N   UNL     1     -41.170 -54.305  14.056  1.00  0.00    -0.261 NA
HETATM   23  C   UNL     1     -40.614 -53.417  13.167  1.00  0.00     0.220 C 
HETATM   24  H   UNL     1     -40.425 -54.680  14.634  1.00  0.00     0.130 HD
HETATM   25  O   UNL     1     -39.396 -53.227  13.230  1.00  0.00    -0.278 OA
ENDBRANCH   3  17
TORSDOF 4
ENDMDL
MODEL 8
REMARK VINA RESULT:      -6.1      3.048      6.803
REMARK  4 active torsions:
REMARK  status: ('A' for Active; 'I' for Inactive)
REMARK    1  A    between atoms: C_2  and  C_5 
REMARK    2  A    between atoms: N_10  and  C_11 
REMARK    3  A    between atoms: C_11  and  C_12 
REMARK       I    between atoms: C_12  and  N_14 
REMARK    4  A    between atoms: N_14  and  C_15 
ROOT
HETATM    1  C   UNL     1     -42.453 -53.617  13.656  1.00  0.00     0.236 C 
HETATM    2  O   UNL     1     -42.719 -53.096  14.738  1.00  0.00    -0.272 OA
HETATM    3  N   UNL     1     -43.396 -53.839  12.674  1.00  0.00    -0.347 N 
HETATM    4  H   UNL     1     -43.066 -53.960  11.716  1.00  0.00     0.163 HD
ENDROOT
BRANCH   1   5
HETATM    5  C   UNL     1     -41.028 -54.040  13.301  1.00  0.00     0.234 C 
BRANCH   5   6
HETATM    6  N   UNL     1     -40.079 -52.944  13.478  1.00  0.00    -0.315 N 
HETATM    7  C   UNL     1     -39.216 -53.005  14.566  1.00  0.00     0.247 A 
HETATM    8  C   UNL     1     -38.278 -51.860  14.714  1.00  0.00     0.075 A 
HETATM    9  O   UNL     1     -39.197 -53.922  15.383  1.00  0.00    -0.268 OA
HETATM   10  C   UNL     1     -38.265 -50.875  13.805  1.00  0.00     0.023 A 
HETATM   11  C   UNL     1     -39.154 -50.901  12.659  1.00  0.00     0.063 A 
HETATM   12  C   UNL     1     -40.026 -51.919  12.544  1.00  0.00     0.110 A 
BRANCH  11  13
HETATM   13  C   UNL     1     -39.071 -49.809  11.629  1.00  0.00     0.418 C 
HETATM   14  F   UNL     1     -39.126 -48.564  12.171  1.00  0.00    -0.166 F 
HETATM   15  F   UNL     1     -40.087 -49.884  10.730  1.00  0.00    -0.166 F 
HETATM   16  F   UNL     1     -37.915 -49.869  10.920  1.00  0.00    -0.166 F 
ENDBRANCH  11  13
ENDBRANCH   5   6
ENDBRANCH   1   5
BRANCH   3  17
HETATM   17  C   UNL     1     -44.803 -53.462  12.868  1.00  0.00     0.170 C 
HETATM   18  C   UNL     1     -44.899 -51.970  13.201  1.00  0.00     0.034 C 
HETATM   19  C   UNL     1     -46.332 -51.451  13.092  1.00  0.00     0.004 C 
HETATM   20  C   UNL     1     -47.173 -51.650  14.347  1.00  0.00     0.015 C 
HETATM   21  C   UNL     1     -46.829 -52.863  15.195  1.00  0.00     0.095 C 
HETATM   22  N   UNL     1     -46.651 -54.102  14.467  1.00  0.00    -0.261 NA
HETATM   23  C   UNL     1     -45.457 -54.432  13.874  1.00  0.00     0.220 C 
HETATM   24  H   UNL     1     -46.984 -54.913  14.977  1.00  0.00     0.130 HD
HETATM   25  O   UNL     1     -45.017 -55.570  14.062  1.00  0.00    -0.278 OA
ENDBRANCH   3  17
TORSDOF 4
ENDMDL
MODEL 9
REMARK VINA RESULT:      -6.1      2.576      3.503
REMARK  4 active torsions:
REMARK  status: ('A' for Active; 'I' for Inactive)
REMARK    1  A    between atoms: C_2  and  C_5 
REMARK    2  A    between atoms: N_10  and  C_11 
REMARK    3  A    between atoms: C_11  and  C_12 
REMARK       I    between atoms: C_12  and  N_14 
REMARK    4  A    between atoms: N_14  and  C_15 
ROOT
HETATM    1  C   UNL     1     -41.882 -50.659  12.645  1.00  0.00     0.236 C 
HETATM    2  O   UNL     1     -41.533 -50.407  13.798  1.00  0.00    -0.272 OA
HETATM    3  N   UNL     1     -42.000 -49.694  11.665  1.00  0.00    -0.347 N 
HETATM    4  H   UNL     1     -41.967 -49.999  10.692  1.00  0.00     0.163 HD
ENDROOT
BRANCH   1   5
HETATM    5  C   UNL     1     -42.190 -52.087  12.197  1.00  0.00     0.234 C 
BRANCH   5   6
HETATM    6  N   UNL     1     -43.186 -52.720  13.056  1.00  0.00    -0.315 N 
HETATM    7  C   UNL     1     -42.875 -53.960  13.601  1.00  0.00     0.247 A 
HETATM    8  C   UNL     1     -43.926 -54.573  14.458  1.00  0.00     0.075 A 
HETATM    9  O   UNL     1     -41.817 -54.554  13.411  1.00  0.00    -0.268 OA
HETATM   10  C   UNL     1     -45.067 -53.914  14.703  1.00  0.00     0.023 A 
HETATM   11  C   UNL     1     -45.305 -52.595  14.149  1.00  0.00     0.063 A 
HETATM   12  C   UNL     1     -44.370 -52.056  13.347  1.00  0.00     0.110 A 
BRANCH  11  13
HETATM   13  C   UNL     1     -46.572 -51.861  14.493  1.00  0.00     0.418 C 
HETATM   14  F   UNL     1     -47.546 -52.681  14.967  1.00  0.00    -0.166 F 
HETATM   15  F   UNL     1     -47.095 -51.224  13.414  1.00  0.00    -0.166 F 
HETATM   16  F   UNL     1     -46.367 -50.916  15.446  1.00  0.00    -0.166 F 
ENDBRANCH  11  13
ENDBRANCH   5   6
ENDBRANCH   1   5
BRANCH   3  17
HETATM   17  C   UNL     1     -41.713 -48.281  11.948  1.00  0.00     0.170 C 
HETATM   18  C   UNL     1     -42.798 -47.397  11.325  1.00  0.00     0.034 C 
HETATM   19  C   UNL     1     -42.739 -45.964  11.852  1.00  0.00     0.004 C 
HETATM   20  C   UNL     1     -41.762 -45.058  11.113  1.00  0.00     0.015 C 
HETATM   21  C   UNL     1     -40.538 -45.739  10.523  1.00  0.00     0.095 C 
HETATM   22  N   UNL     1     -39.853 -46.662  11.402  1.00  0.00    -0.261 NA
HETATM   23  C   UNL     1     -40.257 -47.966  11.546  1.00  0.00     0.220 C 
HETATM   24  H   UNL     1     -38.846 -46.656  11.277  1.00  0.00     0.130 HD
HETATM   25  O   UNL     1     -39.393 -48.846  11.486  1.00  0.00    -0.278 OA
ENDBRANCH   3  17
TORSDOF 4
ENDMDL
