MODEL 1
REMARK VINA RESULT:      -6.7      0.000      0.000
REMARK  10 active torsions:
REMARK  status: ('A' for Active; 'I' for Inactive)
REMARK    1  A    between atoms: N_2  and  C_13 
REMARK    2  A    between atoms: C_6  and  N_7 
REMARK    3  A    between atoms: C_13  and  C_14 
REMARK    4  A    between atoms: C_14  and  C_18 
REMARK    5  A    between atoms: C_14  and  C_21 
REMARK    6  A    between atoms: C_20  and  O_24 
REMARK    7  A    between atoms: C_21  and  O_23 
REMARK    8  A    between atoms: O_24  and  C_31 
REMARK    9  A    between atoms: O_25  and  C_30 
REMARK   10  A    between atoms: C_30  and  C_31 
ROOT
HETATM    1  C   UNL     1     -41.676 -49.744  12.072  1.00  0.00     0.117 A 
HETATM    2  N   UNL     1     -41.992 -51.421  13.443  1.00  0.00    -0.327 N 
HETATM    3  C   UNL     1     -41.026 -50.802  12.688  1.00  0.00     0.140 A 
HETATM    4  N   UNL     1     -43.029 -49.774  12.367  1.00  0.00    -0.346 N 
ATOM      5  HN  UNL     1     -43.754 -49.153  12.010  1.00  0.00     0.167 HD
HETATM    6  C   UNL     1     -40.876 -48.843  11.320  1.00  0.00     0.114 A 
HETATM    7  C   UNL     1     -43.175 -50.777  13.208  1.00  0.00     0.185 A 
HETATM    8  N   UNL     1     -39.721 -51.109  12.614  1.00  0.00    -0.336 N 
ATOM      9  HN  UNL     1     -39.286 -51.910  13.074  1.00  0.00     0.168 HD
HETATM   10  N   UNL     1     -39.546 -49.115  11.229  1.00  0.00    -0.341 N 
ATOM     11  HN  UNL     1     -38.925 -48.499  10.704  1.00  0.00     0.167 HD
HETATM   12  C   UNL     1     -39.063 -50.216  11.849  1.00  0.00     0.183 A 
ENDROOT
BRANCH   6  13
HETATM   13  N   UNL     1     -41.429 -47.714  10.698  1.00  0.00    -0.265 NA
HETATM   14  C   UNL     1     -42.757 -47.896  10.088  1.00  0.00     0.129 C 
HETATM   15  C   UNL     1     -43.090 -46.657   9.210  1.00  0.00     0.135 C 
HETATM   16  C   UNL     1     -42.941 -45.372  10.046  1.00  0.00     0.034 C 
HETATM   17  C   UNL     1     -41.603 -45.298  10.770  1.00  0.00     0.017 C 
HETATM   18  C   UNL     1     -41.348 -46.556  11.591  1.00  0.00     0.097 C 
BRANCH  15  19
HETATM   19  O   UNL     1     -44.423 -46.767   8.674  1.00  0.00    -0.383 OA
BRANCH  19  20
HETATM   20  C   UNL     1     -45.302 -47.504   9.533  1.00  0.00     0.194 C 
BRANCH  20  21
HETATM   21  C   UNL     1     -46.659 -47.725   8.877  1.00  0.00     0.190 C 
BRANCH  21  22
HETATM   22  O   UNL     1     -46.482 -48.443   7.659  1.00  0.00    -0.399 OA
HETATM   23  H   UNL     1     -47.294 -48.327   7.137  1.00  0.00     0.209 HD
ENDBRANCH  21  22
ENDBRANCH  20  21
ENDBRANCH  19  20
ENDBRANCH  15  19
ENDBRANCH   6  13
BRANCH   2  24
HETATM   24  C   UNL     1     -41.743 -52.355  14.521  1.00  0.00     0.138 C 
BRANCH  24  25
HETATM   25  C   UNL     1     -41.959 -53.860  14.230  1.00  0.00     0.034 C 
BRANCH  25  26
HETATM   26  C   UNL     1     -43.413 -54.320  14.539  1.00  0.00     0.019 C 
HETATM   27  C   UNL     1     -44.365 -54.342  13.341  1.00  0.00     0.172 C 
HETATM   28  O   UNL     1     -45.340 -53.323  13.561  1.00  0.00    -0.391 OA
HETATM   29  C   UNL     1     -45.505 -53.208  14.972  1.00  0.00     0.168 C 
HETATM   30  C   UNL     1     -44.141 -53.470  15.574  1.00  0.00     0.033 C 
ENDBRANCH  25  26
BRANCH  25  31
HETATM   31  C   UNL     1     -41.486 -54.088  12.775  1.00  0.00     0.170 C 
BRANCH  31  32
HETATM   32  O   UNL     1     -40.084 -54.212  12.649  1.00  0.00    -0.400 OA
HETATM   33  H   UNL     1     -39.868 -55.131  12.418  1.00  0.00     0.209 HD
ENDBRANCH  31  32
ENDBRANCH  25  31
ENDBRANCH  24  25
ENDBRANCH   2  24
TORSDOF 10
ENDMDL
MODEL 2
REMARK VINA RESULT:      -6.6      1.782      2.311
REMARK  10 active torsions:
REMARK  status: ('A' for Active; 'I' for Inactive)
REMARK    1  A    between atoms: N_2  and  C_13 
REMARK    2  A    between atoms: C_6  and  N_7 
REMARK    3  A    between atoms: C_13  and  C_14 
REMARK    4  A    between atoms: C_14  and  C_18 
REMARK    5  A    between atoms: C_14  and  C_21 
REMARK    6  A    between atoms: C_20  and  O_24 
REMARK    7  A    between atoms: C_21  and  O_23 
REMARK    8  A    between atoms: O_24  and  C_31 
REMARK    9  A    between atoms: O_25  and  C_30 
REMARK   10  A    between atoms: C_30  and  C_31 
ROOT
HETATM    1  C   UNL     1     -40.264 -49.489  12.983  1.00  0.00     0.117 A 
HETATM    2  N   UNL     1     -41.049 -51.280  13.967  1.00  0.00    -0.327 N 
HETATM    3  C   UNL     1     -39.948 -50.801  13.300  1.00  0.00     0.140 A 
HETATM    4  N   UNL     1     -41.565 -49.203  13.361  1.00  0.00    -0.346 N 
ATOM      5  HN  UNL     1     -42.080 -48.338  13.203  1.00  0.00     0.167 HD
HETATM    6  C   UNL     1     -39.240 -48.701  12.394  1.00  0.00     0.114 A 
HETATM    7  C   UNL     1     -41.994 -50.291  13.967  1.00  0.00     0.185 A 
HETATM    8  N   UNL     1     -38.790 -51.438  13.066  1.00  0.00    -0.336 N 
ATOM      9  HN  UNL     1     -38.605 -52.413  13.305  1.00  0.00     0.168 HD
HETATM   10  N   UNL     1     -38.047 -49.308  12.149  1.00  0.00    -0.341 N 
ATOM     11  HN  UNL     1     -37.276 -48.789  11.731  1.00  0.00     0.167 HD
HETATM   12  C   UNL     1     -37.903 -50.614  12.473  1.00  0.00     0.183 A 
ENDROOT
BRANCH   6  13
HETATM   13  N   UNL     1     -39.442 -47.349  12.080  1.00  0.00    -0.265 NA
HETATM   14  C   UNL     1     -40.558 -47.057  11.164  1.00  0.00     0.129 C 
HETATM   15  C   UNL     1     -40.465 -45.576  10.701  1.00  0.00     0.135 C 
HETATM   16  C   UNL     1     -40.388 -44.651  11.929  1.00  0.00     0.034 C 
HETATM   17  C   UNL     1     -39.308 -45.079  12.916  1.00  0.00     0.017 C 
HETATM   18  C   UNL     1     -39.462 -46.545  13.303  1.00  0.00     0.097 C 
BRANCH  15  19
HETATM   19  O   UNL     1     -41.597 -45.238   9.876  1.00  0.00    -0.383 OA
BRANCH  19  20
HETATM   20  C   UNL     1     -42.622 -46.239   9.910  1.00  0.00     0.194 C 
BRANCH  20  21
HETATM   21  C   UNL     1     -43.785 -45.871   8.998  1.00  0.00     0.190 C 
BRANCH  21  22
HETATM   22  O   UNL     1     -44.168 -44.521   9.246  1.00  0.00    -0.399 OA
HETATM   23  H   UNL     1     -43.354 -43.989   9.255  1.00  0.00     0.209 HD
ENDBRANCH  21  22
ENDBRANCH  20  21
ENDBRANCH  19  20
ENDBRANCH  15  19
ENDBRANCH   6  13
BRANCH   2  24
HETATM   24  C   UNL     1     -41.079 -52.471  14.790  1.00  0.00     0.138 C 
BRANCH  24  25
HETATM   25  C   UNL     1     -41.853 -53.697  14.249  1.00  0.00     0.034 C 
BRANCH  25  26
HETATM   26  C   UNL     1     -43.386 -53.441  14.170  1.00  0.00     0.019 C 
HETATM   27  C   UNL     1     -44.186 -53.847  15.410  1.00  0.00     0.172 C 
HETATM   28  O   UNL     1     -45.015 -54.947  15.033  1.00  0.00    -0.391 OA
HETATM   29  C   UNL     1     -45.321 -54.778  13.651  1.00  0.00     0.168 C 
HETATM   30  C   UNL     1     -44.090 -54.158  13.024  1.00  0.00     0.033 C 
ENDBRANCH  25  26
BRANCH  25  31
HETATM   31  C   UNL     1     -41.174 -54.078  12.912  1.00  0.00     0.170 C 
BRANCH  31  32
HETATM   32  O   UNL     1     -39.788 -54.324  13.032  1.00  0.00    -0.400 OA
HETATM   33  H   UNL     1     -39.444 -54.618  12.172  1.00  0.00     0.209 HD
ENDBRANCH  31  32
ENDBRANCH  25  31
ENDBRANCH  24  25
ENDBRANCH   2  24
TORSDOF 10
ENDMDL
MODEL 3
REMARK VINA RESULT:      -6.5      2.106      2.995
REMARK  10 active torsions:
REMARK  status: ('A' for Active; 'I' for Inactive)
REMARK    1  A    between atoms: N_2  and  C_13 
REMARK    2  A    between atoms: C_6  and  N_7 
REMARK    3  A    between atoms: C_13  and  C_14 
REMARK    4  A    between atoms: C_14  and  C_18 
REMARK    5  A    between atoms: C_14  and  C_21 
REMARK    6  A    between atoms: C_20  and  O_24 
REMARK    7  A    between atoms: C_21  and  O_23 
REMARK    8  A    between atoms: O_24  and  C_31 
REMARK    9  A    between atoms: O_25  and  C_30 
REMARK   10  A    between atoms: C_30  and  C_31 
ROOT
HETATM    1  C   UNL     1     -42.268 -50.120  13.067  1.00  0.00     0.117 A 
HETATM    2  N   UNL     1     -43.352 -51.392  14.481  1.00  0.00    -0.327 N 
HETATM    3  C   UNL     1     -42.567 -51.442  13.356  1.00  0.00     0.140 A 
HETATM    4  N   UNL     1     -42.936 -49.275  13.939  1.00  0.00    -0.346 N 
ATOM      5  HN  UNL     1     -42.946 -48.256  13.928  1.00  0.00     0.167 HD
HETATM    6  C   UNL     1     -41.349 -49.879  12.012  1.00  0.00     0.114 A 
HETATM    7  C   UNL     1     -43.555 -50.073  14.784  1.00  0.00     0.185 A 
HETATM    8  N   UNL     1     -42.124 -52.535  12.713  1.00  0.00    -0.336 N 
ATOM      9  HN  UNL     1     -42.383 -53.493  12.952  1.00  0.00     0.168 HD
HETATM   10  N   UNL     1     -40.870 -50.962  11.342  1.00  0.00    -0.341 N 
ATOM     11  HN  UNL     1     -40.205 -50.848  10.577  1.00  0.00     0.167 HD
HETATM   12  C   UNL     1     -41.292 -52.194  11.709  1.00  0.00     0.183 A 
ENDROOT
BRANCH   6  13
HETATM   13  N   UNL     1     -40.944 -48.580  11.673  1.00  0.00    -0.265 NA
HETATM   14  C   UNL     1     -41.939 -47.753  10.971  1.00  0.00     0.129 C 
HETATM   15  C   UNL     1     -41.247 -46.474  10.423  1.00  0.00     0.135 C 
HETATM   16  C   UNL     1     -40.509 -45.753  11.566  1.00  0.00     0.034 C 
HETATM   17  C   UNL     1     -39.595 -46.685  12.351  1.00  0.00     0.017 C 
HETATM   18  C   UNL     1     -40.347 -47.919  12.834  1.00  0.00     0.097 C 
BRANCH  15  19
HETATM   19  O   UNL     1     -42.218 -45.603   9.811  1.00  0.00    -0.383 OA
BRANCH  19  20
HETATM   20  C   UNL     1     -43.171 -46.315   9.014  1.00  0.00     0.194 C 
BRANCH  20  21
HETATM   21  C   UNL     1     -44.498 -45.570   8.940  1.00  0.00     0.190 C 
BRANCH  21  22
HETATM   22  O   UNL     1     -44.315 -44.237   9.411  1.00  0.00    -0.399 OA
HETATM   23  H   UNL     1     -44.246 -43.664   8.628  1.00  0.00     0.209 HD
ENDBRANCH  21  22
ENDBRANCH  20  21
ENDBRANCH  19  20
ENDBRANCH  15  19
ENDBRANCH   6  13
BRANCH   2  24
HETATM   24  C   UNL     1     -43.634 -52.508  15.359  1.00  0.00     0.138 C 
BRANCH  24  25
HETATM   25  C   UNL     1     -45.102 -52.719  15.802  1.00  0.00     0.034 C 
BRANCH  25  26
HETATM   26  C   UNL     1     -46.030 -53.101  14.614  1.00  0.00     0.019 C 
HETATM   27  C   UNL     1     -45.412 -54.034  13.570  1.00  0.00     0.172 C 
HETATM   28  O   UNL     1     -45.274 -53.283  12.364  1.00  0.00    -0.391 OA
HETATM   29  C   UNL     1     -46.327 -52.322  12.354  1.00  0.00     0.168 C 
HETATM   30  C   UNL     1     -46.536 -51.917  13.798  1.00  0.00     0.033 C 
ENDBRANCH  25  26
BRANCH  25  31
HETATM   31  C   UNL     1     -45.057 -53.740  16.963  1.00  0.00     0.170 C 
BRANCH  31  32
HETATM   32  O   UNL     1     -46.207 -54.556  17.043  1.00  0.00    -0.400 OA
HETATM   33  H   UNL     1     -46.758 -54.403  16.258  1.00  0.00     0.209 HD
ENDBRANCH  31  32
ENDBRANCH  25  31
ENDBRANCH  24  25
ENDBRANCH   2  24
TORSDOF 10
ENDMDL
MODEL 4
REMARK VINA RESULT:      -6.5      1.812      6.793
REMARK  10 active torsions:
REMARK  status: ('A' for Active; 'I' for Inactive)
REMARK    1  A    between atoms: N_2  and  C_13 
REMARK    2  A    between atoms: C_6  and  N_7 
REMARK    3  A    between atoms: C_13  and  C_14 
REMARK    4  A    between atoms: C_14  and  C_18 
REMARK    5  A    between atoms: C_14  and  C_21 
REMARK    6  A    between atoms: C_20  and  O_24 
REMARK    7  A    between atoms: C_21  and  O_23 
REMARK    8  A    between atoms: O_24  and  C_31 
REMARK    9  A    between atoms: O_25  and  C_30 
REMARK   10  A    between atoms: C_30  and  C_31 
ROOT
HETATM    1  C   UNL     1     -40.917 -49.728  13.343  1.00  0.00     0.117 A 
HETATM    2  N   UNL     1     -40.621 -47.578  13.051  1.00  0.00    -0.327 N 
HETATM    3  C   UNL     1     -40.087 -48.802  12.730  1.00  0.00     0.140 A 
HETATM    4  N   UNL     1     -41.880 -49.081  14.101  1.00  0.00    -0.346 N 
ATOM      5  HN  UNL     1     -42.586 -49.508  14.700  1.00  0.00     0.167 HD
HETATM    6  C   UNL     1     -40.672 -51.099  13.069  1.00  0.00     0.114 A 
HETATM    7  C   UNL     1     -41.685 -47.797  13.883  1.00  0.00     0.185 A 
HETATM    8  N   UNL     1     -39.032 -49.055  11.939  1.00  0.00    -0.336 N 
ATOM      9  HN  UNL     1     -38.437 -48.340  11.520  1.00  0.00     0.168 HD
HETATM   10  N   UNL     1     -39.617 -51.396  12.263  1.00  0.00    -0.341 N 
ATOM     11  HN  UNL     1     -39.396 -52.364  12.030  1.00  0.00     0.167 HD
HETATM   12  C   UNL     1     -38.865 -50.382  11.775  1.00  0.00     0.183 A 
ENDROOT
BRANCH   6  13
HETATM   13  N   UNL     1     -41.484 -52.111  13.601  1.00  0.00    -0.265 NA
HETATM   14  C   UNL     1     -42.738 -52.381  12.877  1.00  0.00     0.129 C 
HETATM   15  C   UNL     1     -43.638 -53.308  13.742  1.00  0.00     0.135 C 
HETATM   16  C   UNL     1     -42.850 -54.567  14.146  1.00  0.00     0.034 C 
HETATM   17  C   UNL     1     -41.498 -54.236  14.765  1.00  0.00     0.017 C 
HETATM   18  C   UNL     1     -40.689 -53.312  13.863  1.00  0.00     0.097 C 
BRANCH  15  19
HETATM   19  O   UNL     1     -44.833 -53.662  13.018  1.00  0.00    -0.383 OA
BRANCH  19  20
HETATM   20  C   UNL     1     -46.001 -53.010  13.531  1.00  0.00     0.194 C 
BRANCH  20  21
HETATM   21  C   UNL     1     -46.467 -51.898  12.601  1.00  0.00     0.190 C 
BRANCH  21  22
HETATM   22  O   UNL     1     -46.786 -52.452  11.327  1.00  0.00    -0.399 OA
HETATM   23  H   UNL     1     -47.185 -51.741  10.797  1.00  0.00     0.209 HD
ENDBRANCH  21  22
ENDBRANCH  20  21
ENDBRANCH  19  20
ENDBRANCH  15  19
ENDBRANCH   6  13
BRANCH   2  24
HETATM   24  C   UNL     1     -40.322 -46.331  12.380  1.00  0.00     0.138 C 
BRANCH  24  25
HETATM   25  C   UNL     1     -40.741 -46.195  10.896  1.00  0.00     0.034 C 
BRANCH  25  26
HETATM   26  C   UNL     1     -42.247 -46.517  10.676  1.00  0.00     0.019 C 
HETATM   27  C   UNL     1     -42.543 -47.871  10.026  1.00  0.00     0.172 C 
HETATM   28  O   UNL     1     -43.086 -47.606   8.732  1.00  0.00    -0.391 OA
HETATM   29  C   UNL     1     -43.777 -46.362   8.822  1.00  0.00     0.168 C 
HETATM   30  C   UNL     1     -42.988 -45.515   9.797  1.00  0.00     0.033 C 
ENDBRANCH  25  26
BRANCH  25  31
HETATM   31  C   UNL     1     -40.292 -44.784  10.451  1.00  0.00     0.170 C 
BRANCH  31  32
HETATM   32  O   UNL     1     -39.548 -44.780   9.250  1.00  0.00    -0.400 OA
HETATM   33  H   UNL     1     -39.759 -45.583   8.745  1.00  0.00     0.209 HD
ENDBRANCH  31  32
ENDBRANCH  25  31
ENDBRANCH  24  25
ENDBRANCH   2  24
TORSDOF 10
ENDMDL
MODEL 5
REMARK VINA RESULT:      -6.4      1.811      7.688
REMARK  10 active torsions:
REMARK  status: ('A' for Active; 'I' for Inactive)
REMARK    1  A    between atoms: N_2  and  C_13 
REMARK    2  A    between atoms: C_6  and  N_7 
REMARK    3  A    between atoms: C_13  and  C_14 
REMARK    4  A    between atoms: C_14  and  C_18 
REMARK    5  A    between atoms: C_14  and  C_21 
REMARK    6  A    between atoms: C_20  and  O_24 
REMARK    7  A    between atoms: C_21  and  O_23 
REMARK    8  A    between atoms: O_24  and  C_31 
REMARK    9  A    between atoms: O_25  and  C_30 
REMARK   10  A    between atoms: C_30  and  C_31 
ROOT
HETATM    1  C   UNL     1     -41.783 -50.210  12.429  1.00  0.00     0.117 A 
HETATM    2  N   UNL     1     -42.414 -48.482  11.242  1.00  0.00    -0.327 N 
HETATM    3  C   UNL     1     -41.333 -49.291  11.494  1.00  0.00     0.140 A 
HETATM    4  N   UNL     1     -43.081 -49.910  12.812  1.00  0.00    -0.346 N 
ATOM      5  HN  UNL     1     -43.642 -50.381  13.520  1.00  0.00     0.167 HD
HETATM    6  C   UNL     1     -40.898 -51.263  12.781  1.00  0.00     0.114 A 
HETATM    7  C   UNL     1     -43.431 -48.884  12.064  1.00  0.00     0.185 A 
HETATM    8  N   UNL     1     -40.123 -49.249  10.913  1.00  0.00    -0.336 N 
ATOM      9  HN  UNL     1     -39.829 -48.543  10.239  1.00  0.00     0.168 HD
HETATM   10  N   UNL     1     -39.665 -51.261  12.205  1.00  0.00    -0.341 N 
ATOM     11  HN  UNL     1     -38.990 -51.995  12.419  1.00  0.00     0.167 HD
HETATM   12  C   UNL     1     -39.351 -50.267  11.343  1.00  0.00     0.183 A 
ENDROOT
BRANCH   6  13
HETATM   13  N   UNL     1     -41.276 -52.271  13.680  1.00  0.00    -0.265 NA
HETATM   14  C   UNL     1     -42.386 -53.138  13.251  1.00  0.00     0.129 C 
HETATM   15  C   UNL     1     -42.859 -53.996  14.458  1.00  0.00     0.135 C 
HETATM   16  C   UNL     1     -41.661 -54.747  15.064  1.00  0.00     0.034 C 
HETATM   17  C   UNL     1     -40.484 -53.826  15.361  1.00  0.00     0.017 C 
HETATM   18  C   UNL     1     -40.097 -53.010  14.134  1.00  0.00     0.097 C 
BRANCH  15  19
HETATM   19  O   UNL     1     -43.885 -54.920  14.042  1.00  0.00    -0.383 OA
BRANCH  19  20
HETATM   20  C   UNL     1     -45.049 -54.258  13.533  1.00  0.00     0.194 C 
BRANCH  20  21
HETATM   21  C   UNL     1     -46.150 -54.189  14.583  1.00  0.00     0.190 C 
BRANCH  21  22
HETATM   22  O   UNL     1     -46.937 -55.377  14.518  1.00  0.00    -0.399 OA
HETATM   23  H   UNL     1     -47.267 -55.452  13.607  1.00  0.00     0.209 HD
ENDBRANCH  21  22
ENDBRANCH  20  21
ENDBRANCH  19  20
ENDBRANCH  15  19
ENDBRANCH   6  13
BRANCH   2  24
HETATM   24  C   UNL     1     -42.552 -47.598  10.104  1.00  0.00     0.138 C 
BRANCH  24  25
HETATM   25  C   UNL     1     -43.145 -46.191  10.357  1.00  0.00     0.034 C 
BRANCH  25  26
HETATM   26  C   UNL     1     -42.194 -45.292  11.200  1.00  0.00     0.019 C 
HETATM   27  C   UNL     1     -42.486 -43.790  11.142  1.00  0.00     0.172 C 
HETATM   28  O   UNL     1     -41.391 -43.176  10.461  1.00  0.00    -0.391 OA
HETATM   29  C   UNL     1     -40.237 -43.966  10.739  1.00  0.00     0.168 C 
HETATM   30  C   UNL     1     -40.721 -45.398  10.823  1.00  0.00     0.033 C 
ENDBRANCH  25  26
BRANCH  25  31
HETATM   31  C   UNL     1     -43.529 -45.631   8.968  1.00  0.00     0.170 C 
BRANCH  31  32
HETATM   32  O   UNL     1     -42.668 -46.052   7.930  1.00  0.00    -0.400 OA
HETATM   33  H   UNL     1     -42.678 -45.388   7.221  1.00  0.00     0.209 HD
ENDBRANCH  31  32
ENDBRANCH  25  31
ENDBRANCH  24  25
ENDBRANCH   2  24
TORSDOF 10
ENDMDL
MODEL 6
REMARK VINA RESULT:      -6.4      1.669      2.109
REMARK  10 active torsions:
REMARK  status: ('A' for Active; 'I' for Inactive)
REMARK    1  A    between atoms: N_2  and  C_13 
REMARK    2  A    between atoms: C_6  and  N_7 
REMARK    3  A    between atoms: C_13  and  C_14 
REMARK    4  A    between atoms: C_14  and  C_18 
REMARK    5  A    between atoms: C_14  and  C_21 
REMARK    6  A    between atoms: C_20  and  O_24 
REMARK    7  A    between atoms: C_21  and  O_23 
REMARK    8  A    between atoms: O_24  and  C_31 
REMARK    9  A    between atoms: O_25  and  C_30 
REMARK   10  A    between atoms: C_30  and  C_31 
ROOT
HETATM    1  C   UNL     1     -40.853 -50.037  11.835  1.00  0.00     0.117 A 
HETATM    2  N   UNL     1     -41.080 -52.172  12.261  1.00  0.00    -0.327 N 
HETATM    3  C   UNL     1     -40.135 -51.212  11.994  1.00  0.00     0.140 A 
HETATM    4  N   UNL     1     -42.213 -50.292  11.907  1.00  0.00    -0.346 N 
ATOM      5  HN  UNL     1     -42.976 -49.628  11.773  1.00  0.00     0.167 HD
HETATM    6  C   UNL     1     -40.108 -48.839  11.674  1.00  0.00     0.114 A 
HETATM    7  C   UNL     1     -42.308 -51.575  12.186  1.00  0.00     0.185 A 
HETATM    8  N   UNL     1     -38.801 -51.360  11.961  1.00  0.00    -0.336 N 
ATOM      9  HN  UNL     1     -38.314 -52.250  12.068  1.00  0.00     0.168 HD
HETATM   10  N   UNL     1     -38.752 -48.946  11.646  1.00  0.00    -0.341 N 
ATOM     11  HN  UNL     1     -38.167 -48.118  11.536  1.00  0.00     0.167 HD
HETATM   12  C   UNL     1     -38.193 -50.172  11.767  1.00  0.00     0.183 A 
ENDROOT
BRANCH   6  13
HETATM   13  N   UNL     1     -40.739 -47.592  11.555  1.00  0.00    -0.265 NA
HETATM   14  C   UNL     1     -41.629 -47.425  10.394  1.00  0.00     0.129 C 
HETATM   15  C   UNL     1     -42.011 -45.924  10.255  1.00  0.00     0.135 C 
HETATM   16  C   UNL     1     -42.592 -45.410  11.585  1.00  0.00     0.034 C 
HETATM   17  C   UNL     1     -41.698 -45.732  12.776  1.00  0.00     0.017 C 
HETATM   18  C   UNL     1     -41.358 -47.216  12.827  1.00  0.00     0.097 C 
BRANCH  15  19
HETATM   19  O   UNL     1     -42.956 -45.746   9.181  1.00  0.00    -0.383 OA
BRANCH  19  20
HETATM   20  C   UNL     1     -43.517 -46.985   8.731  1.00  0.00     0.194 C 
BRANCH  20  21
HETATM   21  C   UNL     1     -45.012 -47.051   9.017  1.00  0.00     0.190 C 
BRANCH  21  22
HETATM   22  O   UNL     1     -45.585 -45.760   8.827  1.00  0.00    -0.399 OA
HETATM   23  H   UNL     1     -46.540 -45.887   8.694  1.00  0.00     0.209 HD
ENDBRANCH  21  22
ENDBRANCH  20  21
ENDBRANCH  19  20
ENDBRANCH  15  19
ENDBRANCH   6  13
BRANCH   2  24
HETATM   24  C   UNL     1     -40.812 -53.476  12.832  1.00  0.00     0.138 C 
BRANCH  24  25
HETATM   25  C   UNL     1     -40.628 -53.564  14.366  1.00  0.00     0.034 C 
BRANCH  25  26
HETATM   26  C   UNL     1     -41.685 -54.488  15.036  1.00  0.00     0.019 C 
HETATM   27  C   UNL     1     -42.965 -53.793  15.506  1.00  0.00     0.172 C 
HETATM   28  O   UNL     1     -42.974 -53.849  16.932  1.00  0.00    -0.391 OA
HETATM   29  C   UNL     1     -42.285 -55.041  17.302  1.00  0.00     0.168 C 
HETATM   30  C   UNL     1     -41.188 -55.225  16.275  1.00  0.00     0.033 C 
ENDBRANCH  25  26
BRANCH  25  31
HETATM   31  C   UNL     1     -39.153 -53.965  14.599  1.00  0.00     0.170 C 
BRANCH  31  32
HETATM   32  O   UNL     1     -38.437 -54.203  13.405  1.00  0.00    -0.400 OA
HETATM   33  H   UNL     1     -38.868 -54.924  12.916  1.00  0.00     0.209 HD
ENDBRANCH  31  32
ENDBRANCH  25  31
ENDBRANCH  24  25
ENDBRANCH   2  24
TORSDOF 10
ENDMDL
MODEL 7
REMARK VINA RESULT:      -6.3      2.962      8.143
REMARK  10 active torsions:
REMARK  status: ('A' for Active; 'I' for Inactive)
REMARK    1  A    between atoms: N_2  and  C_13 
REMARK    2  A    between atoms: C_6  and  N_7 
REMARK    3  A    between atoms: C_13  and  C_14 
REMARK    4  A    between atoms: C_14  and  C_18 
REMARK    5  A    between atoms: C_14  and  C_21 
REMARK    6  A    between atoms: C_20  and  O_24 
REMARK    7  A    between atoms: C_21  and  O_23 
REMARK    8  A    between atoms: O_24  and  C_31 
REMARK    9  A    between atoms: O_25  and  C_30 
REMARK   10  A    between atoms: C_30  and  C_31 
ROOT
HETATM    1  C   UNL     1     -40.919 -47.174  11.630  1.00  0.00     0.117 A 
HETATM    2  N   UNL     1     -40.732 -45.010  11.359  1.00  0.00    -0.327 N 
HETATM    3  C   UNL     1     -41.328 -46.125  10.822  1.00  0.00     0.140 A 
HETATM    4  N   UNL     1     -40.017 -46.725  12.580  1.00  0.00    -0.346 N 
ATOM      5  HN  UNL     1     -39.514 -47.283  13.270  1.00  0.00     0.167 HD
HETATM    6  C   UNL     1     -41.496 -48.447  11.380  1.00  0.00     0.114 A 
HETATM    7  C   UNL     1     -39.948 -45.422  12.401  1.00  0.00     0.185 A 
HETATM    8  N   UNL     1     -42.177 -46.181   9.783  1.00  0.00    -0.336 N 
ATOM      9  HN  UNL     1     -42.439 -45.383   9.204  1.00  0.00     0.168 HD
HETATM   10  N   UNL     1     -42.370 -48.544  10.341  1.00  0.00    -0.341 N 
ATOM     11  HN  UNL     1     -42.817 -49.433  10.118  1.00  0.00     0.167 HD
HETATM   12  C   UNL     1     -42.636 -47.437   9.610  1.00  0.00     0.183 A 
ENDROOT
BRANCH   6  13
HETATM   13  N   UNL     1     -41.187 -49.563  12.172  1.00  0.00    -0.265 NA
HETATM   14  C   UNL     1     -42.313 -50.448  12.512  1.00  0.00     0.129 C 
HETATM   15  C   UNL     1     -41.861 -51.451  13.609  1.00  0.00     0.135 C 
HETATM   16  C   UNL     1     -40.589 -52.186  13.150  1.00  0.00     0.034 C 
HETATM   17  C   UNL     1     -39.502 -51.229  12.676  1.00  0.00     0.017 C 
HETATM   18  C   UNL     1     -40.032 -50.271  11.617  1.00  0.00     0.097 C 
BRANCH  15  19
HETATM   19  O   UNL     1     -42.918 -52.389  13.895  1.00  0.00    -0.383 OA
BRANCH  19  20
HETATM   20  C   UNL     1     -44.159 -52.024  13.280  1.00  0.00     0.194 C 
BRANCH  20  21
HETATM   21  C   UNL     1     -44.935 -53.254  12.827  1.00  0.00     0.190 C 
BRANCH  21  22
HETATM   22  O   UNL     1     -44.067 -54.114  12.093  1.00  0.00    -0.399 OA
HETATM   23  H   UNL     1     -44.605 -54.856  11.769  1.00  0.00     0.209 HD
ENDBRANCH  21  22
ENDBRANCH  20  21
ENDBRANCH  19  20
ENDBRANCH  15  19
ENDBRANCH   6  13
BRANCH   2  24
HETATM   24  C   UNL     1     -41.115 -43.641  11.085  1.00  0.00     0.138 C 
BRANCH  24  25
HETATM   25  C   UNL     1     -42.282 -43.044  11.908  1.00  0.00     0.034 C 
BRANCH  25  26
HETATM   26  C   UNL     1     -41.802 -41.954  12.909  1.00  0.00     0.019 C 
HETATM   27  C   UNL     1     -40.312 -41.610  12.845  1.00  0.00     0.172 C 
HETATM   28  O   UNL     1     -39.725 -42.057  14.067  1.00  0.00    -0.391 OA
HETATM   29  C   UNL     1     -40.735 -41.962  15.069  1.00  0.00     0.168 C 
HETATM   30  C   UNL     1     -42.041 -42.291  14.377  1.00  0.00     0.033 C 
ENDBRANCH  25  26
BRANCH  25  31
HETATM   31  C   UNL     1     -43.339 -42.580  10.879  1.00  0.00     0.170 C 
BRANCH  31  32
HETATM   32  O   UNL     1     -43.739 -43.596   9.983  1.00  0.00    -0.400 OA
HETATM   33  H   UNL     1     -43.592 -44.461  10.399  1.00  0.00     0.209 HD
ENDBRANCH  31  32
ENDBRANCH  25  31
ENDBRANCH  24  25
ENDBRANCH   2  24
TORSDOF 10
ENDMDL
MODEL 8
REMARK VINA RESULT:      -6.3      2.674      7.382
REMARK  10 active torsions:
REMARK  status: ('A' for Active; 'I' for Inactive)
REMARK    1  A    between atoms: N_2  and  C_13 
REMARK    2  A    between atoms: C_6  and  N_7 
REMARK    3  A    between atoms: C_13  and  C_14 
REMARK    4  A    between atoms: C_14  and  C_18 
REMARK    5  A    between atoms: C_14  and  C_21 
REMARK    6  A    between atoms: C_20  and  O_24 
REMARK    7  A    between atoms: C_21  and  O_23 
REMARK    8  A    between atoms: O_24  and  C_31 
REMARK    9  A    between atoms: O_25  and  C_30 
REMARK   10  A    between atoms: C_30  and  C_31 
ROOT
HETATM    1  C   UNL     1     -40.598 -49.458  13.198  1.00  0.00     0.117 A 
HETATM    2  N   UNL     1     -40.307 -47.288  13.187  1.00  0.00    -0.327 N 
HETATM    3  C   UNL     1     -39.833 -48.451  12.631  1.00  0.00     0.140 A 
HETATM    4  N   UNL     1     -41.454 -48.931  14.151  1.00  0.00    -0.346 N 
ATOM      5  HN  UNL     1     -42.092 -49.442  14.761  1.00  0.00     0.167 HD
HETATM    6  C   UNL     1     -40.408 -50.774  12.700  1.00  0.00     0.114 A 
HETATM    7  C   UNL     1     -41.267 -47.629  14.099  1.00  0.00     0.185 A 
HETATM    8  N   UNL     1     -38.883 -48.583  11.691  1.00  0.00    -0.336 N 
ATOM      9  HN  UNL     1     -38.332 -47.813  11.311  1.00  0.00     0.168 HD
HETATM   10  N   UNL     1     -39.461 -50.947  11.739  1.00  0.00    -0.341 N 
ATOM     11  HN  UNL     1     -39.284 -51.871  11.344  1.00  0.00     0.167 HD
HETATM   12  C   UNL     1     -38.757 -49.872  11.317  1.00  0.00     0.183 A 
ENDROOT
BRANCH   6  13
HETATM   13  N   UNL     1     -41.167 -51.855  13.172  1.00  0.00    -0.265 NA
HETATM   14  C   UNL     1     -42.435 -52.112  12.468  1.00  0.00     0.129 C 
HETATM   15  C   UNL     1     -43.272 -53.137  13.282  1.00  0.00     0.135 C 
HETATM   16  C   UNL     1     -42.429 -54.395  13.559  1.00  0.00     0.034 C 
HETATM   17  C   UNL     1     -41.068 -54.065  14.160  1.00  0.00     0.017 C 
HETATM   18  C   UNL     1     -40.323 -53.042  13.312  1.00  0.00     0.097 C 
BRANCH  15  19
HETATM   19  O   UNL     1     -44.478 -53.477  12.569  1.00  0.00    -0.383 OA
BRANCH  19  20
HETATM   20  C   UNL     1     -45.663 -53.161  13.309  1.00  0.00     0.194 C 
BRANCH  20  21
HETATM   21  C   UNL     1     -46.469 -52.066  12.622  1.00  0.00     0.190 C 
BRANCH  21  22
HETATM   22  O   UNL     1     -46.791 -52.480  11.296  1.00  0.00    -0.399 OA
HETATM   23  H   UNL     1     -46.080 -52.158  10.716  1.00  0.00     0.209 HD
ENDBRANCH  21  22
ENDBRANCH  20  21
ENDBRANCH  19  20
ENDBRANCH  15  19
ENDBRANCH   6  13
BRANCH   2  24
HETATM   24  C   UNL     1     -40.070 -45.955  12.673  1.00  0.00     0.138 C 
BRANCH  24  25
HETATM   25  C   UNL     1     -41.229 -45.261  11.918  1.00  0.00     0.034 C 
BRANCH  25  26
HETATM   26  C   UNL     1     -41.368 -43.759  12.298  1.00  0.00     0.019 C 
HETATM   27  C   UNL     1     -42.779 -43.303  12.677  1.00  0.00     0.172 C 
HETATM   28  O   UNL     1     -43.219 -42.407  11.656  1.00  0.00    -0.391 OA
HETATM   29  C   UNL     1     -42.055 -41.758  11.148  1.00  0.00     0.168 C 
HETATM   30  C   UNL     1     -40.946 -42.786  11.204  1.00  0.00     0.033 C 
ENDBRANCH  25  26
BRANCH  25  31
HETATM   31  C   UNL     1     -40.994 -45.546  10.416  1.00  0.00     0.170 C 
BRANCH  31  32
HETATM   32  O   UNL     1     -39.674 -45.954  10.118  1.00  0.00    -0.400 OA
HETATM   33  H   UNL     1     -39.256 -46.289  10.928  1.00  0.00     0.209 HD
ENDBRANCH  31  32
ENDBRANCH  25  31
ENDBRANCH  24  25
ENDBRANCH   2  24
TORSDOF 10
ENDMDL
MODEL 9
REMARK VINA RESULT:      -6.2      2.395      3.558
REMARK  10 active torsions:
REMARK  status: ('A' for Active; 'I' for Inactive)
REMARK    1  A    between atoms: N_2  and  C_13 
REMARK    2  A    between atoms: C_6  and  N_7 
REMARK    3  A    between atoms: C_13  and  C_14 
REMARK    4  A    between atoms: C_14  and  C_18 
REMARK    5  A    between atoms: C_14  and  C_21 
REMARK    6  A    between atoms: C_20  and  O_24 
REMARK    7  A    between atoms: C_21  and  O_23 
REMARK    8  A    between atoms: O_24  and  C_31 
REMARK    9  A    between atoms: O_25  and  C_30 
REMARK   10  A    between atoms: C_30  and  C_31 
ROOT
HETATM    1  C   UNL     1     -41.288 -50.039  11.900  1.00  0.00     0.117 A 
HETATM    2  N   UNL     1     -41.207 -52.171  12.390  1.00  0.00    -0.327 N 
HETATM    3  C   UNL     1     -40.414 -51.105  12.043  1.00  0.00     0.140 A 
HETATM    4  N   UNL     1     -42.596 -50.465  12.062  1.00  0.00    -0.346 N 
ATOM      5  HN  UNL     1     -43.445 -49.911  11.959  1.00  0.00     0.167 HD
HETATM    6  C   UNL     1     -40.716 -48.760  11.666  1.00  0.00     0.114 A 
HETATM    7  C   UNL     1     -42.506 -51.741  12.377  1.00  0.00     0.185 A 
HETATM    8  N   UNL     1     -39.076 -51.081  11.932  1.00  0.00    -0.336 N 
ATOM      9  HN  UNL     1     -38.471 -51.896  12.030  1.00  0.00     0.168 HD
HETATM   10  N   UNL     1     -39.362 -48.692  11.557  1.00  0.00    -0.341 N 
ATOM     11  HN  UNL     1     -38.898 -47.799  11.392  1.00  0.00     0.167 HD
HETATM   12  C   UNL     1     -38.641 -49.831  11.673  1.00  0.00     0.183 A 
ENDROOT
BRANCH   6  13
HETATM   13  N   UNL     1     -41.511 -47.610  11.556  1.00  0.00    -0.265 NA
HETATM   14  C   UNL     1     -41.004 -46.406  12.235  1.00  0.00     0.129 C 
HETATM   15  C   UNL     1     -42.120 -45.324  12.259  1.00  0.00     0.135 C 
HETATM   16  C   UNL     1     -42.639 -45.080  10.831  1.00  0.00     0.034 C 
HETATM   17  C   UNL     1     -43.020 -46.373  10.120  1.00  0.00     0.017 C 
HETATM   18  C   UNL     1     -41.880 -47.382  10.158  1.00  0.00     0.097 C 
BRANCH  15  19
HETATM   19  O   UNL     1     -41.619 -44.102  12.838  1.00  0.00    -0.383 OA
BRANCH  19  20
HETATM   20  C   UNL     1     -41.063 -43.217  11.858  1.00  0.00     0.194 C 
BRANCH  20  21
HETATM   21  C   UNL     1     -40.041 -42.275  12.480  1.00  0.00     0.190 C 
BRANCH  21  22
HETATM   22  O   UNL     1     -39.081 -43.037  13.207  1.00  0.00    -0.399 OA
HETATM   23  H   UNL     1     -38.213 -42.861  12.806  1.00  0.00     0.209 HD
ENDBRANCH  21  22
ENDBRANCH  20  21
ENDBRANCH  19  20
ENDBRANCH  15  19
ENDBRANCH   6  13
BRANCH   2  24
HETATM   24  C   UNL     1     -40.739 -53.410  12.974  1.00  0.00     0.138 C 
BRANCH  24  25
HETATM   25  C   UNL     1     -40.353 -53.397  14.473  1.00  0.00     0.034 C 
BRANCH  25  26
HETATM   26  C   UNL     1     -41.524 -53.856  15.388  1.00  0.00     0.019 C 
HETATM   27  C   UNL     1     -42.563 -54.763  14.724  1.00  0.00     0.172 C 
HETATM   28  O   UNL     1     -43.781 -54.021  14.651  1.00  0.00    -0.391 OA
HETATM   29  C   UNL     1     -43.790 -53.131  15.764  1.00  0.00     0.168 C 
HETATM   30  C   UNL     1     -42.349 -52.720  15.981  1.00  0.00     0.033 C 
ENDBRANCH  25  26
BRANCH  25  31
HETATM   31  C   UNL     1     -39.055 -54.229  14.589  1.00  0.00     0.170 C 
BRANCH  31  32
HETATM   32  O   UNL     1     -38.575 -54.705  13.349  1.00  0.00    -0.400 OA
HETATM   33  H   UNL     1     -37.809 -54.171  13.080  1.00  0.00     0.209 HD
ENDBRANCH  31  32
ENDBRANCH  25  31
ENDBRANCH  24  25
ENDBRANCH   2  24
TORSDOF 10
ENDMDL
