MODEL 1
REMARK VINA RESULT:      -6.5      0.000      0.000
REMARK  8 active torsions:
REMARK  status: ('A' for Active; 'I' for Inactive)
REMARK    1  A    between atoms: O_2  and  C_3 
REMARK    2  A    between atoms: C_3  and  C_4 
REMARK    3  A    between atoms: C_4  and  N_5 
REMARK    4  A    between atoms: C_7  and  C_16 
REMARK    5  A    between atoms: C_9  and  C_10 
REMARK    6  A    between atoms: C_10  and  N_11 
REMARK    7  A    between atoms: C_16  and  C_18 
REMARK    8  A    between atoms: C_24  and  O_25 
ROOT
HETATM    1  N   UNL     1     -40.249 -54.230  14.596  1.00  0.00    -0.320 N 
HETATM    2  C   UNL     1     -41.572 -54.583  14.838  1.00  0.00     0.109 A 
HETATM    3  C   UNL     1     -42.593 -54.031  14.158  1.00  0.00     0.032 A 
HETATM    4  C   UNL     1     -42.295 -52.995  13.180  1.00  0.00     0.044 A 
HETATM    5  C   UNL     1     -41.038 -52.594  12.941  1.00  0.00     0.095 A 
HETATM    6  C   UNL     1     -39.902 -53.225  13.680  1.00  0.00     0.267 A 
HETATM    7  O   UNL     1     -38.752 -52.838  13.486  1.00  0.00    -0.266 OA
ENDROOT
BRANCH   3   8
HETATM    8  C   UNL     1     -44.029 -54.358  14.432  1.00  0.00     0.196 C 
HETATM    9  O   UNL     1     -44.382 -55.541  14.420  1.00  0.00    -0.286 OA
BRANCH   8  10
HETATM   10  C   UNL     1     -45.073 -53.329  14.693  1.00  0.00     0.051 A 
HETATM   11  C   UNL     1     -45.014 -52.690  15.942  1.00  0.00     0.060 A 
HETATM   12  C   UNL     1     -45.880 -51.644  16.235  1.00  0.00     0.117 A 
HETATM   13  F   UNL     1     -45.805 -51.037  17.425  1.00  0.00    -0.206 F 
HETATM   14  C   UNL     1     -46.814 -51.208  15.303  1.00  0.00     0.045 A 
HETATM   15  C   UNL     1     -46.887 -51.834  14.058  1.00  0.00     0.040 A 
HETATM   16  C   UNL     1     -46.015 -52.888  13.753  1.00  0.00     0.080 A 
BRANCH  16  17
HETATM   17  O   UNL     1     -46.079 -53.452  12.513  1.00  0.00    -0.360 OA
HETATM   18  H   UNL     1     -46.546 -54.305  12.557  1.00  0.00     0.217 HD
ENDBRANCH  16  17
ENDBRANCH   8  10
ENDBRANCH   3   8
BRANCH   1  19
HETATM   19  C   UNL     1     -39.178 -54.857  15.387  1.00  0.00     0.158 C 
BRANCH  19  20
HETATM   20  C   UNL     1     -39.646 -55.624  16.632  1.00  0.00     0.187 C 
BRANCH  20  21
HETATM   21  O   UNL     1     -39.120 -56.952  16.638  1.00  0.00    -0.394 OA
HETATM   22  C   UNL     1     -39.562 -57.686  17.773  1.00  0.00     0.201 C 
ENDBRANCH  20  21
ENDBRANCH  19  20
ENDBRANCH   1  19
BRANCH   5  23
HETATM   23  C   UNL     1     -40.724 -51.544  11.888  1.00  0.00    -0.031 C 
BRANCH  23  24
HETATM   24  N   UNL     1     -40.464 -50.674  11.013  1.00  0.00    -0.365 N 
ATOM     25  HN2 UNL     1     -40.679 -51.418  11.678  1.00  0.00     0.165 HD
ATOM     26  HN1 UNL     1     -40.253 -49.969  10.306  1.00  0.00     0.165 HD
ENDBRANCH  23  24
ENDBRANCH   5  23
TORSDOF 8
ENDMDL
MODEL 2
REMARK VINA RESULT:      -6.5      2.091      4.652
REMARK  8 active torsions:
REMARK  status: ('A' for Active; 'I' for Inactive)
REMARK    1  A    between atoms: O_2  and  C_3 
REMARK    2  A    between atoms: C_3  and  C_4 
REMARK    3  A    between atoms: C_4  and  N_5 
REMARK    4  A    between atoms: C_7  and  C_16 
REMARK    5  A    between atoms: C_9  and  C_10 
REMARK    6  A    between atoms: C_10  and  N_11 
REMARK    7  A    between atoms: C_16  and  C_18 
REMARK    8  A    between atoms: C_24  and  O_25 
ROOT
HETATM    1  N   UNL     1     -40.956 -51.598  12.375  1.00  0.00    -0.320 N 
HETATM    2  C   UNL     1     -42.298 -51.961  12.400  1.00  0.00     0.109 A 
HETATM    3  C   UNL     1     -42.727 -53.058  13.049  1.00  0.00     0.032 A 
HETATM    4  C   UNL     1     -41.741 -53.911  13.697  1.00  0.00     0.044 A 
HETATM    5  C   UNL     1     -40.433 -53.622  13.666  1.00  0.00     0.095 A 
HETATM    6  C   UNL     1     -39.958 -52.390  12.965  1.00  0.00     0.267 A 
HETATM    7  O   UNL     1     -38.757 -52.139  12.908  1.00  0.00    -0.266 OA
ENDROOT
BRANCH   3   8
HETATM    8  C   UNL     1     -44.159 -53.498  13.051  1.00  0.00     0.196 C 
HETATM    9  O   UNL     1     -44.509 -54.387  12.268  1.00  0.00    -0.286 OA
BRANCH   8  10
HETATM   10  C   UNL     1     -45.203 -52.903  13.929  1.00  0.00     0.051 A 
HETATM   11  C   UNL     1     -45.175 -53.292  15.277  1.00  0.00     0.060 A 
HETATM   12  C   UNL     1     -46.041 -52.710  16.193  1.00  0.00     0.117 A 
HETATM   13  F   UNL     1     -45.996 -53.084  17.477  1.00  0.00    -0.206 F 
HETATM   14  C   UNL     1     -46.947 -51.733  15.798  1.00  0.00     0.045 A 
HETATM   15  C   UNL     1     -46.989 -51.335  14.461  1.00  0.00     0.040 A 
HETATM   16  C   UNL     1     -46.116 -51.915  13.531  1.00  0.00     0.080 A 
BRANCH  16  17
HETATM   17  O   UNL     1     -46.150 -51.476  12.240  1.00  0.00    -0.360 OA
HETATM   18  H   UNL     1     -46.837 -50.795  12.135  1.00  0.00     0.217 HD
ENDBRANCH  16  17
ENDBRANCH   8  10
ENDBRANCH   3   8
BRANCH   1  19
HETATM   19  C   UNL     1     -40.547 -50.395  11.631  1.00  0.00     0.158 C 
BRANCH  19  20
HETATM   20  C   UNL     1     -41.562 -49.244  11.637  1.00  0.00     0.187 C 
BRANCH  20  21
HETATM   21  O   UNL     1     -41.443 -48.455  10.453  1.00  0.00    -0.394 OA
HETATM   22  C   UNL     1     -42.683 -47.855  10.095  1.00  0.00     0.201 C 
ENDBRANCH  20  21
ENDBRANCH  19  20
ENDBRANCH   1  19
BRANCH   5  23
HETATM   23  C   UNL     1     -39.409 -54.489  14.381  1.00  0.00    -0.031 C 
BRANCH  23  24
HETATM   24  N   UNL     1     -38.558 -55.207  14.973  1.00  0.00    -0.365 N 
ATOM     25  HN2 UNL     1     -39.207 -54.582  14.493  1.00  0.00     0.165 HD
ATOM     26  HN1 UNL     1     -37.871 -55.790  15.453  1.00  0.00     0.165 HD
ENDBRANCH  23  24
ENDBRANCH   5  23
TORSDOF 8
ENDMDL
MODEL 3
REMARK VINA RESULT:      -6.2      1.294      1.802
REMARK  8 active torsions:
REMARK  status: ('A' for Active; 'I' for Inactive)
REMARK    1  A    between atoms: O_2  and  C_3 
REMARK    2  A    between atoms: C_3  and  C_4 
REMARK    3  A    between atoms: C_4  and  N_5 
REMARK    4  A    between atoms: C_7  and  C_16 
REMARK    5  A    between atoms: C_9  and  C_10 
REMARK    6  A    between atoms: C_10  and  N_11 
REMARK    7  A    between atoms: C_16  and  C_18 
REMARK    8  A    between atoms: C_24  and  O_25 
ROOT
HETATM    1  N   UNL     1     -40.393 -54.458  14.629  1.00  0.00    -0.320 N 
HETATM    2  C   UNL     1     -41.703 -54.809  14.937  1.00  0.00     0.109 A 
HETATM    3  C   UNL     1     -42.755 -54.258  14.306  1.00  0.00     0.032 A 
HETATM    4  C   UNL     1     -42.505 -53.226  13.311  1.00  0.00     0.044 A 
HETATM    5  C   UNL     1     -41.261 -52.827  13.009  1.00  0.00     0.095 A 
HETATM    6  C   UNL     1     -40.090 -53.456  13.693  1.00  0.00     0.267 A 
HETATM    7  O   UNL     1     -38.952 -53.071  13.443  1.00  0.00    -0.266 OA
ENDROOT
BRANCH   3   8
HETATM    8  C   UNL     1     -44.177 -54.583  14.651  1.00  0.00     0.196 C 
HETATM    9  O   UNL     1     -44.599 -55.721  14.423  1.00  0.00    -0.286 OA
BRANCH   8  10
HETATM   10  C   UNL     1     -45.129 -53.598  15.233  1.00  0.00     0.051 A 
HETATM   11  C   UNL     1     -45.703 -52.686  14.333  1.00  0.00     0.060 A 
HETATM   12  C   UNL     1     -46.681 -51.799  14.763  1.00  0.00     0.117 A 
HETATM   13  F   UNL     1     -47.227 -50.942  13.892  1.00  0.00    -0.206 F 
HETATM   14  C   UNL     1     -47.113 -51.797  16.084  1.00  0.00     0.045 A 
HETATM   15  C   UNL     1     -46.551 -52.696  16.992  1.00  0.00     0.040 A 
HETATM   16  C   UNL     1     -45.566 -53.597  16.565  1.00  0.00     0.080 A 
BRANCH  16  17
HETATM   17  O   UNL     1     -45.066 -54.493  17.464  1.00  0.00    -0.360 OA
HETATM   18  H   UNL     1     -45.778 -55.067  17.796  1.00  0.00     0.217 HD
ENDBRANCH  16  17
ENDBRANCH   8  10
ENDBRANCH   3   8
BRANCH   1  19
HETATM   19  C   UNL     1     -39.285 -55.083  15.369  1.00  0.00     0.158 C 
BRANCH  19  20
HETATM   20  C   UNL     1     -39.703 -55.957  16.561  1.00  0.00     0.187 C 
BRANCH  20  21
HETATM   21  O   UNL     1     -38.657 -56.858  16.921  1.00  0.00    -0.394 OA
HETATM   22  C   UNL     1     -37.524 -56.169  17.439  1.00  0.00     0.201 C 
ENDBRANCH  20  21
ENDBRANCH  19  20
ENDBRANCH   1  19
BRANCH   5  23
HETATM   23  C   UNL     1     -40.999 -51.781  11.938  1.00  0.00    -0.031 C 
BRANCH  23  24
HETATM   24  N   UNL     1     -40.780 -50.912  11.050  1.00  0.00    -0.365 N 
ATOM     25  HN2 UNL     1     -40.999 -51.580  11.790  1.00  0.00     0.165 HD
ATOM     26  HN1 UNL     1     -40.601 -50.210  10.332  1.00  0.00     0.165 HD
ENDBRANCH  23  24
ENDBRANCH   5  23
TORSDOF 8
ENDMDL
MODEL 4
REMARK VINA RESULT:      -6.0      3.075      6.277
REMARK  8 active torsions:
REMARK  status: ('A' for Active; 'I' for Inactive)
REMARK    1  A    between atoms: O_2  and  C_3 
REMARK    2  A    between atoms: C_3  and  C_4 
REMARK    3  A    between atoms: C_4  and  N_5 
REMARK    4  A    between atoms: C_7  and  C_16 
REMARK    5  A    between atoms: C_9  and  C_10 
REMARK    6  A    between atoms: C_10  and  N_11 
REMARK    7  A    between atoms: C_16  and  C_18 
REMARK    8  A    between atoms: C_24  and  O_25 
ROOT
HETATM    1  N   UNL     1     -41.936 -53.161  13.955  1.00  0.00    -0.320 N 
HETATM    2  C   UNL     1     -41.232 -52.165  13.286  1.00  0.00     0.109 A 
HETATM    3  C   UNL     1     -39.889 -52.103  13.312  1.00  0.00     0.032 A 
HETATM    4  C   UNL     1     -39.164 -53.081  14.110  1.00  0.00     0.044 A 
HETATM    5  C   UNL     1     -39.802 -54.035  14.803  1.00  0.00     0.095 A 
HETATM    6  C   UNL     1     -41.294 -54.119  14.755  1.00  0.00     0.267 A 
HETATM    7  O   UNL     1     -41.884 -54.971  15.414  1.00  0.00    -0.266 OA
ENDROOT
BRANCH   3   8
HETATM    8  C   UNL     1     -39.109 -51.014  12.641  1.00  0.00     0.196 C 
HETATM    9  O   UNL     1     -37.975 -51.266  12.221  1.00  0.00    -0.286 OA
BRANCH   8  10
HETATM   10  C   UNL     1     -39.612 -49.623  12.474  1.00  0.00     0.051 A 
HETATM   11  C   UNL     1     -39.314 -48.727  13.514  1.00  0.00     0.060 A 
HETATM   12  C   UNL     1     -39.650 -47.385  13.400  1.00  0.00     0.117 A 
HETATM   13  F   UNL     1     -39.351 -46.541  14.395  1.00  0.00    -0.206 F 
HETATM   14  C   UNL     1     -40.280 -46.901  12.260  1.00  0.00     0.045 A 
HETATM   15  C   UNL     1     -40.585 -47.777  11.218  1.00  0.00     0.040 A 
HETATM   16  C   UNL     1     -40.246 -49.133  11.324  1.00  0.00     0.080 A 
BRANCH  16  17
HETATM   17  O   UNL     1     -40.517 -49.959  10.272  1.00  0.00    -0.360 OA
HETATM   18  H   UNL     1     -39.743 -50.515  10.075  1.00  0.00     0.217 HD
ENDBRANCH  16  17
ENDBRANCH   8  10
ENDBRANCH   3   8
BRANCH   1  19
HETATM   19  C   UNL     1     -43.408 -53.163  13.903  1.00  0.00     0.158 C 
BRANCH  19  20
HETATM   20  C   UNL     1     -44.014 -53.372  12.508  1.00  0.00     0.187 C 
BRANCH  20  21
HETATM   21  O   UNL     1     -44.887 -54.501  12.497  1.00  0.00    -0.394 OA
HETATM   22  C   UNL     1     -45.211 -54.927  13.816  1.00  0.00     0.201 C 
ENDBRANCH  20  21
ENDBRANCH  19  20
ENDBRANCH   1  19
BRANCH   5  23
HETATM   23  C   UNL     1     -39.043 -55.082  15.601  1.00  0.00    -0.031 C 
BRANCH  23  24
HETATM   24  N   UNL     1     -38.414 -55.953  16.262  1.00  0.00    -0.365 N 
ATOM     25  HN2 UNL     1     -38.887 -55.259  15.681  1.00  0.00     0.165 HD
ATOM     26  HN1 UNL     1     -37.905 -56.656  16.798  1.00  0.00     0.165 HD
ENDBRANCH  23  24
ENDBRANCH   5  23
TORSDOF 8
ENDMDL
MODEL 5
REMARK VINA RESULT:      -6.0      5.465      8.188
REMARK  8 active torsions:
REMARK  status: ('A' for Active; 'I' for Inactive)
REMARK    1  A    between atoms: O_2  and  C_3 
REMARK    2  A    between atoms: C_3  and  C_4 
REMARK    3  A    between atoms: C_4  and  N_5 
REMARK    4  A    between atoms: C_7  and  C_16 
REMARK    5  A    between atoms: C_9  and  C_10 
REMARK    6  A    between atoms: C_10  and  N_11 
REMARK    7  A    between atoms: C_16  and  C_18 
REMARK    8  A    between atoms: C_24  and  O_25 
ROOT
HETATM    1  N   UNL     1     -41.440 -45.725  10.712  1.00  0.00    -0.320 N 
HETATM    2  C   UNL     1     -40.917 -46.945  11.128  1.00  0.00     0.109 A 
HETATM    3  C   UNL     1     -41.556 -48.107  10.903  1.00  0.00     0.032 A 
HETATM    4  C   UNL     1     -42.857 -48.069  10.252  1.00  0.00     0.044 A 
HETATM    5  C   UNL     1     -43.419 -46.914   9.869  1.00  0.00     0.095 A 
HETATM    6  C   UNL     1     -42.698 -45.624  10.097  1.00  0.00     0.267 A 
HETATM    7  O   UNL     1     -43.223 -44.561   9.776  1.00  0.00    -0.266 OA
ENDROOT
BRANCH   3   8
HETATM    8  C   UNL     1     -41.039 -49.429  11.383  1.00  0.00     0.196 C 
HETATM    9  O   UNL     1     -39.923 -49.802  11.009  1.00  0.00    -0.286 OA
BRANCH   8  10
HETATM   10  C   UNL     1     -41.810 -50.343  12.269  1.00  0.00     0.051 A 
HETATM   11  C   UNL     1     -42.579 -49.730  13.272  1.00  0.00     0.060 A 
HETATM   12  C   UNL     1     -43.414 -50.493  14.079  1.00  0.00     0.117 A 
HETATM   13  F   UNL     1     -44.148 -49.894  15.023  1.00  0.00    -0.206 F 
HETATM   14  C   UNL     1     -43.507 -51.869  13.911  1.00  0.00     0.045 A 
HETATM   15  C   UNL     1     -42.748 -52.493  12.920  1.00  0.00     0.040 A 
HETATM   16  C   UNL     1     -41.907 -51.731  12.099  1.00  0.00     0.080 A 
BRANCH  16  17
HETATM   17  O   UNL     1     -41.210 -52.362  11.111  1.00  0.00    -0.360 OA
HETATM   18  H   UNL     1     -41.566 -53.257  10.968  1.00  0.00     0.217 HD
ENDBRANCH  16  17
ENDBRANCH   8  10
ENDBRANCH   3   8
BRANCH   1  19
HETATM   19  C   UNL     1     -40.702 -44.485  11.004  1.00  0.00     0.158 C 
BRANCH  19  20
HETATM   20  C   UNL     1     -40.553 -44.147  12.494  1.00  0.00     0.187 C 
BRANCH  20  21
HETATM   21  O   UNL     1     -41.832 -44.021  13.116  1.00  0.00    -0.394 OA
HETATM   22  C   UNL     1     -42.467 -42.796  12.768  1.00  0.00     0.201 C 
ENDBRANCH  20  21
ENDBRANCH  19  20
ENDBRANCH   1  19
BRANCH   5  23
HETATM   23  C   UNL     1     -44.757 -46.878   9.150  1.00  0.00    -0.031 C 
BRANCH  23  24
HETATM   24  N   UNL     1     -45.867 -46.850   8.552  1.00  0.00    -0.365 N 
ATOM     25  HN2 UNL     1     -44.942 -46.872   8.983  1.00  0.00     0.165 HD
ATOM     26  HN1 UNL     1     -46.766 -46.827   8.069  1.00  0.00     0.165 HD
ENDBRANCH  23  24
ENDBRANCH   5  23
TORSDOF 8
ENDMDL
MODEL 6
REMARK VINA RESULT:      -6.0      1.495      3.653
REMARK  8 active torsions:
REMARK  status: ('A' for Active; 'I' for Inactive)
REMARK    1  A    between atoms: O_2  and  C_3 
REMARK    2  A    between atoms: C_3  and  C_4 
REMARK    3  A    between atoms: C_4  and  N_5 
REMARK    4  A    between atoms: C_7  and  C_16 
REMARK    5  A    between atoms: C_9  and  C_10 
REMARK    6  A    between atoms: C_10  and  N_11 
REMARK    7  A    between atoms: C_16  and  C_18 
REMARK    8  A    between atoms: C_24  and  O_25 
ROOT
HETATM    1  N   UNL     1     -41.204 -53.879  13.547  1.00  0.00    -0.320 N 
HETATM    2  C   UNL     1     -42.593 -53.909  13.501  1.00  0.00     0.109 A 
HETATM    3  C   UNL     1     -43.323 -54.557  14.426  1.00  0.00     0.032 A 
HETATM    4  C   UNL     1     -42.624 -55.290  15.472  1.00  0.00     0.044 A 
HETATM    5  C   UNL     1     -41.285 -55.322  15.534  1.00  0.00     0.095 A 
HETATM    6  C   UNL     1     -40.475 -54.581  14.519  1.00  0.00     0.267 A 
HETATM    7  O   UNL     1     -39.248 -54.634  14.554  1.00  0.00    -0.266 OA
ENDROOT
BRANCH   3   8
HETATM    8  C   UNL     1     -44.817 -54.646  14.373  1.00  0.00     0.196 C 
HETATM    9  O   UNL     1     -45.338 -55.707  14.013  1.00  0.00    -0.286 OA
BRANCH   8  10
HETATM   10  C   UNL     1     -45.722 -53.511  14.703  1.00  0.00     0.051 A 
HETATM   11  C   UNL     1     -45.803 -53.158  16.060  1.00  0.00     0.060 A 
HETATM   12  C   UNL     1     -46.539 -52.047  16.452  1.00  0.00     0.117 A 
HETATM   13  F   UNL     1     -46.599 -51.717  17.747  1.00  0.00    -0.206 F 
HETATM   14  C   UNL     1     -47.203 -51.264  15.516  1.00  0.00     0.045 A 
HETATM   15  C   UNL     1     -47.134 -51.602  14.164  1.00  0.00     0.040 A 
HETATM   16  C   UNL     1     -46.392 -52.719  13.759  1.00  0.00     0.080 A 
BRANCH  16  17
HETATM   17  O   UNL     1     -46.306 -53.001  12.427  1.00  0.00    -0.360 OA
HETATM   18  H   UNL     1     -45.437 -52.729  12.083  1.00  0.00     0.217 HD
ENDBRANCH  16  17
ENDBRANCH   8  10
ENDBRANCH   3   8
BRANCH   1  19
HETATM   19  C   UNL     1     -40.461 -53.168  12.493  1.00  0.00     0.158 C 
BRANCH  19  20
HETATM   20  C   UNL     1     -40.094 -51.713  12.819  1.00  0.00     0.187 C 
BRANCH  20  21
HETATM   21  O   UNL     1     -38.686 -51.575  13.009  1.00  0.00    -0.394 OA
HETATM   22  C   UNL     1     -38.370 -51.201  14.346  1.00  0.00     0.201 C 
ENDBRANCH  20  21
ENDBRANCH  19  20
ENDBRANCH   1  19
BRANCH   5  23
HETATM   23  C   UNL     1     -40.557 -56.050  16.652  1.00  0.00    -0.031 C 
BRANCH  23  24
HETATM   24  N   UNL     1     -39.952 -56.654  17.579  1.00  0.00    -0.365 N 
ATOM     25  HN2 UNL     1     -40.423 -56.207  16.792  1.00  0.00     0.165 HD
ATOM     26  HN1 UNL     1     -39.462 -57.141  18.330  1.00  0.00     0.165 HD
ENDBRANCH  23  24
ENDBRANCH   5  23
TORSDOF 8
ENDMDL
MODEL 7
REMARK VINA RESULT:      -5.9      3.786      5.970
REMARK  8 active torsions:
REMARK  status: ('A' for Active; 'I' for Inactive)
REMARK    1  A    between atoms: O_2  and  C_3 
REMARK    2  A    between atoms: C_3  and  C_4 
REMARK    3  A    between atoms: C_4  and  N_5 
REMARK    4  A    between atoms: C_7  and  C_16 
REMARK    5  A    between atoms: C_9  and  C_10 
REMARK    6  A    between atoms: C_10  and  N_11 
REMARK    7  A    between atoms: C_16  and  C_18 
REMARK    8  A    between atoms: C_24  and  O_25 
ROOT
HETATM    1  N   UNL     1     -41.991 -48.179  12.058  1.00  0.00    -0.320 N 
HETATM    2  C   UNL     1     -42.745 -49.287  12.431  1.00  0.00     0.109 A 
HETATM    3  C   UNL     1     -42.221 -50.525  12.466  1.00  0.00     0.032 A 
HETATM    4  C   UNL     1     -40.839 -50.706  12.047  1.00  0.00     0.044 A 
HETATM    5  C   UNL     1     -40.086 -49.673  11.642  1.00  0.00     0.095 A 
HETATM    6  C   UNL     1     -40.661 -48.293  11.626  1.00  0.00     0.267 A 
HETATM    7  O   UNL     1     -39.984 -47.349  11.226  1.00  0.00    -0.266 OA
ENDROOT
BRANCH   3   8
HETATM    8  C   UNL     1     -43.022 -51.741  12.817  1.00  0.00     0.196 C 
HETATM    9  O   UNL     1     -42.624 -52.846  12.437  1.00  0.00    -0.286 OA
BRANCH   8  10
HETATM   10  C   UNL     1     -44.300 -51.694  13.580  1.00  0.00     0.051 A 
HETATM   11  C   UNL     1     -44.239 -51.107  14.854  1.00  0.00     0.060 A 
HETATM   12  C   UNL     1     -45.397 -50.922  15.597  1.00  0.00     0.117 A 
HETATM   13  F   UNL     1     -45.325 -50.352  16.805  1.00  0.00    -0.206 F 
HETATM   14  C   UNL     1     -46.635 -51.309  15.097  1.00  0.00     0.045 A 
HETATM   15  C   UNL     1     -46.713 -51.896  13.834  1.00  0.00     0.040 A 
HETATM   16  C   UNL     1     -45.549 -52.082  13.076  1.00  0.00     0.080 A 
BRANCH  16  17
HETATM   17  O   UNL     1     -45.660 -52.618  11.827  1.00  0.00    -0.360 OA
HETATM   18  H   UNL     1     -46.479 -53.140  11.757  1.00  0.00     0.217 HD
ENDBRANCH  16  17
ENDBRANCH   8  10
ENDBRANCH   3   8
BRANCH   1  19
HETATM   19  C   UNL     1     -42.628 -46.852  12.023  1.00  0.00     0.158 C 
BRANCH  19  20
HETATM   20  C   UNL     1     -43.020 -46.350  10.625  1.00  0.00     0.187 C 
BRANCH  20  21
HETATM   21  O   UNL     1     -43.889 -47.280   9.978  1.00  0.00    -0.394 OA
HETATM   22  C   UNL     1     -43.440 -47.590   8.663  1.00  0.00     0.201 C 
ENDBRANCH  20  21
ENDBRANCH  19  20
ENDBRANCH   1  19
BRANCH   5  23
HETATM   23  C   UNL     1     -38.630 -49.856  11.247  1.00  0.00    -0.031 C 
BRANCH  23  24
HETATM   24  N   UNL     1     -37.421 -50.007  10.920  1.00  0.00    -0.365 N 
ATOM     25  HN2 UNL     1     -38.391 -49.925  11.227  1.00  0.00     0.165 HD
ATOM     26  HN1 UNL     1     -36.443 -50.129  10.655  1.00  0.00     0.165 HD
ENDBRANCH  23  24
ENDBRANCH   5  23
TORSDOF 8
ENDMDL
MODEL 8
REMARK VINA RESULT:      -5.8      2.722      4.543
REMARK  8 active torsions:
REMARK  status: ('A' for Active; 'I' for Inactive)
REMARK    1  A    between atoms: O_2  and  C_3 
REMARK    2  A    between atoms: C_3  and  C_4 
REMARK    3  A    between atoms: C_4  and  N_5 
REMARK    4  A    between atoms: C_7  and  C_16 
REMARK    5  A    between atoms: C_9  and  C_10 
REMARK    6  A    between atoms: C_10  and  N_11 
REMARK    7  A    between atoms: C_16  and  C_18 
REMARK    8  A    between atoms: C_24  and  O_25 
ROOT
HETATM    1  N   UNL     1     -41.078 -54.565  15.296  1.00  0.00    -0.320 N 
HETATM    2  C   UNL     1     -40.565 -53.528  14.524  1.00  0.00     0.109 A 
HETATM    3  C   UNL     1     -41.316 -52.874  13.620  1.00  0.00     0.032 A 
HETATM    4  C   UNL     1     -42.690 -53.309  13.415  1.00  0.00     0.044 A 
HETATM    5  C   UNL     1     -43.216 -54.329  14.108  1.00  0.00     0.095 A 
HETATM    6  C   UNL     1     -42.389 -55.040  15.130  1.00  0.00     0.267 A 
HETATM    7  O   UNL     1     -42.857 -55.995  15.744  1.00  0.00    -0.266 OA
ENDROOT
BRANCH   3   8
HETATM    8  C   UNL     1     -40.775 -51.787  12.742  1.00  0.00     0.196 C 
HETATM    9  O   UNL     1     -39.709 -51.976  12.150  1.00  0.00    -0.286 OA
BRANCH   8  10
HETATM   10  C   UNL     1     -41.440 -50.467  12.562  1.00  0.00     0.051 A 
HETATM   11  C   UNL     1     -42.153 -49.976  13.667  1.00  0.00     0.060 A 
HETATM   12  C   UNL     1     -42.717 -48.707  13.629  1.00  0.00     0.117 A 
HETATM   13  F   UNL     1     -43.385 -48.249  14.693  1.00  0.00    -0.206 F 
HETATM   14  C   UNL     1     -42.585 -47.901  12.506  1.00  0.00     0.045 A 
HETATM   15  C   UNL     1     -41.881 -48.374  11.398  1.00  0.00     0.040 A 
HETATM   16  C   UNL     1     -41.306 -49.652  11.429  1.00  0.00     0.080 A 
BRANCH  16  17
HETATM   17  O   UNL     1     -40.586 -50.072  10.349  1.00  0.00    -0.360 OA
HETATM   18  H   UNL     1     -41.152 -50.588   9.749  1.00  0.00     0.217 HD
ENDBRANCH  16  17
ENDBRANCH   8  10
ENDBRANCH   3   8
BRANCH   1  19
HETATM   19  C   UNL     1     -40.200 -55.254  16.256  1.00  0.00     0.158 C 
BRANCH  19  20
HETATM   20  C   UNL     1     -38.697 -55.143  15.965  1.00  0.00     0.187 C 
BRANCH  20  21
HETATM   21  O   UNL     1     -38.026 -56.362  16.283  1.00  0.00    -0.394 OA
HETATM   22  C   UNL     1     -37.632 -56.403  17.650  1.00  0.00     0.201 C 
ENDBRANCH  20  21
ENDBRANCH  19  20
ENDBRANCH   1  19
BRANCH   5  23
HETATM   23  C   UNL     1     -44.664 -54.753  13.924  1.00  0.00    -0.031 C 
BRANCH  23  24
HETATM   24  N   UNL     1     -45.865 -55.106  13.774  1.00  0.00    -0.365 N 
ATOM     25  HN2 UNL     1     -44.884 -54.832  13.838  1.00  0.00     0.165 HD
ATOM     26  HN1 UNL     1     -46.837 -55.392  13.653  1.00  0.00     0.165 HD
ENDBRANCH  23  24
ENDBRANCH   5  23
TORSDOF 8
ENDMDL
MODEL 9
REMARK VINA RESULT:      -5.8      2.882      5.222
REMARK  8 active torsions:
REMARK  status: ('A' for Active; 'I' for Inactive)
REMARK    1  A    between atoms: O_2  and  C_3 
REMARK    2  A    between atoms: C_3  and  C_4 
REMARK    3  A    between atoms: C_4  and  N_5 
REMARK    4  A    between atoms: C_7  and  C_16 
REMARK    5  A    between atoms: C_9  and  C_10 
REMARK    6  A    between atoms: C_10  and  N_11 
REMARK    7  A    between atoms: C_16  and  C_18 
REMARK    8  A    between atoms: C_24  and  O_25 
ROOT
HETATM    1  N   UNL     1     -41.270 -54.621  15.598  1.00  0.00    -0.320 N 
HETATM    2  C   UNL     1     -40.664 -53.756  14.694  1.00  0.00     0.109 A 
HETATM    3  C   UNL     1     -41.326 -53.250  13.639  1.00  0.00     0.032 A 
HETATM    4  C   UNL     1     -42.702 -53.668  13.417  1.00  0.00     0.044 A 
HETATM    5  C   UNL     1     -43.316 -54.531  14.240  1.00  0.00     0.095 A 
HETATM    6  C   UNL     1     -42.587 -55.075  15.427  1.00  0.00     0.267 A 
HETATM    7  O   UNL     1     -43.136 -55.889  16.165  1.00  0.00    -0.266 OA
ENDROOT
BRANCH   3   8
HETATM    8  C   UNL     1     -40.683 -52.355  12.624  1.00  0.00     0.196 C 
HETATM    9  O   UNL     1     -40.597 -52.746  11.455  1.00  0.00    -0.286 OA
BRANCH   8  10
HETATM   10  C   UNL     1     -40.108 -51.020  12.948  1.00  0.00     0.051 A 
HETATM   11  C   UNL     1     -40.867 -50.212  13.810  1.00  0.00     0.060 A 
HETATM   12  C   UNL     1     -40.364 -48.995  14.253  1.00  0.00     0.117 A 
HETATM   13  F   UNL     1     -41.094 -48.240  15.081  1.00  0.00    -0.206 F 
HETATM   14  C   UNL     1     -39.106 -48.556  13.858  1.00  0.00     0.045 A 
HETATM   15  C   UNL     1     -38.340 -49.347  13.000  1.00  0.00     0.040 A 
HETATM   16  C   UNL     1     -38.838 -50.577  12.551  1.00  0.00     0.080 A 
BRANCH  16  17
HETATM   17  O   UNL     1     -38.050 -51.349  11.749  1.00  0.00    -0.360 OA
HETATM   18  H   UNL     1     -37.961 -52.242  12.126  1.00  0.00     0.217 HD
ENDBRANCH  16  17
ENDBRANCH   8  10
ENDBRANCH   3   8
BRANCH   1  19
HETATM   19  C   UNL     1     -40.486 -55.156  16.723  1.00  0.00     0.158 C 
BRANCH  19  20
HETATM   20  C   UNL     1     -39.073 -55.640  16.366  1.00  0.00     0.187 C 
BRANCH  20  21
HETATM   21  O   UNL     1     -38.871 -56.984  16.802  1.00  0.00    -0.394 OA
HETATM   22  C   UNL     1     -40.056 -57.537  17.364  1.00  0.00     0.201 C 
ENDBRANCH  20  21
ENDBRANCH  19  20
ENDBRANCH   1  19
BRANCH   5  23
HETATM   23  C   UNL     1     -44.767 -54.933  14.034  1.00  0.00    -0.031 C 
BRANCH  23  24
HETATM   24  N   UNL     1     -45.971 -55.267  13.864  1.00  0.00    -0.365 N 
ATOM     25  HN2 UNL     1     -45.008 -54.992  14.059  1.00  0.00     0.165 HD
ATOM     26  HN1 UNL     1     -46.945 -55.537  13.725  1.00  0.00     0.165 HD
ENDBRANCH  23  24
ENDBRANCH   5  23
TORSDOF 8
ENDMDL
