MODEL 1
REMARK VINA RESULT:      -5.5      0.000      0.000
REMARK  6 active torsions:
REMARK  status: ('A' for Active; 'I' for Inactive)
REMARK    1  A    between atoms: C_2  and  O_3 
REMARK    2  A    between atoms: O_3  and  C_4 
REMARK    3  A    between atoms: C_4  and  C_5 
REMARK    4  A    between atoms: C_5  and  N_6 
REMARK    5  A    between atoms: C_7  and  C_16 
REMARK    6  A    between atoms: C_16  and  O_18 
ROOT
HETATM    1  N   UNL     1     -41.404 -53.465  13.114  1.00  0.00    -0.331 N 
HETATM    2  C   UNL     1     -40.782 -54.163  14.139  1.00  0.00     0.113 A 
HETATM    3  N   UNL     1     -41.687 -54.763  14.899  1.00  0.00    -0.342 N 
ATOM      4  HN  UNL     1     -41.509 -55.306  15.744  1.00  0.00     0.167 HD
HETATM    5  C   UNL     1     -42.901 -54.513  14.336  1.00  0.00     0.060 A 
HETATM    6  C   UNL     1     -44.171 -54.923  14.764  1.00  0.00     0.032 A 
HETATM    7  C   UNL     1     -45.292 -54.529  14.027  1.00  0.00     0.002 A 
HETATM    8  C   UNL     1     -45.143 -53.769  12.869  1.00  0.00     0.002 A 
HETATM    9  C   UNL     1     -43.880 -53.380  12.413  1.00  0.00     0.032 A 
HETATM   10  C   UNL     1     -42.764 -53.743  13.190  1.00  0.00     0.062 A 
ENDROOT
BRANCH   1  11
HETATM   11  C   UNL     1     -40.821 -52.559  12.133  1.00  0.00     0.157 C 
BRANCH  11  12
HETATM   12  C   UNL     1     -40.048 -51.408  12.783  1.00  0.00     0.187 C 
BRANCH  12  13
HETATM   13  O   UNL     1     -38.630 -51.530  12.607  1.00  0.00    -0.390 OA
BRANCH  13  14
HETATM   14  C   UNL     1     -38.038 -50.223  12.553  1.00  0.00     0.163 C 
HETATM   15  C   UNL     1     -37.404 -49.969  11.201  1.00  0.00     0.033 C 
ENDBRANCH  13  14
ENDBRANCH  12  13
ENDBRANCH  11  12
ENDBRANCH   1  11
BRANCH   2  16
HETATM   16  C   UNL     1     -39.313 -54.236  14.451  1.00  0.00     0.181 C 
HETATM   17  C   UNL     1     -39.047 -55.220  15.598  1.00  0.00     0.047 C 
BRANCH  16  18
HETATM   18  O   UNL     1     -38.603 -54.658  13.290  1.00  0.00    -0.388 OA
HETATM   19  H   UNL     1     -38.363 -55.592  13.406  1.00  0.00     0.210 HD
ENDBRANCH  16  18
ENDBRANCH   2  16
TORSDOF 6
ENDMDL
MODEL 2
REMARK VINA RESULT:      -5.4      6.153      7.902
REMARK  6 active torsions:
REMARK  status: ('A' for Active; 'I' for Inactive)
REMARK    1  A    between atoms: C_2  and  O_3 
REMARK    2  A    between atoms: O_3  and  C_4 
REMARK    3  A    between atoms: C_4  and  C_5 
REMARK    4  A    between atoms: C_5  and  N_6 
REMARK    5  A    between atoms: C_7  and  C_16 
REMARK    6  A    between atoms: C_16  and  O_18 
ROOT
HETATM    1  N   UNL     1     -41.792 -46.928  11.213  1.00  0.00    -0.331 N 
HETATM    2  C   UNL     1     -42.141 -47.738  10.142  1.00  0.00     0.113 A 
HETATM    3  N   UNL     1     -41.392 -48.832  10.133  1.00  0.00    -0.342 N 
ATOM      4  HN  UNL     1     -41.409 -49.575   9.434  1.00  0.00     0.167 HD
HETATM    5  C   UNL     1     -40.596 -48.772  11.234  1.00  0.00     0.060 A 
HETATM    6  C   UNL     1     -39.626 -49.686  11.670  1.00  0.00     0.032 A 
HETATM    7  C   UNL     1     -38.910 -49.405  12.837  1.00  0.00     0.002 A 
HETATM    8  C   UNL     1     -39.180 -48.252  13.571  1.00  0.00     0.002 A 
HETATM    9  C   UNL     1     -40.167 -47.348  13.165  1.00  0.00     0.032 A 
HETATM   10  C   UNL     1     -40.847 -47.618  11.963  1.00  0.00     0.062 A 
ENDROOT
BRANCH   1  11
HETATM   11  C   UNL     1     -42.248 -45.582  11.535  1.00  0.00     0.157 C 
BRANCH  11  12
HETATM   12  C   UNL     1     -41.252 -44.504  11.098  1.00  0.00     0.187 C 
BRANCH  12  13
HETATM   13  O   UNL     1     -40.673 -44.778   9.814  1.00  0.00    -0.390 OA
BRANCH  13  14
HETATM   14  C   UNL     1     -39.247 -44.880   9.941  1.00  0.00     0.163 C 
HETATM   15  C   UNL     1     -38.558 -44.535   8.637  1.00  0.00     0.033 C 
ENDBRANCH  13  14
ENDBRANCH  12  13
ENDBRANCH  11  12
ENDBRANCH   1  11
BRANCH   2  16
HETATM   16  C   UNL     1     -43.162 -47.468   9.072  1.00  0.00     0.181 C 
HETATM   17  C   UNL     1     -44.570 -47.366   9.674  1.00  0.00     0.047 C 
BRANCH  16  18
HETATM   18  O   UNL     1     -42.841 -46.250   8.407  1.00  0.00    -0.388 OA
HETATM   19  H   UNL     1     -42.276 -46.461   7.645  1.00  0.00     0.210 HD
ENDBRANCH  16  18
ENDBRANCH   2  16
TORSDOF 6
ENDMDL
MODEL 3
REMARK VINA RESULT:      -5.3      2.634      4.493
REMARK  6 active torsions:
REMARK  status: ('A' for Active; 'I' for Inactive)
REMARK    1  A    between atoms: C_2  and  O_3 
REMARK    2  A    between atoms: O_3  and  C_4 
REMARK    3  A    between atoms: C_4  and  C_5 
REMARK    4  A    between atoms: C_5  and  N_6 
REMARK    5  A    between atoms: C_7  and  C_16 
REMARK    6  A    between atoms: C_16  and  O_18 
ROOT
HETATM    1  N   UNL     1     -42.950 -51.917  14.145  1.00  0.00    -0.331 N 
HETATM    2  C   UNL     1     -42.579 -52.440  12.916  1.00  0.00     0.113 A 
HETATM    3  N   UNL     1     -43.653 -52.665  12.172  1.00  0.00    -0.342 N 
ATOM      4  HN  UNL     1     -43.673 -53.085  11.242  1.00  0.00     0.167 HD
HETATM    5  C   UNL     1     -44.725 -52.229  12.888  1.00  0.00     0.060 A 
HETATM    6  C   UNL     1     -46.083 -52.250  12.541  1.00  0.00     0.032 A 
HETATM    7  C   UNL     1     -47.020 -51.756  13.453  1.00  0.00     0.002 A 
HETATM    8  C   UNL     1     -46.607 -51.223  14.672  1.00  0.00     0.002 A 
HETATM    9  C   UNL     1     -45.253 -51.167  15.017  1.00  0.00     0.032 A 
HETATM   10  C   UNL     1     -44.324 -51.710  14.111  1.00  0.00     0.062 A 
ENDROOT
BRANCH   1  11
HETATM   11  C   UNL     1     -42.125 -51.648  15.317  1.00  0.00     0.157 C 
BRANCH  11  12
HETATM   12  C   UNL     1     -41.840 -52.911  16.136  1.00  0.00     0.187 C 
BRANCH  12  13
HETATM   13  O   UNL     1     -43.020 -53.690  16.374  1.00  0.00    -0.390 OA
BRANCH  13  14
HETATM   14  C   UNL     1     -42.827 -55.021  15.874  1.00  0.00     0.163 C 
HETATM   15  C   UNL     1     -43.809 -55.333  14.763  1.00  0.00     0.033 C 
ENDBRANCH  13  14
ENDBRANCH  12  13
ENDBRANCH  11  12
ENDBRANCH   1  11
BRANCH   2  16
HETATM   16  C   UNL     1     -41.197 -52.786  12.435  1.00  0.00     0.181 C 
HETATM   17  C   UNL     1     -40.803 -54.201  12.880  1.00  0.00     0.047 C 
BRANCH  16  18
HETATM   18  O   UNL     1     -41.157 -52.708  11.013  1.00  0.00    -0.388 OA
HETATM   19  H   UNL     1     -40.236 -52.828  10.730  1.00  0.00     0.210 HD
ENDBRANCH  16  18
ENDBRANCH   2  16
TORSDOF 6
ENDMDL
MODEL 4
REMARK VINA RESULT:      -5.3      3.006      3.677
REMARK  6 active torsions:
REMARK  status: ('A' for Active; 'I' for Inactive)
REMARK    1  A    between atoms: C_2  and  O_3 
REMARK    2  A    between atoms: O_3  and  C_4 
REMARK    3  A    between atoms: C_4  and  C_5 
REMARK    4  A    between atoms: C_5  and  N_6 
REMARK    5  A    between atoms: C_7  and  C_16 
REMARK    6  A    between atoms: C_16  and  O_18 
ROOT
HETATM    1  N   UNL     1     -43.079 -51.163  13.089  1.00  0.00    -0.331 N 
HETATM    2  C   UNL     1     -42.328 -52.180  12.517  1.00  0.00     0.113 A 
HETATM    3  N   UNL     1     -42.999 -53.322  12.559  1.00  0.00    -0.342 N 
ATOM      4  HN  UNL     1     -42.668 -54.235  12.246  1.00  0.00     0.167 HD
HETATM    5  C   UNL     1     -44.217 -53.043  13.098  1.00  0.00     0.060 A 
HETATM    6  C   UNL     1     -45.285 -53.913  13.357  1.00  0.00     0.032 A 
HETATM    7  C   UNL     1     -46.448 -53.399  13.939  1.00  0.00     0.002 A 
HETATM    8  C   UNL     1     -46.553 -52.040  14.225  1.00  0.00     0.002 A 
HETATM    9  C   UNL     1     -45.507 -51.156  13.943  1.00  0.00     0.032 A 
HETATM   10  C   UNL     1     -44.325 -51.694  13.402  1.00  0.00     0.062 A 
ENDROOT
BRANCH   1  11
HETATM   11  C   UNL     1     -42.692 -49.789  13.382  1.00  0.00     0.157 C 
BRANCH  11  12
HETATM   12  C   UNL     1     -43.036 -48.825  12.242  1.00  0.00     0.187 C 
BRANCH  12  13
HETATM   13  O   UNL     1     -42.094 -48.894  11.162  1.00  0.00    -0.390 OA
BRANCH  13  14
HETATM   14  C   UNL     1     -42.270 -47.761  10.299  1.00  0.00     0.163 C 
HETATM   15  C   UNL     1     -43.740 -47.467  10.080  1.00  0.00     0.033 C 
ENDBRANCH  13  14
ENDBRANCH  12  13
ENDBRANCH  11  12
ENDBRANCH   1  11
BRANCH   2  16
HETATM   16  C   UNL     1     -40.933 -52.101  11.962  1.00  0.00     0.181 C 
HETATM   17  C   UNL     1     -39.904 -51.957  13.091  1.00  0.00     0.047 C 
BRANCH  16  18
HETATM   18  O   UNL     1     -40.655 -53.281  11.213  1.00  0.00    -0.388 OA
HETATM   19  H   UNL     1     -39.691 -53.355  11.114  1.00  0.00     0.210 HD
ENDBRANCH  16  18
ENDBRANCH   2  16
TORSDOF 6
ENDMDL
MODEL 5
REMARK VINA RESULT:      -5.2      2.121      2.522
REMARK  6 active torsions:
REMARK  status: ('A' for Active; 'I' for Inactive)
REMARK    1  A    between atoms: C_2  and  O_3 
REMARK    2  A    between atoms: O_3  and  C_4 
REMARK    3  A    between atoms: C_4  and  C_5 
REMARK    4  A    between atoms: C_5  and  N_6 
REMARK    5  A    between atoms: C_7  and  C_16 
REMARK    6  A    between atoms: C_16  and  O_18 
ROOT
HETATM    1  N   UNL     1     -42.746 -51.606  13.259  1.00  0.00    -0.331 N 
HETATM    2  C   UNL     1     -42.147 -52.840  13.054  1.00  0.00     0.113 A 
HETATM    3  N   UNL     1     -43.041 -53.810  13.187  1.00  0.00    -0.342 N 
ATOM      4  HN  UNL     1     -42.864 -54.813  13.130  1.00  0.00     0.167 HD
HETATM    5  C   UNL     1     -44.240 -53.210  13.416  1.00  0.00     0.060 A 
HETATM    6  C   UNL     1     -45.494 -53.800  13.627  1.00  0.00     0.032 A 
HETATM    7  C   UNL     1     -46.598 -52.974  13.861  1.00  0.00     0.002 A 
HETATM    8  C   UNL     1     -46.458 -51.588  13.849  1.00  0.00     0.002 A 
HETATM    9  C   UNL     1     -45.219 -50.986  13.607  1.00  0.00     0.032 A 
HETATM   10  C   UNL     1     -44.108 -51.828  13.422  1.00  0.00     0.062 A 
ENDROOT
BRANCH   1  11
HETATM   11  C   UNL     1     -42.129 -50.288  13.346  1.00  0.00     0.157 C 
BRANCH  11  12
HETATM   12  C   UNL     1     -41.905 -49.651  11.971  1.00  0.00     0.187 C 
BRANCH  12  13
HETATM   13  O   UNL     1     -40.737 -50.160  11.313  1.00  0.00    -0.390 OA
BRANCH  13  14
HETATM   14  C   UNL     1     -39.568 -49.520  11.845  1.00  0.00     0.163 C 
HETATM   15  C   UNL     1     -39.682 -48.012  11.746  1.00  0.00     0.033 C 
ENDBRANCH  13  14
ENDBRANCH  12  13
ENDBRANCH  11  12
ENDBRANCH   1  11
BRANCH   2  16
HETATM   16  C   UNL     1     -40.699 -53.132  12.775  1.00  0.00     0.181 C 
HETATM   17  C   UNL     1     -40.245 -54.398  13.514  1.00  0.00     0.047 C 
BRANCH  16  18
HETATM   18  O   UNL     1     -40.513 -53.309  11.374  1.00  0.00    -0.388 OA
HETATM   19  H   UNL     1     -39.791 -52.725  11.088  1.00  0.00     0.210 HD
ENDBRANCH  16  18
ENDBRANCH   2  16
TORSDOF 6
ENDMDL
MODEL 6
REMARK VINA RESULT:      -5.2      2.535      5.033
REMARK  6 active torsions:
REMARK  status: ('A' for Active; 'I' for Inactive)
REMARK    1  A    between atoms: C_2  and  O_3 
REMARK    2  A    between atoms: O_3  and  C_4 
REMARK    3  A    between atoms: C_4  and  C_5 
REMARK    4  A    between atoms: C_5  and  N_6 
REMARK    5  A    between atoms: C_7  and  C_16 
REMARK    6  A    between atoms: C_16  and  O_18 
ROOT
HETATM    1  N   UNL     1     -42.562 -53.861  13.518  1.00  0.00    -0.331 N 
HETATM    2  C   UNL     1     -41.546 -52.962  13.228  1.00  0.00     0.113 A 
HETATM    3  N   UNL     1     -40.631 -52.982  14.187  1.00  0.00    -0.342 N 
ATOM      4  HN  UNL     1     -39.801 -52.392  14.249  1.00  0.00     0.167 HD
HETATM    5  C   UNL     1     -41.012 -53.940  15.074  1.00  0.00     0.060 A 
HETATM    6  C   UNL     1     -40.383 -54.343  16.261  1.00  0.00     0.032 A 
HETATM    7  C   UNL     1     -40.973 -55.349  17.030  1.00  0.00     0.002 A 
HETATM    8  C   UNL     1     -42.150 -55.963  16.607  1.00  0.00     0.002 A 
HETATM    9  C   UNL     1     -42.771 -55.594  15.410  1.00  0.00     0.032 A 
HETATM   10  C   UNL     1     -42.192 -54.547  14.669  1.00  0.00     0.062 A 
ENDROOT
BRANCH   1  11
HETATM   11  C   UNL     1     -43.827 -54.073  12.825  1.00  0.00     0.157 C 
BRANCH  11  12
HETATM   12  C   UNL     1     -44.867 -53.000  13.159  1.00  0.00     0.187 C 
BRANCH  12  13
HETATM   13  O   UNL     1     -45.833 -52.826  12.112  1.00  0.00    -0.390 OA
BRANCH  13  14
HETATM   14  C   UNL     1     -46.715 -51.745  12.447  1.00  0.00     0.163 C 
HETATM   15  C   UNL     1     -46.638 -51.418  13.924  1.00  0.00     0.033 C 
ENDBRANCH  13  14
ENDBRANCH  12  13
ENDBRANCH  11  12
ENDBRANCH   1  11
BRANCH   2  16
HETATM   16  C   UNL     1     -41.445 -52.025  12.057  1.00  0.00     0.181 C 
HETATM   17  C   UNL     1     -40.309 -51.014  12.264  1.00  0.00     0.047 C 
BRANCH  16  18
HETATM   18  O   UNL     1     -41.201 -52.776  10.871  1.00  0.00    -0.388 OA
HETATM   19  H   UNL     1     -41.644 -53.636  10.961  1.00  0.00     0.210 HD
ENDBRANCH  16  18
ENDBRANCH   2  16
TORSDOF 6
ENDMDL
MODEL 7
REMARK VINA RESULT:      -5.1      1.566      2.200
REMARK  6 active torsions:
REMARK  status: ('A' for Active; 'I' for Inactive)
REMARK    1  A    between atoms: C_2  and  O_3 
REMARK    2  A    between atoms: O_3  and  C_4 
REMARK    3  A    between atoms: C_4  and  C_5 
REMARK    4  A    between atoms: C_5  and  N_6 
REMARK    5  A    between atoms: C_7  and  C_16 
REMARK    6  A    between atoms: C_16  and  O_18 
ROOT
HETATM    1  N   UNL     1     -41.479 -53.238  13.109  1.00  0.00    -0.331 N 
HETATM    2  C   UNL     1     -40.813 -54.001  14.058  1.00  0.00     0.113 A 
HETATM    3  N   UNL     1     -41.681 -54.713  14.763  1.00  0.00    -0.342 N 
ATOM      4  HN  UNL     1     -41.468 -55.327  15.549  1.00  0.00     0.167 HD
HETATM    5  C   UNL     1     -42.911 -54.469  14.235  1.00  0.00     0.060 A 
HETATM    6  C   UNL     1     -44.156 -54.979  14.629  1.00  0.00     0.032 A 
HETATM    7  C   UNL     1     -45.302 -54.570  13.941  1.00  0.00     0.002 A 
HETATM    8  C   UNL     1     -45.202 -53.696  12.861  1.00  0.00     0.002 A 
HETATM    9  C   UNL     1     -43.964 -53.204  12.437  1.00  0.00     0.032 A 
HETATM   10  C   UNL     1     -42.824 -53.587  13.167  1.00  0.00     0.062 A 
ENDROOT
BRANCH   1  11
HETATM   11  C   UNL     1     -40.951 -52.214  12.217  1.00  0.00     0.157 C 
BRANCH  11  12
HETATM   12  C   UNL     1     -41.127 -50.799  12.776  1.00  0.00     0.187 C 
BRANCH  12  13
HETATM   13  O   UNL     1     -42.023 -50.004  11.988  1.00  0.00    -0.390 OA
BRANCH  13  14
HETATM   14  C   UNL     1     -43.112 -49.552  12.807  1.00  0.00     0.163 C 
HETATM   15  C   UNL     1     -42.908 -49.958  14.253  1.00  0.00     0.033 C 
ENDBRANCH  13  14
ENDBRANCH  12  13
ENDBRANCH  11  12
ENDBRANCH   1  11
BRANCH   2  16
HETATM   16  C   UNL     1     -39.339 -54.033  14.351  1.00  0.00     0.181 C 
HETATM   17  C   UNL     1     -39.065 -54.731  15.690  1.00  0.00     0.047 C 
BRANCH  16  18
HETATM   18  O   UNL     1     -38.664 -54.727  13.307  1.00  0.00    -0.388 OA
HETATM   19  H   UNL     1     -37.954 -54.155  12.973  1.00  0.00     0.210 HD
ENDBRANCH  16  18
ENDBRANCH   2  16
TORSDOF 6
ENDMDL
MODEL 8
REMARK VINA RESULT:      -5.0      3.010      5.990
REMARK  6 active torsions:
REMARK  status: ('A' for Active; 'I' for Inactive)
REMARK    1  A    between atoms: C_2  and  O_3 
REMARK    2  A    between atoms: O_3  and  C_4 
REMARK    3  A    between atoms: C_4  and  C_5 
REMARK    4  A    between atoms: C_5  and  N_6 
REMARK    5  A    between atoms: C_7  and  C_16 
REMARK    6  A    between atoms: C_16  and  O_18 
ROOT
HETATM    1  N   UNL     1     -43.721 -53.575  13.658  1.00  0.00    -0.331 N 
HETATM    2  C   UNL     1     -44.556 -52.671  13.017  1.00  0.00     0.113 A 
HETATM    3  N   UNL     1     -43.840 -51.705  12.458  1.00  0.00    -0.342 N 
ATOM      4  HN  UNL     1     -44.200 -50.890  11.961  1.00  0.00     0.167 HD
HETATM    5  C   UNL     1     -42.532 -52.009  12.676  1.00  0.00     0.060 A 
HETATM    6  C   UNL     1     -41.386 -51.300  12.288  1.00  0.00     0.032 A 
HETATM    7  C   UNL     1     -40.130 -51.801  12.641  1.00  0.00     0.002 A 
HETATM    8  C   UNL     1     -40.020 -53.003  13.338  1.00  0.00     0.002 A 
HETATM    9  C   UNL     1     -41.153 -53.736  13.703  1.00  0.00     0.032 A 
HETATM   10  C   UNL     1     -42.412 -53.197  13.383  1.00  0.00     0.062 A 
ENDROOT
BRANCH   1  11
HETATM   11  C   UNL     1     -44.071 -54.703  14.511  1.00  0.00     0.157 C 
BRANCH  11  12
HETATM   12  C   UNL     1     -44.000 -54.358  16.001  1.00  0.00     0.187 C 
BRANCH  12  13
HETATM   13  O   UNL     1     -43.439 -55.419  16.786  1.00  0.00    -0.390 OA
BRANCH  13  14
HETATM   14  C   UNL     1     -42.013 -55.276  16.839  1.00  0.00     0.163 C 
HETATM   15  C   UNL     1     -41.333 -56.628  16.924  1.00  0.00     0.033 C 
ENDBRANCH  13  14
ENDBRANCH  12  13
ENDBRANCH  11  12
ENDBRANCH   1  11
BRANCH   2  16
HETATM   16  C   UNL     1     -46.058 -52.675  12.962  1.00  0.00     0.181 C 
HETATM   17  C   UNL     1     -46.636 -51.492  13.750  1.00  0.00     0.047 C 
BRANCH  16  18
HETATM   18  O   UNL     1     -46.482 -52.593  11.605  1.00  0.00    -0.388 OA
HETATM   19  H   UNL     1     -45.699 -52.686  11.037  1.00  0.00     0.210 HD
ENDBRANCH  16  18
ENDBRANCH   2  16
TORSDOF 6
ENDMDL
MODEL 9
REMARK VINA RESULT:      -5.0      2.943      5.182
REMARK  6 active torsions:
REMARK  status: ('A' for Active; 'I' for Inactive)
REMARK    1  A    between atoms: C_2  and  O_3 
REMARK    2  A    between atoms: O_3  and  C_4 
REMARK    3  A    between atoms: C_4  and  C_5 
REMARK    4  A    between atoms: C_5  and  N_6 
REMARK    5  A    between atoms: C_7  and  C_16 
REMARK    6  A    between atoms: C_16  and  O_18 
ROOT
HETATM    1  N   UNL     1     -39.852 -50.524  12.255  1.00  0.00    -0.331 N 
HETATM    2  C   UNL     1     -40.947 -51.370  12.164  1.00  0.00     0.113 A 
HETATM    3  N   UNL     1     -42.029 -50.684  11.826  1.00  0.00    -0.342 N 
ATOM      4  HN  UNL     1     -42.977 -51.049  11.731  1.00  0.00     0.167 HD
HETATM    5  C   UNL     1     -41.633 -49.397  11.631  1.00  0.00     0.060 A 
HETATM    6  C   UNL     1     -42.403 -48.284  11.266  1.00  0.00     0.032 A 
HETATM    7  C   UNL     1     -41.776 -47.041  11.138  1.00  0.00     0.002 A 
HETATM    8  C   UNL     1     -40.402 -46.920  11.338  1.00  0.00     0.002 A 
HETATM    9  C   UNL     1     -39.617 -48.028  11.672  1.00  0.00     0.032 A 
HETATM   10  C   UNL     1     -40.268 -49.263  11.844  1.00  0.00     0.062 A 
ENDROOT
BRANCH   1  11
HETATM   11  C   UNL     1     -38.503 -50.813  12.725  1.00  0.00     0.157 C 
BRANCH  11  12
HETATM   12  C   UNL     1     -38.419 -50.898  14.252  1.00  0.00     0.187 C 
BRANCH  12  13
HETATM   13  O   UNL     1     -37.425 -50.020  14.798  1.00  0.00    -0.390 OA
BRANCH  13  14
HETATM   14  C   UNL     1     -38.006 -48.731  15.045  1.00  0.00     0.163 C 
HETATM   15  C   UNL     1     -37.106 -47.622  14.540  1.00  0.00     0.033 C 
ENDBRANCH  13  14
ENDBRANCH  12  13
ENDBRANCH  11  12
ENDBRANCH   1  11
BRANCH   2  16
HETATM   16  C   UNL     1     -41.002 -52.846  12.446  1.00  0.00     0.181 C 
HETATM   17  C   UNL     1     -42.418 -53.270  12.860  1.00  0.00     0.047 C 
BRANCH  16  18
HETATM   18  O   UNL     1     -40.614 -53.565  11.279  1.00  0.00    -0.388 OA
HETATM   19  H   UNL     1     -40.790 -54.508  11.433  1.00  0.00     0.210 HD
ENDBRANCH  16  18
ENDBRANCH   2  16
TORSDOF 6
ENDMDL
