MODEL 1
REMARK VINA RESULT:      -6.2      0.000      0.000
REMARK  4 active torsions:
REMARK  status: ('A' for Active; 'I' for Inactive)
REMARK    1  A    between atoms: C_2  and  C_3 
REMARK    2  A    between atoms: C_2  and  N_15 
REMARK    3  A    between atoms: C_3  and  N_4 
REMARK       I    between atoms: N_4  and  C_5 
REMARK       I    between atoms: C_5  and  N_7 
REMARK    4  A    between atoms: N_7  and  C_8 
ROOT
HETATM    1  N   UNL     1     -41.020 -51.125  11.298  1.00  0.00    -0.341 N 
HETATM    2  C   UNL     1     -40.852 -49.779  11.582  1.00  0.00     0.321 C 
HETATM    3  O   UNL     1     -40.346 -49.410  12.634  1.00  0.00    -0.247 OA
HETATM    4  N   UNL     1     -41.341 -48.978  10.580  1.00  0.00    -0.293 N 
HETATM    5  H   UNL     1     -40.938 -51.413  10.333  1.00  0.00     0.164 HD
HETATM    6  H   UNL     1     -41.876 -49.410   9.848  1.00  0.00     0.172 HD
ENDROOT
BRANCH   1   7
HETATM    7  C   UNL     1     -40.499 -52.068  12.271  1.00  0.00     0.159 C 
BRANCH   7   8
HETATM    8  C   UNL     1     -41.587 -52.690  13.175  1.00  0.00     0.236 C 
HETATM    9  C   UNL     1     -41.156 -54.135  13.469  1.00  0.00     0.044 C 
BRANCH   8  10
HETATM   10  N   UNL     1     -42.969 -52.437  12.689  1.00  0.00     0.094 N 
HETATM   11  C   UNL     1     -43.643 -51.281  13.292  1.00  0.00     0.273 C 
HETATM   12  C   UNL     1     -44.347 -51.558  14.625  1.00  0.00     0.031 C 
HETATM   13  C   UNL     1     -45.211 -52.816  14.595  1.00  0.00     0.007 C 
HETATM   14  C   UNL     1     -44.508 -54.000  13.922  1.00  0.00     0.010 C 
HETATM   15  C   UNL     1     -45.470 -55.172  13.734  1.00  0.00     0.011 C 
HETATM   16  C   UNL     1     -43.889 -53.575  12.586  1.00  0.00     0.277 C 
ENDBRANCH   8  10
ENDBRANCH   7   8
ENDBRANCH   1   7
BRANCH   4  17
HETATM   17  C   UNL     1     -41.309 -47.594  10.626  1.00  0.00     0.132 A 
HETATM   18  C   UNL     1     -42.457 -46.778  10.769  1.00  0.00     0.084 A 
HETATM   19  C   UNL     1     -41.970 -45.494  10.789  1.00  0.00     0.076 A 
HETATM   20  C   UNL     1     -42.564 -44.154  10.934  1.00  0.00     0.079 C 
HETATM   21  O   UNL     1     -40.622 -45.530  10.650  1.00  0.00    -0.241 OA
HETATM   22  N   UNL     1     -40.211 -46.838  10.538  1.00  0.00    -0.245 N 
ATOM     23  HN  UNL     1     -39.253 -47.167  10.413  1.00  0.00     0.196 HD
ENDBRANCH   4  17
TORSDOF 4
ENDMDL
MODEL 2
REMARK VINA RESULT:      -6.2      1.732      2.367
REMARK  4 active torsions:
REMARK  status: ('A' for Active; 'I' for Inactive)
REMARK    1  A    between atoms: C_2  and  C_3 
REMARK    2  A    between atoms: C_2  and  N_15 
REMARK    3  A    between atoms: C_3  and  N_4 
REMARK       I    between atoms: N_4  and  C_5 
REMARK       I    between atoms: C_5  and  N_7 
REMARK    4  A    between atoms: N_7  and  C_8 
ROOT
HETATM    1  N   UNL     1     -42.578 -51.555  12.056  1.00  0.00    -0.341 N 
HETATM    2  C   UNL     1     -41.663 -50.523  12.173  1.00  0.00     0.321 C 
HETATM    3  O   UNL     1     -40.824 -50.516  13.065  1.00  0.00    -0.247 OA
HETATM    4  N   UNL     1     -41.852 -49.557  11.217  1.00  0.00    -0.293 N 
HETATM    5  H   UNL     1     -42.874 -51.814  11.125  1.00  0.00     0.164 HD
HETATM    6  H   UNL     1     -42.679 -49.609  10.649  1.00  0.00     0.172 HD
ENDROOT
BRANCH   1   7
HETATM    7  C   UNL     1     -42.445 -52.658  12.991  1.00  0.00     0.159 C 
BRANCH   7   8
HETATM    8  C   UNL     1     -43.236 -52.457  14.304  1.00  0.00     0.236 C 
HETATM    9  C   UNL     1     -42.263 -52.728  15.461  1.00  0.00     0.044 C 
BRANCH   8  10
HETATM   10  N   UNL     1     -44.558 -53.136  14.301  1.00  0.00     0.094 N 
HETATM   11  C   UNL     1     -45.269 -53.118  13.018  1.00  0.00     0.273 C 
HETATM   12  C   UNL     1     -46.105 -51.862  12.751  1.00  0.00     0.031 C 
HETATM   13  C   UNL     1     -46.984 -51.466  13.936  1.00  0.00     0.007 C 
HETATM   14  C   UNL     1     -46.238 -51.533  15.272  1.00  0.00     0.010 C 
HETATM   15  C   UNL     1     -47.196 -51.326  16.445  1.00  0.00     0.011 C 
HETATM   16  C   UNL     1     -45.482 -52.860  15.406  1.00  0.00     0.277 C 
ENDBRANCH   8  10
ENDBRANCH   7   8
ENDBRANCH   1   7
BRANCH   4  17
HETATM   17  C   UNL     1     -41.079 -48.411  11.125  1.00  0.00     0.132 A 
HETATM   18  C   UNL     1     -41.570 -47.154  10.698  1.00  0.00     0.084 A 
HETATM   19  C   UNL     1     -40.486 -46.313  10.780  1.00  0.00     0.076 A 
HETATM   20  C   UNL     1     -40.255 -44.881  10.527  1.00  0.00     0.079 C 
HETATM   21  O   UNL     1     -39.410 -47.017  11.209  1.00  0.00    -0.241 OA
HETATM   22  N   UNL     1     -39.777 -48.327  11.415  1.00  0.00    -0.245 N 
ATOM     23  HN  UNL     1     -39.172 -49.087  11.728  1.00  0.00     0.196 HD
ENDBRANCH   4  17
TORSDOF 4
ENDMDL
MODEL 3
REMARK VINA RESULT:      -6.1      3.536      7.143
REMARK  4 active torsions:
REMARK  status: ('A' for Active; 'I' for Inactive)
REMARK    1  A    between atoms: C_2  and  C_3 
REMARK    2  A    between atoms: C_2  and  N_15 
REMARK    3  A    between atoms: C_3  and  N_4 
REMARK       I    between atoms: N_4  and  C_5 
REMARK       I    between atoms: C_5  and  N_7 
REMARK    4  A    between atoms: N_7  and  C_8 
ROOT
HETATM    1  N   UNL     1     -40.284 -51.196  11.645  1.00  0.00    -0.341 N 
HETATM    2  C   UNL     1     -41.579 -51.388  12.098  1.00  0.00     0.321 C 
HETATM    3  O   UNL     1     -42.230 -50.465  12.571  1.00  0.00    -0.247 OA
HETATM    4  N   UNL     1     -41.979 -52.695  11.974  1.00  0.00    -0.293 N 
HETATM    5  H   UNL     1     -39.980 -51.747  10.854  1.00  0.00     0.164 HD
HETATM    6  H   UNL     1     -41.288 -53.379  11.721  1.00  0.00     0.172 HD
ENDROOT
BRANCH   1   7
HETATM    7  C   UNL     1     -39.771 -49.840  11.688  1.00  0.00     0.159 C 
BRANCH   7   8
HETATM    8  C   UNL     1     -38.534 -49.673  12.601  1.00  0.00     0.236 C 
HETATM    9  C   UNL     1     -37.469 -50.660  12.100  1.00  0.00     0.044 C 
BRANCH   8  10
HETATM   10  N   UNL     1     -38.872 -49.654  14.048  1.00  0.00     0.094 N 
HETATM   11  C   UNL     1     -39.573 -48.451  14.512  1.00  0.00     0.273 C 
HETATM   12  C   UNL     1     -38.669 -47.270  14.882  1.00  0.00     0.031 C 
HETATM   13  C   UNL     1     -37.498 -47.671  15.776  1.00  0.00     0.007 C 
HETATM   14  C   UNL     1     -36.806 -48.953  15.302  1.00  0.00     0.010 C 
HETATM   15  C   UNL     1     -35.775 -49.429  16.326  1.00  0.00     0.011 C 
HETATM   16  C   UNL     1     -37.836 -50.050  15.008  1.00  0.00     0.277 C 
ENDBRANCH   8  10
ENDBRANCH   7   8
ENDBRANCH   1   7
BRANCH   4  17
HETATM   17  C   UNL     1     -43.225 -53.153  12.369  1.00  0.00     0.132 A 
HETATM   18  C   UNL     1     -43.430 -54.283  13.197  1.00  0.00     0.084 A 
HETATM   19  C   UNL     1     -44.793 -54.358  13.350  1.00  0.00     0.076 A 
HETATM   20  C   UNL     1     -45.714 -55.243  14.084  1.00  0.00     0.079 C 
HETATM   21  O   UNL     1     -45.373 -53.355  12.647  1.00  0.00    -0.241 OA
HETATM   22  N   UNL     1     -44.397 -52.610  12.028  1.00  0.00    -0.245 N 
ATOM     23  HN  UNL     1     -44.541 -51.799  11.425  1.00  0.00     0.196 HD
ENDBRANCH   4  17
TORSDOF 4
ENDMDL
MODEL 4
REMARK VINA RESULT:      -6.1      2.583      7.128
REMARK  4 active torsions:
REMARK  status: ('A' for Active; 'I' for Inactive)
REMARK    1  A    between atoms: C_2  and  C_3 
REMARK    2  A    between atoms: C_2  and  N_15 
REMARK    3  A    between atoms: C_3  and  N_4 
REMARK       I    between atoms: N_4  and  C_5 
REMARK       I    between atoms: C_5  and  N_7 
REMARK    4  A    between atoms: N_7  and  C_8 
ROOT
HETATM    1  N   UNL     1     -40.723 -51.789  11.597  1.00  0.00    -0.341 N 
HETATM    2  C   UNL     1     -41.828 -52.025  12.398  1.00  0.00     0.321 C 
HETATM    3  O   UNL     1     -41.851 -51.672  13.570  1.00  0.00    -0.247 OA
HETATM    4  N   UNL     1     -42.815 -52.703  11.726  1.00  0.00    -0.293 N 
HETATM    5  H   UNL     1     -40.887 -51.605  10.617  1.00  0.00     0.164 HD
HETATM    6  H   UNL     1     -42.599 -53.074  10.818  1.00  0.00     0.172 HD
ENDROOT
BRANCH   1   7
HETATM    7  C   UNL     1     -39.632 -51.039  12.193  1.00  0.00     0.159 C 
BRANCH   7   8
HETATM    8  C   UNL     1     -39.482 -49.608  11.626  1.00  0.00     0.236 C 
HETATM    9  C   UNL     1     -37.999 -49.227  11.755  1.00  0.00     0.044 C 
BRANCH   8  10
HETATM   10  N   UNL     1     -40.513 -48.665  12.134  1.00  0.00     0.094 N 
HETATM   11  C   UNL     1     -41.071 -47.750  11.133  1.00  0.00     0.273 C 
HETATM   12  C   UNL     1     -40.264 -46.469  10.896  1.00  0.00     0.031 C 
HETATM   13  C   UNL     1     -39.853 -45.773  12.192  1.00  0.00     0.007 C 
HETATM   14  C   UNL     1     -39.314 -46.750  13.241  1.00  0.00     0.010 C 
HETATM   15  C   UNL     1     -39.103 -46.050  14.583  1.00  0.00     0.011 C 
HETATM   16  C   UNL     1     -40.248 -47.957  13.390  1.00  0.00     0.277 C 
ENDBRANCH   8  10
ENDBRANCH   7   8
ENDBRANCH   1   7
BRANCH   4  17
HETATM   17  C   UNL     1     -44.016 -53.075  12.306  1.00  0.00     0.132 A 
HETATM   18  C   UNL     1     -44.151 -54.122  13.249  1.00  0.00     0.084 A 
HETATM   19  C   UNL     1     -45.488 -54.129  13.569  1.00  0.00     0.076 A 
HETATM   20  C   UNL     1     -46.337 -54.911  14.484  1.00  0.00     0.079 C 
HETATM   21  O   UNL     1     -46.119 -53.165  12.856  1.00  0.00    -0.241 OA
HETATM   22  N   UNL     1     -45.205 -52.514  12.061  1.00  0.00    -0.245 N 
ATOM     23  HN  UNL     1     -45.396 -51.752  11.411  1.00  0.00     0.196 HD
ENDBRANCH   4  17
TORSDOF 4
ENDMDL
MODEL 5
REMARK VINA RESULT:      -6.0      1.961      2.761
REMARK  4 active torsions:
REMARK  status: ('A' for Active; 'I' for Inactive)
REMARK    1  A    between atoms: C_2  and  C_3 
REMARK    2  A    between atoms: C_2  and  N_15 
REMARK    3  A    between atoms: C_3  and  N_4 
REMARK       I    between atoms: N_4  and  C_5 
REMARK       I    between atoms: C_5  and  N_7 
REMARK    4  A    between atoms: N_7  and  C_8 
ROOT
HETATM    1  N   UNL     1     -40.492 -50.779  11.477  1.00  0.00    -0.341 N 
HETATM    2  C   UNL     1     -40.718 -49.416  11.375  1.00  0.00     0.321 C 
HETATM    3  O   UNL     1     -40.181 -48.624  12.138  1.00  0.00    -0.247 OA
HETATM    4  N   UNL     1     -41.605 -49.117  10.371  1.00  0.00    -0.293 N 
HETATM    5  H   UNL     1     -40.492 -51.319  10.623  1.00  0.00     0.164 HD
HETATM    6  H   UNL     1     -42.094 -49.875   9.929  1.00  0.00     0.172 HD
ENDROOT
BRANCH   1   7
HETATM    7  C   UNL     1     -39.534 -51.209  12.479  1.00  0.00     0.159 C 
BRANCH   7   8
HETATM    8  C   UNL     1     -40.180 -51.924  13.688  1.00  0.00     0.236 C 
HETATM    9  C   UNL     1     -39.558 -51.319  14.955  1.00  0.00     0.044 C 
BRANCH   8  10
HETATM   10  N   UNL     1     -40.220 -53.403  13.542  1.00  0.00     0.094 N 
HETATM   11  C   UNL     1     -41.409 -53.935  12.866  1.00  0.00     0.273 C 
HETATM   12  C   UNL     1     -42.625 -54.164  13.769  1.00  0.00     0.031 C 
HETATM   13  C   UNL     1     -42.282 -54.902  15.061  1.00  0.00     0.007 C 
HETATM   14  C   UNL     1     -41.013 -54.363  15.729  1.00  0.00     0.010 C 
HETATM   15  C   UNL     1     -40.593 -55.250  16.901  1.00  0.00     0.011 C 
HETATM   16  C   UNL     1     -39.878 -54.225  14.707  1.00  0.00     0.277 C 
ENDBRANCH   8  10
ENDBRANCH   7   8
ENDBRANCH   1   7
BRANCH   4  17
HETATM   17  C   UNL     1     -42.012 -47.827  10.072  1.00  0.00     0.132 A 
HETATM   18  C   UNL     1     -43.328 -47.480   9.682  1.00  0.00     0.084 A 
HETATM   19  C   UNL     1     -43.290 -46.117   9.509  1.00  0.00     0.076 A 
HETATM   20  C   UNL     1     -44.273 -45.084   9.141  1.00  0.00     0.079 C 
HETATM   21  O   UNL     1     -42.034 -45.674   9.760  1.00  0.00    -0.241 OA
HETATM   22  N   UNL     1     -41.235 -46.740  10.101  1.00  0.00    -0.245 N 
ATOM     23  HN  UNL     1     -40.242 -46.707  10.331  1.00  0.00     0.196 HD
ENDBRANCH   4  17
TORSDOF 4
ENDMDL
MODEL 6
REMARK VINA RESULT:      -6.0      2.072      7.449
REMARK  4 active torsions:
REMARK  status: ('A' for Active; 'I' for Inactive)
REMARK    1  A    between atoms: C_2  and  C_3 
REMARK    2  A    between atoms: C_2  and  N_15 
REMARK    3  A    between atoms: C_3  and  N_4 
REMARK       I    between atoms: N_4  and  C_5 
REMARK       I    between atoms: C_5  and  N_7 
REMARK    4  A    between atoms: N_7  and  C_8 
ROOT
HETATM    1  N   UNL     1     -40.828 -50.594  11.070  1.00  0.00    -0.341 N 
HETATM    2  C   UNL     1     -41.430 -51.269  12.119  1.00  0.00     0.321 C 
HETATM    3  O   UNL     1     -41.288 -50.899  13.278  1.00  0.00    -0.247 OA
HETATM    4  N   UNL     1     -42.136 -52.365  11.688  1.00  0.00    -0.293 N 
HETATM    5  H   UNL     1     -41.321 -50.565  10.189  1.00  0.00     0.164 HD
HETATM    6  H   UNL     1     -42.034 -52.645  10.729  1.00  0.00     0.172 HD
ENDROOT
BRANCH   1   7
HETATM    7  C   UNL     1     -40.089 -49.391  11.405  1.00  0.00     0.159 C 
BRANCH   7   8
HETATM    8  C   UNL     1     -40.951 -48.107  11.381  1.00  0.00     0.236 C 
HETATM    9  C   UNL     1     -41.905 -48.228  10.184  1.00  0.00     0.044 C 
BRANCH   8  10
HETATM   10  N   UNL     1     -40.153 -46.863  11.543  1.00  0.00     0.094 N 
HETATM   11  C   UNL     1     -39.601 -46.643  12.884  1.00  0.00     0.273 C 
HETATM   12  C   UNL     1     -40.548 -45.961  13.877  1.00  0.00     0.031 C 
HETATM   13  C   UNL     1     -41.237 -44.729  13.297  1.00  0.00     0.007 C 
HETATM   14  C   UNL     1     -41.769 -44.963  11.880  1.00  0.00     0.010 C 
HETATM   15  C   UNL     1     -42.270 -43.658  11.261  1.00  0.00     0.011 C 
HETATM   16  C   UNL     1     -40.697 -45.614  10.998  1.00  0.00     0.277 C 
ENDBRANCH   8  10
ENDBRANCH   7   8
ENDBRANCH   1   7
BRANCH   4  17
HETATM   17  C   UNL     1     -42.817 -53.217  12.541  1.00  0.00     0.132 A 
HETATM   18  C   UNL     1     -44.203 -53.490  12.449  1.00  0.00     0.084 A 
HETATM   19  C   UNL     1     -44.447 -54.389  13.459  1.00  0.00     0.076 A 
HETATM   20  C   UNL     1     -45.631 -55.121  13.942  1.00  0.00     0.079 C 
HETATM   21  O   UNL     1     -43.292 -54.629  14.127  1.00  0.00    -0.241 OA
HETATM   22  N   UNL     1     -42.278 -53.891  13.561  1.00  0.00    -0.245 N 
ATOM     23  HN  UNL     1     -41.304 -53.865  13.862  1.00  0.00     0.196 HD
ENDBRANCH   4  17
TORSDOF 4
ENDMDL
MODEL 7
REMARK VINA RESULT:      -5.9      3.333      4.829
REMARK  4 active torsions:
REMARK  status: ('A' for Active; 'I' for Inactive)
REMARK    1  A    between atoms: C_2  and  C_3 
REMARK    2  A    between atoms: C_2  and  N_15 
REMARK    3  A    between atoms: C_3  and  N_4 
REMARK       I    between atoms: N_4  and  C_5 
REMARK       I    between atoms: C_5  and  N_7 
REMARK    4  A    between atoms: N_7  and  C_8 
ROOT
HETATM    1  N   UNL     1     -44.024 -52.697  12.136  1.00  0.00    -0.341 N 
HETATM    2  C   UNL     1     -42.719 -52.582  12.585  1.00  0.00     0.321 C 
HETATM    3  O   UNL     1     -42.351 -53.129  13.616  1.00  0.00    -0.247 OA
HETATM    4  N   UNL     1     -41.962 -51.784  11.763  1.00  0.00    -0.293 N 
HETATM    5  H   UNL     1     -44.175 -52.709  11.137  1.00  0.00     0.164 HD
HETATM    6  H   UNL     1     -42.431 -51.268  11.041  1.00  0.00     0.172 HD
ENDROOT
BRANCH   1   7
HETATM    7  C   UNL     1     -44.906 -53.555  12.905  1.00  0.00     0.159 C 
BRANCH   7   8
HETATM    8  C   UNL     1     -45.930 -52.780  13.766  1.00  0.00     0.236 C 
HETATM    9  C   UNL     1     -46.714 -51.862  12.816  1.00  0.00     0.044 C 
BRANCH   8  10
HETATM   10  N   UNL     1     -45.337 -52.201  15.000  1.00  0.00     0.094 N 
HETATM   11  C   UNL     1     -44.729 -53.170  15.918  1.00  0.00     0.273 C 
HETATM   12  C   UNL     1     -45.697 -53.836  16.901  1.00  0.00     0.031 C 
HETATM   13  C   UNL     1     -46.621 -52.840  17.597  1.00  0.00     0.007 C 
HETATM   14  C   UNL     1     -47.213 -51.809  16.632  1.00  0.00     0.010 C 
HETATM   15  C   UNL     1     -47.966 -50.717  17.391  1.00  0.00     0.011 C 
HETATM   16  C   UNL     1     -46.118 -51.206  15.744  1.00  0.00     0.277 C 
ENDBRANCH   8  10
ENDBRANCH   7   8
ENDBRANCH   1   7
BRANCH   4  17
HETATM   17  C   UNL     1     -40.627 -51.495  11.998  1.00  0.00     0.132 A 
HETATM   18  C   UNL     1     -39.955 -50.366  11.472  1.00  0.00     0.084 A 
HETATM   19  C   UNL     1     -38.677 -50.462  11.968  1.00  0.00     0.076 A 
HETATM   20  C   UNL     1     -37.455 -49.645  11.868  1.00  0.00     0.079 C 
HETATM   21  O   UNL     1     -38.579 -51.580  12.727  1.00  0.00    -0.241 OA
HETATM   22  N   UNL     1     -39.791 -52.230  12.738  1.00  0.00    -0.245 N 
ATOM     23  HN  UNL     1     -40.010 -53.103  13.218  1.00  0.00     0.196 HD
ENDBRANCH   4  17
TORSDOF 4
ENDMDL
MODEL 8
REMARK VINA RESULT:      -5.8      1.494      2.217
REMARK  4 active torsions:
REMARK  status: ('A' for Active; 'I' for Inactive)
REMARK    1  A    between atoms: C_2  and  C_3 
REMARK    2  A    between atoms: C_2  and  N_15 
REMARK    3  A    between atoms: C_3  and  N_4 
REMARK       I    between atoms: N_4  and  C_5 
REMARK       I    between atoms: C_5  and  N_7 
REMARK    4  A    between atoms: N_7  and  C_8 
ROOT
HETATM    1  N   UNL     1     -42.022 -50.873  11.934  1.00  0.00    -0.341 N 
HETATM    2  C   UNL     1     -42.206 -49.507  11.800  1.00  0.00     0.321 C 
HETATM    3  O   UNL     1     -43.154 -48.939  12.327  1.00  0.00    -0.247 OA
HETATM    4  N   UNL     1     -41.242 -48.933  11.009  1.00  0.00    -0.293 N 
HETATM    5  H   UNL     1     -41.072 -51.216  11.963  1.00  0.00     0.164 HD
HETATM    6  H   UNL     1     -40.617 -49.541  10.509  1.00  0.00     0.172 HD
ENDROOT
BRANCH   1   7
HETATM    7  C   UNL     1     -42.960 -51.579  12.787  1.00  0.00     0.159 C 
BRANCH   7   8
HETATM    8  C   UNL     1     -42.285 -52.565  13.769  1.00  0.00     0.236 C 
HETATM    9  C   UNL     1     -41.560 -53.620  12.920  1.00  0.00     0.044 C 
BRANCH   8  10
HETATM   10  N   UNL     1     -43.188 -53.016  14.860  1.00  0.00     0.094 N 
HETATM   11  C   UNL     1     -43.564 -54.433  14.817  1.00  0.00     0.273 C 
HETATM   12  C   UNL     1     -44.762 -54.765  13.921  1.00  0.00     0.031 C 
HETATM   13  C   UNL     1     -45.949 -53.830  14.139  1.00  0.00     0.007 C 
HETATM   14  C   UNL     1     -45.533 -52.358  14.226  1.00  0.00     0.010 C 
HETATM   15  C   UNL     1     -46.713 -51.479  14.642  1.00  0.00     0.011 C 
HETATM   16  C   UNL     1     -44.351 -52.183  15.186  1.00  0.00     0.277 C 
ENDBRANCH   8  10
ENDBRANCH   7   8
ENDBRANCH   1   7
BRANCH   4  17
HETATM   17  C   UNL     1     -41.208 -47.582  10.706  1.00  0.00     0.132 A 
HETATM   18  C   UNL     1     -40.227 -46.684  11.191  1.00  0.00     0.084 A 
HETATM   19  C   UNL     1     -40.558 -45.473  10.632  1.00  0.00     0.076 A 
HETATM   20  C   UNL     1     -39.986 -44.117  10.666  1.00  0.00     0.079 C 
HETATM   21  O   UNL     1     -41.673 -45.625   9.876  1.00  0.00    -0.241 OA
HETATM   22  N   UNL     1     -42.084 -46.937   9.930  1.00  0.00    -0.245 N 
ATOM     23  HN  UNL     1     -42.899 -47.339   9.467  1.00  0.00     0.196 HD
ENDBRANCH   4  17
TORSDOF 4
ENDMDL
MODEL 9
REMARK VINA RESULT:      -5.7      1.927      3.019
REMARK  4 active torsions:
REMARK  status: ('A' for Active; 'I' for Inactive)
REMARK    1  A    between atoms: C_2  and  C_3 
REMARK    2  A    between atoms: C_2  and  N_15 
REMARK    3  A    between atoms: C_3  and  N_4 
REMARK       I    between atoms: N_4  and  C_5 
REMARK       I    between atoms: C_5  and  N_7 
REMARK    4  A    between atoms: N_7  and  C_8 
ROOT
HETATM    1  N   UNL     1     -41.908 -51.558  11.861  1.00  0.00    -0.341 N 
HETATM    2  C   UNL     1     -41.352 -50.311  11.629  1.00  0.00     0.321 C 
HETATM    3  O   UNL     1     -40.141 -50.135  11.685  1.00  0.00    -0.247 OA
HETATM    4  N   UNL     1     -42.308 -49.360  11.375  1.00  0.00    -0.293 N 
HETATM    5  H   UNL     1     -42.741 -51.801  11.343  1.00  0.00     0.164 HD
HETATM    6  H   UNL     1     -43.271 -49.607  11.521  1.00  0.00     0.172 HD
ENDROOT
BRANCH   1   7
HETATM    7  C   UNL     1     -40.985 -52.652  12.097  1.00  0.00     0.159 C 
BRANCH   7   8
HETATM    8  C   UNL     1     -41.452 -53.630  13.200  1.00  0.00     0.236 C 
HETATM    9  C   UNL     1     -42.974 -53.775  13.059  1.00  0.00     0.044 C 
BRANCH   8  10
HETATM   10  N   UNL     1     -40.880 -53.320  14.537  1.00  0.00     0.094 N 
HETATM   11  C   UNL     1     -39.436 -53.540  14.667  1.00  0.00     0.273 C 
HETATM   12  C   UNL     1     -39.022 -54.975  15.012  1.00  0.00     0.031 C 
HETATM   13  C   UNL     1     -39.831 -55.571  16.161  1.00  0.00     0.007 C 
HETATM   14  C   UNL     1     -41.332 -55.294  16.032  1.00  0.00     0.010 C 
HETATM   15  C   UNL     1     -42.079 -55.729  17.293  1.00  0.00     0.011 C 
HETATM   16  C   UNL     1     -41.586 -53.813  15.725  1.00  0.00     0.277 C 
ENDBRANCH   8  10
ENDBRANCH   7   8
ENDBRANCH   1   7
BRANCH   4  17
HETATM   17  C   UNL     1     -42.015 -48.029  11.126  1.00  0.00     0.132 A 
HETATM   18  C   UNL     1     -42.835 -46.947  11.527  1.00  0.00     0.084 A 
HETATM   19  C   UNL     1     -42.163 -45.827  11.102  1.00  0.00     0.076 A 
HETATM   20  C   UNL     1     -42.394 -44.375  11.188  1.00  0.00     0.079 C 
HETATM   21  O   UNL     1     -41.024 -46.206  10.472  1.00  0.00    -0.241 OA
HETATM   22  N   UNL     1     -40.936 -47.579  10.478  1.00  0.00    -0.245 N 
ATOM     23  HN  UNL     1     -40.192 -48.143  10.069  1.00  0.00     0.196 HD
ENDBRANCH   4  17
TORSDOF 4
ENDMDL
