MODEL 1
REMARK VINA RESULT:      -6.3      0.000      0.000
REMARK  5 active torsions:
REMARK  status: ('A' for Active; 'I' for Inactive)
REMARK    1  A    between atoms: O_2  and  C_3 
REMARK    2  A    between atoms: C_6  and  N_7 
REMARK       I    between atoms: N_7  and  C_8 
REMARK       I    between atoms: C_8  and  N_10 
REMARK    3  A    between atoms: N_10  and  C_11 
REMARK    4  A    between atoms: C_11  and  C_12 
REMARK    5  A    between atoms: C_12  and  N_13 
ROOT
HETATM    1  N   UNL     1     -41.284 -49.211  10.534  1.00  0.00    -0.308 N 
HETATM    2  C   UNL     1     -41.164 -49.975  11.673  1.00  0.00     0.320 C 
HETATM    3  O   UNL     1     -41.383 -49.598  12.816  1.00  0.00    -0.247 OA
HETATM    4  N   UNL     1     -40.775 -51.264  11.392  1.00  0.00    -0.341 N 
HETATM    5  H   UNL     1     -41.345 -49.716   9.660  1.00  0.00     0.170 HD
HETATM    6  H   UNL     1     -40.145 -51.330  10.605  1.00  0.00     0.164 HD
ENDROOT
BRANCH   1   7
HETATM    7  C   UNL     1     -41.613 -47.841  10.533  1.00  0.00     0.051 A 
HETATM    8  C   UNL     1     -40.682 -46.830  10.773  1.00  0.00     0.035 A 
HETATM    9  C   UNL     1     -41.082 -45.504  10.797  1.00  0.00     0.058 A 
HETATM   10  C   UNL     1     -42.411 -45.214  10.557  1.00  0.00     0.141 A 
HETATM   11  N   UNL     1     -43.351 -46.152  10.294  1.00  0.00    -0.345 N 
HETATM   12  C   UNL     1     -42.925 -47.438  10.284  1.00  0.00     0.119 A 
ATOM     13  HN  UNL     1     -44.324 -45.905  10.114  1.00  0.00     0.167 HD
BRANCH  10  14
HETATM   14  O   UNL     1     -42.734 -43.873  10.570  1.00  0.00    -0.341 OA
HETATM   15  C   UNL     1     -42.733 -43.309  11.873  1.00  0.00     0.211 C 
ENDBRANCH  10  14
ENDBRANCH   1   7
BRANCH   4  16
HETATM   16  C   UNL     1     -40.425 -52.125  12.511  1.00  0.00     0.154 C 
BRANCH  16  17
HETATM   17  C   UNL     1     -41.327 -53.374  12.734  1.00  0.00     0.292 C 
BRANCH  17  18
HETATM   18  N   UNL     1     -42.293 -53.097  13.804  1.00  0.00     0.095 N 
HETATM   19  C   UNL     1     -41.920 -53.649  15.109  1.00  0.00     0.303 C 
HETATM   20  C   UNL     1     -42.385 -55.095  15.314  1.00  0.00     0.146 C 
HETATM   21  C   UNL     1     -41.912 -55.597  16.671  1.00  0.00     0.041 C 
HETATM   22  O   UNL     1     -43.815 -55.127  15.278  1.00  0.00    -0.378 OA
HETATM   23  C   UNL     1     -44.291 -54.740  13.979  1.00  0.00     0.146 C 
HETATM   24  C   UNL     1     -45.813 -54.655  14.088  1.00  0.00     0.041 C 
HETATM   25  C   UNL     1     -43.705 -53.383  13.492  1.00  0.00     0.303 C 
ENDBRANCH  17  18
ENDBRANCH  16  17
ENDBRANCH   4  16
TORSDOF 5
ENDMDL
MODEL 2
REMARK VINA RESULT:      -6.1      1.358      2.112
REMARK  5 active torsions:
REMARK  status: ('A' for Active; 'I' for Inactive)
REMARK    1  A    between atoms: O_2  and  C_3 
REMARK    2  A    between atoms: C_6  and  N_7 
REMARK       I    between atoms: N_7  and  C_8 
REMARK       I    between atoms: C_8  and  N_10 
REMARK    3  A    between atoms: N_10  and  C_11 
REMARK    4  A    between atoms: C_11  and  C_12 
REMARK    5  A    between atoms: C_12  and  N_13 
ROOT
HETATM    1  N   UNL     1     -40.996 -49.398  10.613  1.00  0.00    -0.308 N 
HETATM    2  C   UNL     1     -41.042 -50.176  11.748  1.00  0.00     0.320 C 
HETATM    3  O   UNL     1     -41.396 -49.806  12.859  1.00  0.00    -0.247 OA
HETATM    4  N   UNL     1     -40.654 -51.473  11.502  1.00  0.00    -0.341 N 
HETATM    5  H   UNL     1     -40.958 -49.892   9.733  1.00  0.00     0.170 HD
HETATM    6  H   UNL     1     -39.930 -51.548  10.801  1.00  0.00     0.164 HD
ENDROOT
BRANCH   1   7
HETATM    7  C   UNL     1     -41.287 -48.020  10.590  1.00  0.00     0.051 A 
HETATM    8  C   UNL     1     -42.474 -47.497  10.076  1.00  0.00     0.035 A 
HETATM    9  C   UNL     1     -42.679 -46.127  10.048  1.00  0.00     0.058 A 
HETATM   10  C   UNL     1     -41.694 -45.305  10.558  1.00  0.00     0.141 A 
HETATM   11  N   UNL     1     -40.535 -45.759  11.090  1.00  0.00    -0.345 N 
HETATM   12  C   UNL     1     -40.366 -47.103  11.096  1.00  0.00     0.119 A 
ATOM     13  HN  UNL     1     -39.829 -45.126  11.466  1.00  0.00     0.167 HD
BRANCH  10  14
HETATM   14  O   UNL     1     -41.975 -43.955  10.522  1.00  0.00    -0.341 OA
HETATM   15  C   UNL     1     -40.980 -43.159  11.147  1.00  0.00     0.211 C 
ENDBRANCH  10  14
ENDBRANCH   1   7
BRANCH   4  16
HETATM   16  C   UNL     1     -40.471 -52.355  12.644  1.00  0.00     0.154 C 
BRANCH  16  17
HETATM   17  C   UNL     1     -41.421 -53.585  12.729  1.00  0.00     0.292 C 
BRANCH  17  18
HETATM   18  N   UNL     1     -42.090 -53.600  14.035  1.00  0.00     0.095 N 
HETATM   19  C   UNL     1     -43.144 -54.610  14.160  1.00  0.00     0.303 C 
HETATM   20  C   UNL     1     -44.514 -54.125  13.671  1.00  0.00     0.146 C 
HETATM   21  C   UNL     1     -45.529 -55.251  13.793  1.00  0.00     0.041 C 
HETATM   22  O   UNL     1     -44.932 -53.029  14.490  1.00  0.00    -0.378 OA
HETATM   23  C   UNL     1     -44.038 -51.915  14.331  1.00  0.00     0.146 C 
HETATM   24  C   UNL     1     -44.475 -50.866  15.353  1.00  0.00     0.041 C 
HETATM   25  C   UNL     1     -42.544 -52.294  14.547  1.00  0.00     0.303 C 
ENDBRANCH  17  18
ENDBRANCH  16  17
ENDBRANCH   4  16
TORSDOF 5
ENDMDL
MODEL 3
REMARK VINA RESULT:      -5.9      1.005      2.031
REMARK  5 active torsions:
REMARK  status: ('A' for Active; 'I' for Inactive)
REMARK    1  A    between atoms: O_2  and  C_3 
REMARK    2  A    between atoms: C_6  and  N_7 
REMARK       I    between atoms: N_7  and  C_8 
REMARK       I    between atoms: C_8  and  N_10 
REMARK    3  A    between atoms: N_10  and  C_11 
REMARK    4  A    between atoms: C_11  and  C_12 
REMARK    5  A    between atoms: C_12  and  N_13 
ROOT
HETATM    1  N   UNL     1     -41.154 -48.861  10.678  1.00  0.00    -0.308 N 
HETATM    2  C   UNL     1     -41.637 -49.671  11.681  1.00  0.00     0.320 C 
HETATM    3  O   UNL     1     -42.213 -49.296  12.693  1.00  0.00    -0.247 OA
HETATM    4  N   UNL     1     -41.419 -51.004  11.419  1.00  0.00    -0.341 N 
HETATM    5  H   UNL     1     -40.961 -49.310   9.794  1.00  0.00     0.170 HD
HETATM    6  H   UNL     1     -40.555 -51.179  10.925  1.00  0.00     0.164 HD
ENDROOT
BRANCH   1   7
HETATM    7  C   UNL     1     -41.193 -47.453  10.714  1.00  0.00     0.051 A 
HETATM    8  C   UNL     1     -40.100 -46.666  11.080  1.00  0.00     0.035 A 
HETATM    9  C   UNL     1     -40.219 -45.287  11.131  1.00  0.00     0.058 A 
HETATM   10  C   UNL     1     -41.431 -44.719  10.792  1.00  0.00     0.141 A 
HETATM   11  N   UNL     1     -42.515 -45.432  10.406  1.00  0.00    -0.345 N 
HETATM   12  C   UNL     1     -42.365 -46.778  10.372  1.00  0.00     0.119 A 
ATOM     13  HN  UNL     1     -43.395 -44.982  10.154  1.00  0.00     0.167 HD
BRANCH  10  14
HETATM   14  O   UNL     1     -41.472 -43.341  10.841  1.00  0.00    -0.341 OA
HETATM   15  C   UNL     1     -42.776 -42.826  11.060  1.00  0.00     0.211 C 
ENDBRANCH  10  14
ENDBRANCH   1   7
BRANCH   4  16
HETATM   16  C   UNL     1     -41.705 -51.959  12.478  1.00  0.00     0.154 C 
BRANCH  16  17
HETATM   17  C   UNL     1     -43.192 -52.386  12.644  1.00  0.00     0.292 C 
BRANCH  17  18
HETATM   18  N   UNL     1     -43.262 -53.823  12.932  1.00  0.00     0.095 N 
HETATM   19  C   UNL     1     -44.621 -54.332  13.134  1.00  0.00     0.303 C 
HETATM   20  C   UNL     1     -45.109 -54.206  14.581  1.00  0.00     0.146 C 
HETATM   21  C   UNL     1     -46.541 -54.712  14.684  1.00  0.00     0.041 C 
HETATM   22  O   UNL     1     -44.271 -55.007  15.420  1.00  0.00    -0.378 OA
HETATM   23  C   UNL     1     -42.926 -54.501  15.412  1.00  0.00     0.146 C 
HETATM   24  C   UNL     1     -42.086 -55.503  16.202  1.00  0.00     0.041 C 
HETATM   25  C   UNL     1     -42.349 -54.320  13.978  1.00  0.00     0.303 C 
ENDBRANCH  17  18
ENDBRANCH  16  17
ENDBRANCH   4  16
TORSDOF 5
ENDMDL
MODEL 4
REMARK VINA RESULT:      -5.9      1.577      1.963
REMARK  5 active torsions:
REMARK  status: ('A' for Active; 'I' for Inactive)
REMARK    1  A    between atoms: O_2  and  C_3 
REMARK    2  A    between atoms: C_6  and  N_7 
REMARK       I    between atoms: N_7  and  C_8 
REMARK       I    between atoms: C_8  and  N_10 
REMARK    3  A    between atoms: N_10  and  C_11 
REMARK    4  A    between atoms: C_11  and  C_12 
REMARK    5  A    between atoms: C_12  and  N_13 
ROOT
HETATM    1  N   UNL     1     -40.947 -47.496  10.343  1.00  0.00    -0.308 N 
HETATM    2  C   UNL     1     -40.853 -48.486  11.296  1.00  0.00     0.320 C 
HETATM    3  O   UNL     1     -41.051 -48.349  12.496  1.00  0.00    -0.247 OA
HETATM    4  N   UNL     1     -40.518 -49.702  10.748  1.00  0.00    -0.341 N 
HETATM    5  H   UNL     1     -41.033 -47.805   9.385  1.00  0.00     0.170 HD
HETATM    6  H   UNL     1     -39.895 -49.626   9.955  1.00  0.00     0.164 HD
ENDROOT
BRANCH   1   7
HETATM    7  C   UNL     1     -41.220 -46.145  10.633  1.00  0.00     0.051 A 
HETATM    8  C   UNL     1     -40.224 -45.189  10.835  1.00  0.00     0.035 A 
HETATM    9  C   UNL     1     -40.563 -43.885  11.155  1.00  0.00     0.058 A 
HETATM   10  C   UNL     1     -41.901 -43.558  11.247  1.00  0.00     0.141 A 
HETATM   11  N   UNL     1     -42.908 -44.438  11.036  1.00  0.00    -0.345 N 
HETATM   12  C   UNL     1     -42.540 -45.705  10.730  1.00  0.00     0.119 A 
ATOM     13  HN  UNL     1     -43.888 -44.163  11.104  1.00  0.00     0.167 HD
BRANCH  10  14
HETATM   14  O   UNL     1     -42.167 -42.237  11.544  1.00  0.00    -0.341 OA
HETATM   15  C   UNL     1     -43.527 -41.881  11.347  1.00  0.00     0.211 C 
ENDBRANCH  10  14
ENDBRANCH   1   7
BRANCH   4  16
HETATM   16  C   UNL     1     -40.198 -50.791  11.657  1.00  0.00     0.154 C 
BRANCH  16  17
HETATM   17  C   UNL     1     -41.308 -51.859  11.878  1.00  0.00     0.292 C 
BRANCH  17  18
HETATM   18  N   UNL     1     -41.505 -52.072  13.317  1.00  0.00     0.095 N 
HETATM   19  C   UNL     1     -40.337 -52.622  14.010  1.00  0.00     0.303 C 
HETATM   20  C   UNL     1     -40.276 -54.154  13.979  1.00  0.00     0.146 C 
HETATM   21  C   UNL     1     -39.011 -54.630  14.676  1.00  0.00     0.041 C 
HETATM   22  O   UNL     1     -41.414 -54.673  14.673  1.00  0.00    -0.378 OA
HETATM   23  C   UNL     1     -42.625 -54.312  13.988  1.00  0.00     0.146 C 
HETATM   24  C   UNL     1     -43.776 -54.773  14.882  1.00  0.00     0.041 C 
HETATM   25  C   UNL     1     -42.736 -52.786  13.704  1.00  0.00     0.303 C 
ENDBRANCH  17  18
ENDBRANCH  16  17
ENDBRANCH   4  16
TORSDOF 5
ENDMDL
MODEL 5
REMARK VINA RESULT:      -5.8      1.624      2.583
REMARK  5 active torsions:
REMARK  status: ('A' for Active; 'I' for Inactive)
REMARK    1  A    between atoms: O_2  and  C_3 
REMARK    2  A    between atoms: C_6  and  N_7 
REMARK       I    between atoms: N_7  and  C_8 
REMARK       I    between atoms: C_8  and  N_10 
REMARK    3  A    between atoms: N_10  and  C_11 
REMARK    4  A    between atoms: C_11  and  C_12 
REMARK    5  A    between atoms: C_12  and  N_13 
ROOT
HETATM    1  N   UNL     1     -40.896 -48.481  10.648  1.00  0.00    -0.308 N 
HETATM    2  C   UNL     1     -41.428 -49.460  11.456  1.00  0.00     0.320 C 
HETATM    3  O   UNL     1     -42.240 -49.287  12.356  1.00  0.00    -0.247 OA
HETATM    4  N   UNL     1     -40.956 -50.711  11.133  1.00  0.00    -0.341 N 
HETATM    5  H   UNL     1     -40.468 -48.794   9.788  1.00  0.00     0.170 HD
HETATM    6  H   UNL     1     -39.997 -50.707  10.815  1.00  0.00     0.164 HD
ENDROOT
BRANCH   1   7
HETATM    7  C   UNL     1     -41.163 -47.106  10.795  1.00  0.00     0.051 A 
HETATM    8  C   UNL     1     -40.201 -46.177  11.193  1.00  0.00     0.035 A 
HETATM    9  C   UNL     1     -40.542 -44.844  11.355  1.00  0.00     0.058 A 
HETATM   10  C   UNL     1     -41.842 -44.463  11.093  1.00  0.00     0.141 A 
HETATM   11  N   UNL     1     -42.809 -45.316  10.680  1.00  0.00    -0.345 N 
HETATM   12  C   UNL     1     -42.442 -46.612  10.538  1.00  0.00     0.119 A 
ATOM     13  HN  UNL     1     -43.760 -45.001  10.488  1.00  0.00     0.167 HD
BRANCH  10  14
HETATM   14  O   UNL     1     -42.106 -43.117  11.250  1.00  0.00    -0.341 OA
HETATM   15  C   UNL     1     -40.954 -42.355  11.578  1.00  0.00     0.211 C 
ENDBRANCH  10  14
ENDBRANCH   1   7
BRANCH   4  16
HETATM   16  C   UNL     1     -41.285 -51.812  12.024  1.00  0.00     0.154 C 
BRANCH  16  17
HETATM   17  C   UNL     1     -40.216 -52.182  13.093  1.00  0.00     0.292 C 
BRANCH  17  18
HETATM   18  N   UNL     1     -40.137 -53.642  13.225  1.00  0.00     0.095 N 
HETATM   19  C   UNL     1     -41.424 -54.294  13.478  1.00  0.00     0.303 C 
HETATM   20  C   UNL     1     -41.789 -54.364  14.966  1.00  0.00     0.146 C 
HETATM   21  C   UNL     1     -43.157 -55.010  15.128  1.00  0.00     0.041 C 
HETATM   22  O   UNL     1     -40.814 -55.165  15.640  1.00  0.00    -0.378 OA
HETATM   23  C   UNL     1     -39.522 -54.536  15.579  1.00  0.00     0.146 C 
HETATM   24  C   UNL     1     -38.533 -55.532  16.183  1.00  0.00     0.041 C 
HETATM   25  C   UNL     1     -39.095 -54.156  14.132  1.00  0.00     0.303 C 
ENDBRANCH  17  18
ENDBRANCH  16  17
ENDBRANCH   4  16
TORSDOF 5
ENDMDL
MODEL 6
REMARK VINA RESULT:      -5.6      2.061      2.896
REMARK  5 active torsions:
REMARK  status: ('A' for Active; 'I' for Inactive)
REMARK    1  A    between atoms: O_2  and  C_3 
REMARK    2  A    between atoms: C_6  and  N_7 
REMARK       I    between atoms: N_7  and  C_8 
REMARK       I    between atoms: C_8  and  N_10 
REMARK    3  A    between atoms: N_10  and  C_11 
REMARK    4  A    between atoms: C_11  and  C_12 
REMARK    5  A    between atoms: C_12  and  N_13 
ROOT
HETATM    1  N   UNL     1     -40.293 -48.366  12.747  1.00  0.00    -0.308 N 
HETATM    2  C   UNL     1     -39.729 -49.598  12.504  1.00  0.00     0.320 C 
HETATM    3  O   UNL     1     -39.770 -50.211  11.446  1.00  0.00    -0.247 OA
HETATM    4  N   UNL     1     -39.069 -50.091  13.606  1.00  0.00    -0.341 N 
HETATM    5  H   UNL     1     -39.948 -47.867  13.555  1.00  0.00     0.170 HD
HETATM    6  H   UNL     1     -39.507 -49.838  14.481  1.00  0.00     0.164 HD
ENDROOT
BRANCH   1   7
HETATM    7  C   UNL     1     -41.074 -47.658  11.812  1.00  0.00     0.051 A 
HETATM    8  C   UNL     1     -42.438 -47.885  11.626  1.00  0.00     0.035 A 
HETATM    9  C   UNL     1     -43.137 -47.178  10.661  1.00  0.00     0.058 A 
HETATM   10  C   UNL     1     -42.457 -46.239   9.913  1.00  0.00     0.141 A 
HETATM   11  N   UNL     1     -41.141 -45.960  10.069  1.00  0.00    -0.345 N 
HETATM   12  C   UNL     1     -40.488 -46.673  11.017  1.00  0.00     0.119 A 
ATOM     13  HN  UNL     1     -40.668 -45.254   9.504  1.00  0.00     0.167 HD
BRANCH  10  14
HETATM   14  O   UNL     1     -43.219 -45.555   8.988  1.00  0.00    -0.341 OA
HETATM   15  C   UNL     1     -44.545 -46.051   8.878  1.00  0.00     0.211 C 
ENDBRANCH  10  14
ENDBRANCH   1   7
BRANCH   4  16
HETATM   16  C   UNL     1     -38.591 -51.464  13.552  1.00  0.00     0.154 C 
BRANCH  16  17
HETATM   17  C   UNL     1     -39.043 -52.401  14.710  1.00  0.00     0.292 C 
BRANCH  17  18
HETATM   18  N   UNL     1     -39.698 -53.590  14.153  1.00  0.00     0.095 N 
HETATM   19  C   UNL     1     -40.628 -53.307  13.057  1.00  0.00     0.303 C 
HETATM   20  C   UNL     1     -42.047 -52.974  13.533  1.00  0.00     0.146 C 
HETATM   21  C   UNL     1     -42.926 -52.648  12.335  1.00  0.00     0.041 C 
HETATM   22  O   UNL     1     -42.585 -54.116  14.208  1.00  0.00    -0.378 OA
HETATM   23  C   UNL     1     -41.825 -54.398  15.395  1.00  0.00     0.146 C 
HETATM   24  C   UNL     1     -42.375 -55.711  15.952  1.00  0.00     0.041 C 
HETATM   25  C   UNL     1     -40.297 -54.518  15.130  1.00  0.00     0.303 C 
ENDBRANCH  17  18
ENDBRANCH  16  17
ENDBRANCH   4  16
TORSDOF 5
ENDMDL
MODEL 7
REMARK VINA RESULT:      -5.6      3.219      8.026
REMARK  5 active torsions:
REMARK  status: ('A' for Active; 'I' for Inactive)
REMARK    1  A    between atoms: O_2  and  C_3 
REMARK    2  A    between atoms: C_6  and  N_7 
REMARK       I    between atoms: N_7  and  C_8 
REMARK       I    between atoms: C_8  and  N_10 
REMARK    3  A    between atoms: N_10  and  C_11 
REMARK    4  A    between atoms: C_11  and  C_12 
REMARK    5  A    between atoms: C_12  and  N_13 
ROOT
HETATM    1  N   UNL     1     -42.517 -51.639  12.054  1.00  0.00    -0.308 N 
HETATM    2  C   UNL     1     -41.155 -51.480  12.179  1.00  0.00     0.320 C 
HETATM    3  O   UNL     1     -40.441 -52.024  13.010  1.00  0.00    -0.247 OA
HETATM    4  N   UNL     1     -40.645 -50.628  11.227  1.00  0.00    -0.341 N 
HETATM    5  H   UNL     1     -42.921 -51.359  11.172  1.00  0.00     0.170 HD
HETATM    6  H   UNL     1     -41.276 -49.878  10.981  1.00  0.00     0.164 HD
ENDROOT
BRANCH   1   7
HETATM    7  C   UNL     1     -43.304 -52.411  12.931  1.00  0.00     0.051 A 
HETATM    8  C   UNL     1     -43.730 -53.707  12.637  1.00  0.00     0.035 A 
HETATM    9  C   UNL     1     -44.536 -54.396  13.529  1.00  0.00     0.058 A 
HETATM   10  C   UNL     1     -44.883 -53.777  14.713  1.00  0.00     0.141 A 
HETATM   11  N   UNL     1     -44.478 -52.533  15.060  1.00  0.00    -0.345 N 
HETATM   12  C   UNL     1     -43.696 -51.887  14.163  1.00  0.00     0.119 A 
ATOM     13  HN  UNL     1     -44.746 -52.106  15.947  1.00  0.00     0.167 HD
BRANCH  10  14
HETATM   14  O   UNL     1     -45.665 -54.530  15.565  1.00  0.00    -0.341 OA
HETATM   15  C   UNL     1     -45.853 -53.924  16.835  1.00  0.00     0.211 C 
ENDBRANCH  10  14
ENDBRANCH   1   7
BRANCH   4  16
HETATM   16  C   UNL     1     -39.255 -50.219  11.358  1.00  0.00     0.154 C 
BRANCH  16  17
HETATM   17  C   UNL     1     -39.003 -48.753  11.817  1.00  0.00     0.292 C 
BRANCH  17  18
HETATM   18  N   UNL     1     -39.183 -48.657  13.271  1.00  0.00     0.095 N 
HETATM   19  C   UNL     1     -39.878 -47.445  13.713  1.00  0.00     0.303 C 
HETATM   20  C   UNL     1     -38.942 -46.252  13.934  1.00  0.00     0.146 C 
HETATM   21  C   UNL     1     -39.755 -45.032  14.341  1.00  0.00     0.041 C 
HETATM   22  O   UNL     1     -38.028 -46.574  14.986  1.00  0.00    -0.378 OA
HETATM   23  C   UNL     1     -37.185 -47.671  14.597  1.00  0.00     0.146 C 
HETATM   24  C   UNL     1     -36.361 -48.037  15.831  1.00  0.00     0.041 C 
HETATM   25  C   UNL     1     -37.983 -48.907  14.090  1.00  0.00     0.303 C 
ENDBRANCH  17  18
ENDBRANCH  16  17
ENDBRANCH   4  16
TORSDOF 5
ENDMDL
MODEL 8
REMARK VINA RESULT:      -5.5      3.393      4.633
REMARK  5 active torsions:
REMARK  status: ('A' for Active; 'I' for Inactive)
REMARK    1  A    between atoms: O_2  and  C_3 
REMARK    2  A    between atoms: C_6  and  N_7 
REMARK       I    between atoms: N_7  and  C_8 
REMARK       I    between atoms: C_8  and  N_10 
REMARK    3  A    between atoms: N_10  and  C_11 
REMARK    4  A    between atoms: C_11  and  C_12 
REMARK    5  A    between atoms: C_12  and  N_13 
ROOT
HETATM    1  N   UNL     1     -41.213 -51.221  11.752  1.00  0.00    -0.308 N 
HETATM    2  C   UNL     1     -42.119 -51.928  12.510  1.00  0.00     0.320 C 
HETATM    3  O   UNL     1     -42.190 -51.925  13.732  1.00  0.00    -0.247 OA
HETATM    4  N   UNL     1     -42.988 -52.657  11.733  1.00  0.00    -0.341 N 
HETATM    5  H   UNL     1     -41.446 -51.099  10.776  1.00  0.00     0.170 HD
HETATM    6  H   UNL     1     -42.565 -53.016  10.888  1.00  0.00     0.164 HD
ENDROOT
BRANCH   1   7
HETATM    7  C   UNL     1     -40.176 -50.436  12.290  1.00  0.00     0.051 A 
HETATM    8  C   UNL     1     -38.922 -50.949  12.625  1.00  0.00     0.035 A 
HETATM    9  C   UNL     1     -37.959 -50.127  13.188  1.00  0.00     0.058 A 
HETATM   10  C   UNL     1     -38.266 -48.796  13.385  1.00  0.00     0.141 A 
HETATM   11  N   UNL     1     -39.455 -48.240  13.056  1.00  0.00    -0.345 N 
HETATM   12  C   UNL     1     -40.375 -49.073  12.513  1.00  0.00     0.119 A 
ATOM     13  HN  UNL     1     -39.648 -47.250  13.208  1.00  0.00     0.167 HD
BRANCH  10  14
HETATM   14  O   UNL     1     -37.253 -48.030  13.925  1.00  0.00    -0.341 OA
HETATM   15  C   UNL     1     -37.413 -47.789  15.315  1.00  0.00     0.211 C 
ENDBRANCH  10  14
ENDBRANCH   1   7
BRANCH   4  16
HETATM   16  C   UNL     1     -43.872 -53.598  12.403  1.00  0.00     0.154 C 
BRANCH  16  17
HETATM   17  C   UNL     1     -45.297 -53.080  12.756  1.00  0.00     0.292 C 
BRANCH  17  18
HETATM   18  N   UNL     1     -45.800 -53.793  13.936  1.00  0.00     0.095 N 
HETATM   19  C   UNL     1     -46.876 -53.097  14.646  1.00  0.00     0.303 C 
HETATM   20  C   UNL     1     -46.368 -52.100  15.694  1.00  0.00     0.146 C 
HETATM   21  C   UNL     1     -47.549 -51.393  16.343  1.00  0.00     0.041 C 
HETATM   22  O   UNL     1     -45.646 -52.818  16.699  1.00  0.00    -0.378 OA
HETATM   23  C   UNL     1     -44.474 -53.428  16.133  1.00  0.00     0.146 C 
HETATM   24  C   UNL     1     -43.864 -54.290  17.238  1.00  0.00     0.041 C 
HETATM   25  C   UNL     1     -44.780 -54.292  14.876  1.00  0.00     0.303 C 
ENDBRANCH  17  18
ENDBRANCH  16  17
ENDBRANCH   4  16
TORSDOF 5
ENDMDL
MODEL 9
REMARK VINA RESULT:      -5.5      1.734      8.750
REMARK  5 active torsions:
REMARK  status: ('A' for Active; 'I' for Inactive)
REMARK    1  A    between atoms: O_2  and  C_3 
REMARK    2  A    between atoms: C_6  and  N_7 
REMARK       I    between atoms: N_7  and  C_8 
REMARK       I    between atoms: C_8  and  N_10 
REMARK    3  A    between atoms: N_10  and  C_11 
REMARK    4  A    between atoms: C_11  and  C_12 
REMARK    5  A    between atoms: C_12  and  N_13 
ROOT
HETATM    1  N   UNL     1     -41.491 -51.712  11.469  1.00  0.00    -0.308 N 
HETATM    2  C   UNL     1     -41.048 -50.464  11.843  1.00  0.00     0.320 C 
HETATM    3  O   UNL     1     -40.962 -50.046  12.990  1.00  0.00    -0.247 OA
HETATM    4  N   UNL     1     -40.676 -49.701  10.760  1.00  0.00    -0.341 N 
HETATM    5  H   UNL     1     -41.247 -52.013  10.535  1.00  0.00     0.170 HD
HETATM    6  H   UNL     1     -41.237 -49.873   9.938  1.00  0.00     0.164 HD
ENDROOT
BRANCH   1   7
HETATM    7  C   UNL     1     -41.986 -52.676  12.369  1.00  0.00     0.051 A 
HETATM    8  C   UNL     1     -43.341 -52.983  12.493  1.00  0.00     0.035 A 
HETATM    9  C   UNL     1     -43.763 -53.916  13.427  1.00  0.00     0.058 A 
HETATM   10  C   UNL     1     -42.811 -54.540  14.208  1.00  0.00     0.141 A 
HETATM   11  N   UNL     1     -41.482 -54.299  14.112  1.00  0.00    -0.345 N 
HETATM   12  C   UNL     1     -41.106 -53.379  13.192  1.00  0.00     0.119 A 
ATOM     13  HN  UNL     1     -40.803 -54.783  14.699  1.00  0.00     0.167 HD
BRANCH  10  14
HETATM   14  O   UNL     1     -43.298 -55.475  15.098  1.00  0.00    -0.341 OA
HETATM   15  C   UNL     1     -42.368 -55.819  16.114  1.00  0.00     0.211 C 
ENDBRANCH  10  14
ENDBRANCH   1   7
BRANCH   4  16
HETATM   16  C   UNL     1     -40.370 -48.298  10.992  1.00  0.00     0.154 C 
BRANCH  16  17
HETATM   17  C   UNL     1     -41.514 -47.282  10.706  1.00  0.00     0.292 C 
BRANCH  17  18
HETATM   18  N   UNL     1     -41.767 -46.476  11.906  1.00  0.00     0.095 N 
HETATM   19  C   UNL     1     -42.058 -45.066  11.635  1.00  0.00     0.303 C 
HETATM   20  C   UNL     1     -40.801 -44.193  11.538  1.00  0.00     0.146 C 
HETATM   21  C   UNL     1     -41.197 -42.762  11.206  1.00  0.00     0.041 C 
HETATM   22  O   UNL     1     -40.132 -44.211  12.801  1.00  0.00    -0.378 OA
HETATM   23  C   UNL     1     -39.668 -45.537  13.104  1.00  0.00     0.146 C 
HETATM   24  C   UNL     1     -39.112 -45.483  14.526  1.00  0.00     0.041 C 
HETATM   25  C   UNL     1     -40.787 -46.615  12.998  1.00  0.00     0.303 C 
ENDBRANCH  17  18
ENDBRANCH  16  17
ENDBRANCH   4  16
TORSDOF 5
ENDMDL
