MODEL 1
REMARK VINA RESULT:      -6.2      0.000      0.000
REMARK  4 active torsions:
REMARK  status: ('A' for Active; 'I' for Inactive)
REMARK    1  A    between atoms: N_6  and  C_7 
REMARK    2  A    between atoms: C_7  and  C_8 
REMARK       I    between atoms: C_8  and  N_10 
REMARK    3  A    between atoms: N_10  and  C_11 
REMARK    4  A    between atoms: C_11  and  C_12 
REMARK       I    between atoms: C_12  and  N_14 
ROOT
HETATM    1  C   UNL     1     -41.231 -49.978  11.791  1.00  0.00     0.237 C 
HETATM    2  O   UNL     1     -42.298 -49.981  12.406  1.00  0.00    -0.272 OA
HETATM    3  N   UNL     1     -40.624 -51.144  11.375  1.00  0.00    -0.351 N 
HETATM    4  H   UNL     1     -39.649 -51.138  11.076  1.00  0.00     0.163 HD
ENDROOT
BRANCH   1   5
HETATM    5  C   UNL     1     -40.534 -48.696  11.408  1.00  0.00     0.251 C 
BRANCH   5   6
HETATM    6  N   UNL     1     -41.407 -47.814  10.660  1.00  0.00    -0.288 N 
HETATM    7  C   UNL     1     -41.386 -46.442  10.603  1.00  0.00     0.027 A 
HETATM    8  C   UNL     1     -42.487 -46.086   9.854  1.00  0.00     0.052 A 
HETATM    9  C   UNL     1     -40.355 -45.593  11.249  1.00  0.00     0.070 C 
HETATM   10  C   UNL     1     -43.117 -47.301   9.513  1.00  0.00     0.024 A 
HETATM   11  C   UNL     1     -44.361 -47.495   8.731  1.00  0.00     0.070 C 
HETATM   12  N   UNL     1     -42.455 -48.355  10.002  1.00  0.00    -0.303 N 
ATOM     13  HN  UNL     1     -42.688 -49.344   9.901  1.00  0.00     0.186 HD
ENDBRANCH   5   6
ENDBRANCH   1   5
BRANCH   3  14
HETATM   14  C   UNL     1     -41.201 -52.423  11.744  1.00  0.00     0.225 C 
BRANCH  14  15
HETATM   15  C   UNL     1     -40.628 -53.021  13.036  1.00  0.00     0.237 C 
HETATM   16  O   UNL     1     -39.418 -52.970  13.271  1.00  0.00    -0.272 OA
HETATM   17  N   UNL     1     -41.545 -53.635  13.899  1.00  0.00    -0.351 N 
HETATM   18  C   UNL     1     -41.053 -54.096  15.200  1.00  0.00     0.126 C 
HETATM   19  C   UNL     1     -42.987 -53.390  13.816  1.00  0.00     0.126 C 
HETATM   20  C   UNL     1     -41.875 -55.255  15.765  1.00  0.00     0.020 C 
HETATM   21  C   UNL     1     -43.370 -54.952  15.746  1.00  0.00     0.003 C 
HETATM   22  C   UNL     1     -43.809 -54.559  14.343  1.00  0.00     0.020 C 
ENDBRANCH  14  15
ENDBRANCH   3  14
TORSDOF 4
ENDMDL
MODEL 2
REMARK VINA RESULT:      -6.0      2.672      3.945
REMARK  4 active torsions:
REMARK  status: ('A' for Active; 'I' for Inactive)
REMARK    1  A    between atoms: N_6  and  C_7 
REMARK    2  A    between atoms: C_7  and  C_8 
REMARK       I    between atoms: C_8  and  N_10 
REMARK    3  A    between atoms: N_10  and  C_11 
REMARK    4  A    between atoms: C_11  and  C_12 
REMARK       I    between atoms: C_12  and  N_14 
ROOT
HETATM    1  C   UNL     1     -41.484 -52.487  13.143  1.00  0.00     0.237 C 
HETATM    2  O   UNL     1     -41.727 -51.850  14.169  1.00  0.00    -0.272 OA
HETATM    3  N   UNL     1     -42.108 -53.685  12.862  1.00  0.00    -0.351 N 
HETATM    4  H   UNL     1     -41.736 -54.300  12.139  1.00  0.00     0.163 HD
ENDROOT
BRANCH   1   5
HETATM    5  C   UNL     1     -40.521 -51.981  12.098  1.00  0.00     0.251 C 
BRANCH   5   6
HETATM    6  N   UNL     1     -40.774 -50.595  11.762  1.00  0.00    -0.288 N 
HETATM    7  C   UNL     1     -39.863 -49.585  11.569  1.00  0.00     0.027 A 
HETATM    8  C   UNL     1     -40.612 -48.442  11.390  1.00  0.00     0.052 A 
HETATM    9  C   UNL     1     -38.392 -49.772  11.573  1.00  0.00     0.070 C 
HETATM   10  C   UNL     1     -41.957 -48.852  11.502  1.00  0.00     0.024 A 
HETATM   11  C   UNL     1     -43.176 -48.014  11.414  1.00  0.00     0.070 C 
HETATM   12  N   UNL     1     -42.055 -50.167  11.725  1.00  0.00    -0.303 N 
ATOM     13  HN  UNL     1     -42.904 -50.721  11.842  1.00  0.00     0.186 HD
ENDBRANCH   5   6
ENDBRANCH   1   5
BRANCH   3  14
HETATM   14  C   UNL     1     -43.011 -54.268  13.836  1.00  0.00     0.225 C 
BRANCH  14  15
HETATM   15  C   UNL     1     -44.494 -53.964  13.576  1.00  0.00     0.237 C 
HETATM   16  O   UNL     1     -45.089 -54.493  12.635  1.00  0.00    -0.272 OA
HETATM   17  N   UNL     1     -45.103 -53.048  14.444  1.00  0.00    -0.351 N 
HETATM   18  C   UNL     1     -46.547 -52.838  14.307  1.00  0.00     0.126 C 
HETATM   19  C   UNL     1     -44.531 -52.701  15.747  1.00  0.00     0.126 C 
HETATM   20  C   UNL     1     -46.990 -51.456  14.789  1.00  0.00     0.020 C 
HETATM   21  C   UNL     1     -46.453 -51.142  16.182  1.00  0.00     0.003 C 
HETATM   22  C   UNL     1     -44.941 -51.309  16.212  1.00  0.00     0.020 C 
ENDBRANCH  14  15
ENDBRANCH   3  14
TORSDOF 4
ENDMDL
MODEL 3
REMARK VINA RESULT:      -5.8      3.254      6.376
REMARK  4 active torsions:
REMARK  status: ('A' for Active; 'I' for Inactive)
REMARK    1  A    between atoms: N_6  and  C_7 
REMARK    2  A    between atoms: C_7  and  C_8 
REMARK       I    between atoms: C_8  and  N_10 
REMARK    3  A    between atoms: N_10  and  C_11 
REMARK    4  A    between atoms: C_11  and  C_12 
REMARK       I    between atoms: C_12  and  N_14 
ROOT
HETATM    1  C   UNL     1     -43.106 -53.352  12.894  1.00  0.00     0.237 C 
HETATM    2  O   UNL     1     -42.378 -53.630  13.848  1.00  0.00    -0.272 OA
HETATM    3  N   UNL     1     -42.634 -52.676  11.788  1.00  0.00    -0.351 N 
HETATM    4  H   UNL     1     -43.285 -52.259  11.124  1.00  0.00     0.163 HD
ENDROOT
BRANCH   1   5
HETATM    5  C   UNL     1     -44.554 -53.768  12.846  1.00  0.00     0.251 C 
BRANCH   5   6
HETATM    6  N   UNL     1     -45.393 -52.881  13.626  1.00  0.00    -0.288 N 
HETATM    7  C   UNL     1     -46.376 -52.030  13.183  1.00  0.00     0.027 A 
HETATM    8  C   UNL     1     -46.786 -51.328  14.297  1.00  0.00     0.052 A 
HETATM    9  C   UNL     1     -46.838 -51.944  11.776  1.00  0.00     0.070 C 
HETATM   10  C   UNL     1     -45.992 -51.810  15.358  1.00  0.00     0.024 A 
HETATM   11  C   UNL     1     -46.005 -51.379  16.776  1.00  0.00     0.070 C 
HETATM   12  N   UNL     1     -45.145 -52.760  14.948  1.00  0.00    -0.303 N 
ATOM     13  HN  UNL     1     -44.465 -53.277  15.507  1.00  0.00     0.186 HD
ENDBRANCH   5   6
ENDBRANCH   1   5
BRANCH   3  14
HETATM   14  C   UNL     1     -41.265 -52.195  11.773  1.00  0.00     0.225 C 
BRANCH  14  15
HETATM   15  C   UNL     1     -41.117 -50.714  12.150  1.00  0.00     0.237 C 
HETATM   16  O   UNL     1     -41.998 -49.900  11.864  1.00  0.00    -0.272 OA
HETATM   17  N   UNL     1     -39.930 -50.353  12.802  1.00  0.00    -0.351 N 
HETATM   18  C   UNL     1     -39.814 -48.977  13.293  1.00  0.00     0.126 C 
HETATM   19  C   UNL     1     -39.063 -51.336  13.455  1.00  0.00     0.126 C 
HETATM   20  C   UNL     1     -38.363 -48.504  13.387  1.00  0.00     0.020 C 
HETATM   21  C   UNL     1     -37.489 -49.501  14.141  1.00  0.00     0.003 C 
HETATM   22  C   UNL     1     -37.610 -50.883  13.516  1.00  0.00     0.020 C 
ENDBRANCH  14  15
ENDBRANCH   3  14
TORSDOF 4
ENDMDL
MODEL 4
REMARK VINA RESULT:      -5.7      4.092      6.589
REMARK  4 active torsions:
REMARK  status: ('A' for Active; 'I' for Inactive)
REMARK    1  A    between atoms: N_6  and  C_7 
REMARK    2  A    between atoms: C_7  and  C_8 
REMARK       I    between atoms: C_8  and  N_10 
REMARK    3  A    between atoms: N_10  and  C_11 
REMARK    4  A    between atoms: C_11  and  C_12 
REMARK       I    between atoms: C_12  and  N_14 
ROOT
HETATM    1  C   UNL     1     -43.949 -54.708  14.191  1.00  0.00     0.237 C 
HETATM    2  O   UNL     1     -43.651 -55.421  15.150  1.00  0.00    -0.272 OA
HETATM    3  N   UNL     1     -42.995 -54.038  13.453  1.00  0.00    -0.351 N 
HETATM    4  H   UNL     1     -43.268 -53.287  12.821  1.00  0.00     0.163 HD
ENDROOT
BRANCH   1   5
HETATM    5  C   UNL     1     -45.375 -54.549  13.726  1.00  0.00     0.251 C 
BRANCH   5   6
HETATM    6  N   UNL     1     -46.035 -53.442  14.389  1.00  0.00    -0.288 N 
HETATM    7  C   UNL     1     -46.495 -52.271  13.838  1.00  0.00     0.027 A 
HETATM    8  C   UNL     1     -46.928 -51.508  14.901  1.00  0.00     0.052 A 
HETATM    9  C   UNL     1     -46.486 -51.969  12.386  1.00  0.00     0.070 C 
HETATM   10  C   UNL     1     -46.682 -52.289  16.049  1.00  0.00     0.024 A 
HETATM   11  C   UNL     1     -46.939 -51.935  17.465  1.00  0.00     0.070 C 
HETATM   12  N   UNL     1     -46.140 -53.470  15.735  1.00  0.00    -0.303 N 
ATOM     13  HN  UNL     1     -45.867 -54.223  16.369  1.00  0.00     0.186 HD
ENDBRANCH   5   6
ENDBRANCH   1   5
BRANCH   3  14
HETATM   14  C   UNL     1     -41.604 -54.096  13.861  1.00  0.00     0.225 C 
BRANCH  14  15
HETATM   15  C   UNL     1     -40.686 -53.131  13.099  1.00  0.00     0.237 C 
HETATM   16  O   UNL     1     -40.675 -53.114  11.865  1.00  0.00    -0.272 OA
HETATM   17  N   UNL     1     -39.862 -52.307  13.878  1.00  0.00    -0.351 N 
HETATM   18  C   UNL     1     -39.073 -51.284  13.187  1.00  0.00     0.126 C 
HETATM   19  C   UNL     1     -40.118 -52.062  15.299  1.00  0.00     0.126 C 
HETATM   20  C   UNL     1     -37.805 -50.902  13.951  1.00  0.00     0.020 C 
HETATM   21  C   UNL     1     -38.098 -50.570  15.410  1.00  0.00     0.003 C 
HETATM   22  C   UNL     1     -38.849 -51.718  16.069  1.00  0.00     0.020 C 
ENDBRANCH  14  15
ENDBRANCH   3  14
TORSDOF 4
ENDMDL
MODEL 5
REMARK VINA RESULT:      -5.6      3.086      6.035
REMARK  4 active torsions:
REMARK  status: ('A' for Active; 'I' for Inactive)
REMARK    1  A    between atoms: N_6  and  C_7 
REMARK    2  A    between atoms: C_7  and  C_8 
REMARK       I    between atoms: C_8  and  N_10 
REMARK    3  A    between atoms: N_10  and  C_11 
REMARK    4  A    between atoms: C_11  and  C_12 
REMARK       I    between atoms: C_12  and  N_14 
ROOT
HETATM    1  C   UNL     1     -42.594 -53.219  13.011  1.00  0.00     0.237 C 
HETATM    2  O   UNL     1     -41.771 -53.306  13.923  1.00  0.00    -0.272 OA
HETATM    3  N   UNL     1     -42.313 -52.558  11.833  1.00  0.00    -0.351 N 
HETATM    4  H   UNL     1     -43.066 -52.301  11.195  1.00  0.00     0.163 HD
ENDROOT
BRANCH   1   5
HETATM    5  C   UNL     1     -43.953 -53.866  13.097  1.00  0.00     0.251 C 
BRANCH   5   6
HETATM    6  N   UNL     1     -45.018 -52.884  13.062  1.00  0.00    -0.288 N 
HETATM    7  C   UNL     1     -45.565 -52.182  14.108  1.00  0.00     0.027 A 
HETATM    8  C   UNL     1     -46.616 -51.473  13.567  1.00  0.00     0.052 A 
HETATM    9  C   UNL     1     -45.067 -52.235  15.504  1.00  0.00     0.070 C 
HETATM   10  C   UNL     1     -46.637 -51.816  12.199  1.00  0.00     0.024 A 
HETATM   11  C   UNL     1     -47.584 -51.355  11.157  1.00  0.00     0.070 C 
HETATM   12  N   UNL     1     -45.659 -52.675  11.891  1.00  0.00    -0.303 N 
ATOM     13  HN  UNL     1     -45.446 -53.081  10.979  1.00  0.00     0.186 HD
ENDBRANCH   5   6
ENDBRANCH   1   5
BRANCH   3  14
HETATM   14  C   UNL     1     -41.047 -51.864  11.685  1.00  0.00     0.225 C 
BRANCH  14  15
HETATM   15  C   UNL     1     -41.075 -50.402  12.153  1.00  0.00     0.237 C 
HETATM   16  O   UNL     1     -42.039 -49.677  11.896  1.00  0.00    -0.272 OA
HETATM   17  N   UNL     1     -39.948 -49.951  12.853  1.00  0.00    -0.351 N 
HETATM   18  C   UNL     1     -39.999 -48.604  13.428  1.00  0.00     0.126 C 
HETATM   19  C   UNL     1     -38.986 -50.868  13.466  1.00  0.00     0.126 C 
HETATM   20  C   UNL     1     -38.613 -47.977  13.584  1.00  0.00     0.020 C 
HETATM   21  C   UNL     1     -37.643 -48.913  14.297  1.00  0.00     0.003 C 
HETATM   22  C   UNL     1     -37.595 -50.258  13.588  1.00  0.00     0.020 C 
ENDBRANCH  14  15
ENDBRANCH   3  14
TORSDOF 4
ENDMDL
MODEL 6
REMARK VINA RESULT:      -5.6      2.399      3.288
REMARK  4 active torsions:
REMARK  status: ('A' for Active; 'I' for Inactive)
REMARK    1  A    between atoms: N_6  and  C_7 
REMARK    2  A    between atoms: C_7  and  C_8 
REMARK       I    between atoms: C_8  and  N_10 
REMARK    3  A    between atoms: N_10  and  C_11 
REMARK    4  A    between atoms: C_11  and  C_12 
REMARK       I    between atoms: C_12  and  N_14 
ROOT
HETATM    1  C   UNL     1     -41.091 -50.459  11.970  1.00  0.00     0.237 C 
HETATM    2  O   UNL     1     -42.089 -49.738  11.936  1.00  0.00    -0.272 OA
HETATM    3  N   UNL     1     -41.183 -51.829  12.108  1.00  0.00    -0.351 N 
HETATM    4  H   UNL     1     -40.362 -52.376  12.361  1.00  0.00     0.163 HD
ENDROOT
BRANCH   1   5
HETATM    5  C   UNL     1     -39.698 -49.902  11.820  1.00  0.00     0.251 C 
BRANCH   5   6
HETATM    6  N   UNL     1     -39.682 -48.459  11.947  1.00  0.00    -0.288 N 
HETATM    7  C   UNL     1     -39.362 -47.704  13.049  1.00  0.00     0.027 A 
HETATM    8  C   UNL     1     -39.616 -46.398  12.688  1.00  0.00     0.052 A 
HETATM    9  C   UNL     1     -38.857 -48.261  14.328  1.00  0.00     0.070 C 
HETATM   10  C   UNL     1     -40.095 -46.460  11.363  1.00  0.00     0.024 A 
HETATM   11  C   UNL     1     -40.539 -45.341  10.500  1.00  0.00     0.070 C 
HETATM   12  N   UNL     1     -40.131 -47.718  10.910  1.00  0.00    -0.303 N 
ATOM     13  HN  UNL     1     -40.431 -48.045   9.991  1.00  0.00     0.186 HD
ENDBRANCH   5   6
ENDBRANCH   1   5
BRANCH   3  14
HETATM   14  C   UNL     1     -42.483 -52.443  12.309  1.00  0.00     0.225 C 
BRANCH  14  15
HETATM   15  C   UNL     1     -42.878 -52.606  13.783  1.00  0.00     0.237 C 
HETATM   16  O   UNL     1     -42.087 -53.086  14.598  1.00  0.00    -0.272 OA
HETATM   17  N   UNL     1     -44.176 -52.206  14.128  1.00  0.00    -0.351 N 
HETATM   18  C   UNL     1     -44.539 -52.224  15.547  1.00  0.00     0.126 C 
HETATM   19  C   UNL     1     -44.977 -51.322  13.278  1.00  0.00     0.126 C 
HETATM   20  C   UNL     1     -46.041 -52.404  15.770  1.00  0.00     0.020 C 
HETATM   21  C   UNL     1     -46.860 -51.422  14.938  1.00  0.00     0.003 C 
HETATM   22  C   UNL     1     -46.474 -51.527  13.470  1.00  0.00     0.020 C 
ENDBRANCH  14  15
ENDBRANCH   3  14
TORSDOF 4
ENDMDL
MODEL 7
REMARK VINA RESULT:      -5.6      2.602      4.085
REMARK  4 active torsions:
REMARK  status: ('A' for Active; 'I' for Inactive)
REMARK    1  A    between atoms: N_6  and  C_7 
REMARK    2  A    between atoms: C_7  and  C_8 
REMARK       I    between atoms: C_8  and  N_10 
REMARK    3  A    between atoms: N_10  and  C_11 
REMARK    4  A    between atoms: C_11  and  C_12 
REMARK       I    between atoms: C_12  and  N_14 
ROOT
HETATM    1  C   UNL     1     -40.892 -52.509  12.747  1.00  0.00     0.237 C 
HETATM    2  O   UNL     1     -41.374 -52.340  11.626  1.00  0.00    -0.272 OA
HETATM    3  N   UNL     1     -41.389 -53.453  13.622  1.00  0.00    -0.351 N 
HETATM    4  H   UNL     1     -41.135 -53.423  14.609  1.00  0.00     0.163 HD
ENDROOT
BRANCH   1   5
HETATM    5  C   UNL     1     -39.695 -51.728  13.228  1.00  0.00     0.251 C 
BRANCH   5   6
HETATM    6  N   UNL     1     -39.719 -50.361  12.746  1.00  0.00    -0.288 N 
HETATM    7  C   UNL     1     -38.738 -49.681  12.065  1.00  0.00     0.027 A 
HETATM    8  C   UNL     1     -39.202 -48.388  11.945  1.00  0.00     0.052 A 
HETATM    9  C   UNL     1     -37.468 -50.288  11.597  1.00  0.00     0.070 C 
HETATM   10  C   UNL     1     -40.457 -48.378  12.588  1.00  0.00     0.024 A 
HETATM   11  C   UNL     1     -41.379 -47.232  12.770  1.00  0.00     0.070 C 
HETATM   12  N   UNL     1     -40.773 -49.584  13.073  1.00  0.00    -0.303 N 
ATOM     13  HN  UNL     1     -41.619 -49.854  13.576  1.00  0.00     0.186 HD
ENDBRANCH   5   6
ENDBRANCH   1   5
BRANCH   3  14
HETATM   14  C   UNL     1     -42.570 -54.214  13.259  1.00  0.00     0.225 C 
BRANCH  14  15
HETATM   15  C   UNL     1     -43.621 -54.311  14.374  1.00  0.00     0.237 C 
HETATM   16  O   UNL     1     -43.569 -55.215  15.212  1.00  0.00    -0.272 OA
HETATM   17  N   UNL     1     -44.633 -53.342  14.362  1.00  0.00    -0.351 N 
HETATM   18  C   UNL     1     -45.573 -53.326  15.486  1.00  0.00     0.126 C 
HETATM   19  C   UNL     1     -44.509 -52.087  13.618  1.00  0.00     0.126 C 
HETATM   20  C   UNL     1     -46.932 -52.734  15.110  1.00  0.00     0.020 C 
HETATM   21  C   UNL     1     -46.790 -51.387  14.408  1.00  0.00     0.003 C 
HETATM   22  C   UNL     1     -45.860 -51.514  13.210  1.00  0.00     0.020 C 
ENDBRANCH  14  15
ENDBRANCH   3  14
TORSDOF 4
ENDMDL
MODEL 8
REMARK VINA RESULT:      -5.6      1.735      7.401
REMARK  4 active torsions:
REMARK  status: ('A' for Active; 'I' for Inactive)
REMARK    1  A    between atoms: N_6  and  C_7 
REMARK    2  A    between atoms: C_7  and  C_8 
REMARK       I    between atoms: C_8  and  N_10 
REMARK    3  A    between atoms: N_10  and  C_11 
REMARK    4  A    between atoms: C_11  and  C_12 
REMARK       I    between atoms: C_12  and  N_14 
ROOT
HETATM    1  C   UNL     1     -41.431 -51.555  12.055  1.00  0.00     0.237 C 
HETATM    2  O   UNL     1     -42.395 -51.029  12.613  1.00  0.00    -0.272 OA
HETATM    3  N   UNL     1     -40.569 -50.836  11.253  1.00  0.00    -0.351 N 
HETATM    4  H   UNL     1     -39.926 -51.319  10.627  1.00  0.00     0.163 HD
ENDROOT
BRANCH   1   5
HETATM    5  C   UNL     1     -41.099 -53.014  12.242  1.00  0.00     0.251 C 
BRANCH   5   6
HETATM    6  N   UNL     1     -42.024 -53.663  13.149  1.00  0.00    -0.288 N 
HETATM    7  C   UNL     1     -41.756 -54.261  14.356  1.00  0.00     0.027 A 
HETATM    8  C   UNL     1     -42.946 -54.826  14.760  1.00  0.00     0.052 A 
HETATM    9  C   UNL     1     -40.428 -54.256  15.017  1.00  0.00     0.070 C 
HETATM   10  C   UNL     1     -43.870 -54.531  13.736  1.00  0.00     0.024 A 
HETATM   11  C   UNL     1     -45.296 -54.924  13.652  1.00  0.00     0.070 C 
HETATM   12  N   UNL     1     -43.306 -53.818  12.754  1.00  0.00    -0.303 N 
ATOM     13  HN  UNL     1     -43.746 -53.470  11.901  1.00  0.00     0.186 HD
ENDBRANCH   5   6
ENDBRANCH   1   5
BRANCH   3  14
HETATM   14  C   UNL     1     -40.844 -49.438  10.979  1.00  0.00     0.225 C 
BRANCH  14  15
HETATM   15  C   UNL     1     -40.088 -48.461  11.890  1.00  0.00     0.237 C 
HETATM   16  O   UNL     1     -39.202 -48.863  12.648  1.00  0.00    -0.272 OA
HETATM   17  N   UNL     1     -40.480 -47.117  11.823  1.00  0.00    -0.351 N 
HETATM   18  C   UNL     1     -39.692 -46.139  12.579  1.00  0.00     0.126 C 
HETATM   19  C   UNL     1     -41.252 -46.579  10.701  1.00  0.00     0.126 C 
HETATM   20  C   UNL     1     -40.502 -44.902  12.968  1.00  0.00     0.020 C 
HETATM   21  C   UNL     1     -41.237 -44.306  11.771  1.00  0.00     0.003 C 
HETATM   22  C   UNL     1     -42.090 -45.369  11.095  1.00  0.00     0.020 C 
ENDBRANCH  14  15
ENDBRANCH   3  14
TORSDOF 4
ENDMDL
MODEL 9
REMARK VINA RESULT:      -5.5      2.093      6.965
REMARK  4 active torsions:
REMARK  status: ('A' for Active; 'I' for Inactive)
REMARK    1  A    between atoms: N_6  and  C_7 
REMARK    2  A    between atoms: C_7  and  C_8 
REMARK       I    between atoms: C_8  and  N_10 
REMARK    3  A    between atoms: N_10  and  C_11 
REMARK    4  A    between atoms: C_11  and  C_12 
REMARK       I    between atoms: C_12  and  N_14 
ROOT
HETATM    1  C   UNL     1     -41.649 -51.689  12.691  1.00  0.00     0.237 C 
HETATM    2  O   UNL     1     -41.659 -52.351  11.652  1.00  0.00    -0.272 OA
HETATM    3  N   UNL     1     -41.030 -50.458  12.767  1.00  0.00    -0.351 N 
HETATM    4  H   UNL     1     -40.835 -50.037  13.674  1.00  0.00     0.163 HD
ENDROOT
BRANCH   1   5
HETATM    5  C   UNL     1     -42.349 -52.156  13.941  1.00  0.00     0.251 C 
BRANCH   5   6
HETATM    6  N   UNL     1     -43.702 -52.597  13.665  1.00  0.00    -0.288 N 
HETATM    7  C   UNL     1     -44.269 -53.820  13.928  1.00  0.00     0.027 A 
HETATM    8  C   UNL     1     -45.528 -53.770  13.369  1.00  0.00     0.052 A 
HETATM    9  C   UNL     1     -43.594 -54.916  14.666  1.00  0.00     0.070 C 
HETATM   10  C   UNL     1     -45.629 -52.491  12.783  1.00  0.00     0.024 A 
HETATM   11  C   UNL     1     -46.769 -51.922  12.027  1.00  0.00     0.070 C 
HETATM   12  N   UNL     1     -44.515 -51.775  12.968  1.00  0.00    -0.303 N 
ATOM     13  HN  UNL     1     -44.323 -50.823  12.653  1.00  0.00     0.186 HD
ENDBRANCH   5   6
ENDBRANCH   1   5
BRANCH   3  14
HETATM   14  C   UNL     1     -40.290 -49.957  11.625  1.00  0.00     0.225 C 
BRANCH  14  15
HETATM   15  C   UNL     1     -40.049 -48.441  11.651  1.00  0.00     0.237 C 
HETATM   16  O   UNL     1     -39.039 -47.972  12.183  1.00  0.00    -0.272 OA
HETATM   17  N   UNL     1     -41.040 -47.642  11.065  1.00  0.00    -0.351 N 
HETATM   18  C   UNL     1     -40.779 -46.204  10.954  1.00  0.00     0.126 C 
HETATM   19  C   UNL     1     -42.033 -48.181  10.134  1.00  0.00     0.126 C 
HETATM   20  C   UNL     1     -42.061 -45.372  10.923  1.00  0.00     0.020 C 
HETATM   21  C   UNL     1     -43.054 -45.897   9.891  1.00  0.00     0.003 C 
HETATM   22  C   UNL     1     -43.327 -47.375  10.129  1.00  0.00     0.020 C 
ENDBRANCH  14  15
ENDBRANCH   3  14
TORSDOF 4
ENDMDL
