MODEL 1
REMARK VINA RESULT:      -6.5      0.000      0.000
REMARK  9 active torsions:
REMARK  status: ('A' for Active; 'I' for Inactive)
REMARK    1  A    between atoms: O_1  and  C_2 
REMARK    2  A    between atoms: C_2  and  C_3 
REMARK    3  A    between atoms: N_12  and  C_13 
REMARK    4  A    between atoms: C_13  and  C_14 
REMARK    5  A    between atoms: C_14  and  O_15 
REMARK    6  A    between atoms: C_14  and  C_16 
REMARK    7  A    between atoms: C_16  and  O_17 
REMARK    8  A    between atoms: O_17  and  C_18 
REMARK    9  A    between atoms: C_18  and  C_19 
ROOT
HETATM    1  C   UNL     1     -40.317 -51.715  13.198  1.00  0.00     0.164 C 
ENDROOT
BRANCH   1   2
HETATM    2  N   UNL     1     -40.357 -50.494  12.407  1.00  0.00    -0.330 N 
HETATM    3  C   UNL     1     -39.320 -49.962  11.665  1.00  0.00     0.108 A 
HETATM    4  N   UNL     1     -39.721 -48.890  11.007  1.00  0.00    -0.342 N 
HETATM    5  C   UNL     1     -41.047 -48.731  11.314  1.00  0.00     0.060 A 
ATOM      6  HN  UNL     1     -39.159 -48.299  10.394  1.00  0.00     0.167 HD
HETATM    7  C   UNL     1     -41.951 -47.757  10.865  1.00  0.00     0.032 A 
HETATM    8  C   UNL     1     -41.477 -49.716  12.198  1.00  0.00     0.062 A 
HETATM    9  C   UNL     1     -43.272 -47.797  11.325  1.00  0.00     0.002 A 
HETATM   10  C   UNL     1     -43.683 -48.787  12.218  1.00  0.00     0.002 A 
HETATM   11  C   UNL     1     -42.795 -49.770  12.671  1.00  0.00     0.032 A 
BRANCH   3  12
HETATM   12  C   UNL     1     -37.934 -50.505  11.631  1.00  0.00     0.240 C 
BRANCH  12  13
HETATM   13  O   UNL     1     -37.330 -50.109  10.405  1.00  0.00    -0.393 OA
HETATM   14  H   UNL     1     -38.031 -50.136   9.734  1.00  0.00     0.209 HD
ENDBRANCH  12  13
ENDBRANCH   3  12
ENDBRANCH   1   2
BRANCH   1  15
HETATM   15  C   UNL     1     -41.082 -52.887  12.561  1.00  0.00     0.160 C 
BRANCH  15  16
HETATM   16  O   UNL     1     -40.398 -53.409  11.416  1.00  0.00    -0.392 OA
HETATM   17  H   UNL     1     -39.564 -53.816  11.705  1.00  0.00     0.210 HD
ENDBRANCH  15  16
BRANCH  15  18
HETATM   18  C   UNL     1     -41.280 -54.026  13.572  1.00  0.00     0.201 C 
BRANCH  18  19
HETATM   19  O   UNL     1     -42.002 -53.545  14.698  1.00  0.00    -0.384 OA
BRANCH  19  20
HETATM   20  C   UNL     1     -43.298 -54.138  14.805  1.00  0.00     0.209 C 
BRANCH  20  21
HETATM   21  C   UNL     1     -44.363 -53.189  14.321  1.00  0.00     0.004 A 
HETATM   22  C   UNL     1     -44.914 -52.182  15.128  1.00  0.00     0.012 A 
HETATM   23  C   UNL     1     -45.906 -51.333  14.628  1.00  0.00     0.001 A 
HETATM   24  C   UNL     1     -46.360 -51.478  13.318  1.00  0.00     0.003 A 
HETATM   25  C   UNL     1     -45.819 -52.471  12.505  1.00  0.00     0.043 A 
HETATM   26  C   UNL     1     -44.830 -53.313  13.009  1.00  0.00     0.124 A 
HETATM   27  F   UNL     1     -44.323 -54.263  12.212  1.00  0.00    -0.205 F 
ENDBRANCH  20  21
ENDBRANCH  19  20
ENDBRANCH  18  19
ENDBRANCH  15  18
ENDBRANCH   1  15
TORSDOF 9
ENDMDL
MODEL 2
REMARK VINA RESULT:      -6.4      2.871      4.596
REMARK  9 active torsions:
REMARK  status: ('A' for Active; 'I' for Inactive)
REMARK    1  A    between atoms: O_1  and  C_2 
REMARK    2  A    between atoms: C_2  and  C_3 
REMARK    3  A    between atoms: N_12  and  C_13 
REMARK    4  A    between atoms: C_13  and  C_14 
REMARK    5  A    between atoms: C_14  and  O_15 
REMARK    6  A    between atoms: C_14  and  C_16 
REMARK    7  A    between atoms: C_16  and  O_17 
REMARK    8  A    between atoms: O_17  and  C_18 
REMARK    9  A    between atoms: C_18  and  C_19 
ROOT
HETATM    1  C   UNL     1     -40.971 -52.363  12.044  1.00  0.00     0.164 C 
ENDROOT
BRANCH   1   2
HETATM    2  N   UNL     1     -41.414 -53.315  13.052  1.00  0.00    -0.330 N 
HETATM    3  C   UNL     1     -40.653 -53.831  14.083  1.00  0.00     0.108 A 
HETATM    4  N   UNL     1     -41.388 -54.606  14.860  1.00  0.00    -0.342 N 
HETATM    5  C   UNL     1     -42.653 -54.580  14.333  1.00  0.00     0.060 A 
ATOM      6  HN  UNL     1     -41.078 -55.120  15.685  1.00  0.00     0.167 HD
HETATM    7  C   UNL     1     -43.817 -55.217  14.789  1.00  0.00     0.032 A 
HETATM    8  C   UNL     1     -42.703 -53.786  13.192  1.00  0.00     0.062 A 
HETATM    9  C   UNL     1     -45.007 -55.042  14.074  1.00  0.00     0.002 A 
HETATM   10  C   UNL     1     -45.036 -54.250  12.927  1.00  0.00     0.002 A 
HETATM   11  C   UNL     1     -43.885 -53.601  12.462  1.00  0.00     0.032 A 
BRANCH   3  12
HETATM   12  C   UNL     1     -39.200 -53.574  14.280  1.00  0.00     0.240 C 
BRANCH  12  13
HETATM   13  O   UNL     1     -38.472 -54.457  13.436  1.00  0.00    -0.393 OA
HETATM   14  H   UNL     1     -39.104 -54.788  12.776  1.00  0.00     0.209 HD
ENDBRANCH  12  13
ENDBRANCH   3  12
ENDBRANCH   1   2
BRANCH   1  15
HETATM   15  C   UNL     1     -41.321 -50.904  12.378  1.00  0.00     0.160 C 
BRANCH  15  16
HETATM   16  O   UNL     1     -42.617 -50.542  11.888  1.00  0.00    -0.392 OA
HETATM   17  H   UNL     1     -42.799 -49.618  12.127  1.00  0.00     0.210 HD
ENDBRANCH  15  16
BRANCH  15  18
HETATM   18  C   UNL     1     -41.290 -50.667  13.895  1.00  0.00     0.201 C 
BRANCH  18  19
HETATM   19  O   UNL     1     -42.587 -50.299  14.347  1.00  0.00    -0.384 OA
BRANCH  19  20
HETATM   20  C   UNL     1     -42.971 -51.007  15.528  1.00  0.00     0.209 C 
BRANCH  20  21
HETATM   21  C   UNL     1     -44.428 -51.382  15.479  1.00  0.00     0.004 A 
HETATM   22  C   UNL     1     -45.286 -50.983  14.442  1.00  0.00     0.012 A 
HETATM   23  C   UNL     1     -46.633 -51.355  14.450  1.00  0.00     0.001 A 
HETATM   24  C   UNL     1     -47.142 -52.130  15.492  1.00  0.00     0.003 A 
HETATM   25  C   UNL     1     -46.301 -52.536  16.526  1.00  0.00     0.043 A 
HETATM   26  C   UNL     1     -44.959 -52.163  16.510  1.00  0.00     0.124 A 
HETATM   27  F   UNL     1     -44.167 -52.562  17.514  1.00  0.00    -0.205 F 
ENDBRANCH  20  21
ENDBRANCH  19  20
ENDBRANCH  18  19
ENDBRANCH  15  18
ENDBRANCH   1  15
TORSDOF 9
ENDMDL
MODEL 3
REMARK VINA RESULT:      -6.3      1.021      1.205
REMARK  9 active torsions:
REMARK  status: ('A' for Active; 'I' for Inactive)
REMARK    1  A    between atoms: O_1  and  C_2 
REMARK    2  A    between atoms: C_2  and  C_3 
REMARK    3  A    between atoms: N_12  and  C_13 
REMARK    4  A    between atoms: C_13  and  C_14 
REMARK    5  A    between atoms: C_14  and  O_15 
REMARK    6  A    between atoms: C_14  and  C_16 
REMARK    7  A    between atoms: C_16  and  O_17 
REMARK    8  A    between atoms: O_17  and  C_18 
REMARK    9  A    between atoms: C_18  and  C_19 
ROOT
HETATM    1  C   UNL     1     -40.259 -51.851  13.225  1.00  0.00     0.164 C 
ENDROOT
BRANCH   1   2
HETATM    2  N   UNL     1     -40.066 -50.587  12.529  1.00  0.00    -0.330 N 
HETATM    3  C   UNL     1     -38.883 -50.122  11.987  1.00  0.00     0.108 A 
HETATM    4  N   UNL     1     -39.079 -48.977  11.358  1.00  0.00    -0.342 N 
HETATM    5  C   UNL     1     -40.416 -48.703  11.478  1.00  0.00     0.060 A 
ATOM      6  HN  UNL     1     -38.377 -48.412  10.879  1.00  0.00     0.167 HD
HETATM    7  C   UNL     1     -41.148 -47.618  10.973  1.00  0.00     0.032 A 
HETATM    8  C   UNL     1     -41.064 -49.689  12.215  1.00  0.00     0.062 A 
HETATM    9  C   UNL     1     -42.522 -47.550  11.231  1.00  0.00     0.002 A 
HETATM   10  C   UNL     1     -43.153 -48.543  11.980  1.00  0.00     0.002 A 
HETATM   11  C   UNL     1     -42.438 -49.637  12.485  1.00  0.00     0.032 A 
BRANCH   3  12
HETATM   12  C   UNL     1     -37.563 -50.799  12.117  1.00  0.00     0.240 C 
BRANCH  12  13
HETATM   13  O   UNL     1     -37.160 -51.242  10.827  1.00  0.00    -0.393 OA
HETATM   14  H   UNL     1     -36.513 -51.952  10.972  1.00  0.00     0.209 HD
ENDBRANCH  12  13
ENDBRANCH   3  12
ENDBRANCH   1   2
BRANCH   1  15
HETATM   15  C   UNL     1     -41.115 -52.861  12.444  1.00  0.00     0.160 C 
BRANCH  15  16
HETATM   16  O   UNL     1     -40.412 -53.394  11.316  1.00  0.00    -0.392 OA
HETATM   17  H   UNL     1     -39.492 -53.081  11.340  1.00  0.00     0.210 HD
ENDBRANCH  15  16
BRANCH  15  18
HETATM   18  C   UNL     1     -41.545 -54.028  13.345  1.00  0.00     0.201 C 
BRANCH  18  19
HETATM   19  O   UNL     1     -42.947 -54.233  13.225  1.00  0.00    -0.384 OA
BRANCH  19  20
HETATM   20  C   UNL     1     -43.601 -53.143  12.572  1.00  0.00     0.209 C 
BRANCH  20  21
HETATM   21  C   UNL     1     -44.577 -52.469  13.499  1.00  0.00     0.004 A 
HETATM   22  C   UNL     1     -44.266 -52.138  14.827  1.00  0.00     0.012 A 
HETATM   23  C   UNL     1     -45.214 -51.519  15.647  1.00  0.00     0.001 A 
HETATM   24  C   UNL     1     -46.484 -51.224  15.153  1.00  0.00     0.003 A 
HETATM   25  C   UNL     1     -46.806 -51.545  13.836  1.00  0.00     0.043 A 
HETATM   26  C   UNL     1     -45.855 -52.160  13.024  1.00  0.00     0.124 A 
HETATM   27  F   UNL     1     -46.184 -52.462  11.761  1.00  0.00    -0.205 F 
ENDBRANCH  20  21
ENDBRANCH  19  20
ENDBRANCH  18  19
ENDBRANCH  15  18
ENDBRANCH   1  15
TORSDOF 9
ENDMDL
MODEL 4
REMARK VINA RESULT:      -5.8      2.727      3.831
REMARK  9 active torsions:
REMARK  status: ('A' for Active; 'I' for Inactive)
REMARK    1  A    between atoms: O_1  and  C_2 
REMARK    2  A    between atoms: C_2  and  C_3 
REMARK    3  A    between atoms: N_12  and  C_13 
REMARK    4  A    between atoms: C_13  and  C_14 
REMARK    5  A    between atoms: C_14  and  O_15 
REMARK    6  A    between atoms: C_14  and  C_16 
REMARK    7  A    between atoms: C_16  and  O_17 
REMARK    8  A    between atoms: O_17  and  C_18 
REMARK    9  A    between atoms: C_18  and  C_19 
ROOT
HETATM    1  C   UNL     1     -41.416 -53.563  16.545  1.00  0.00     0.164 C 
ENDROOT
BRANCH   1   2
HETATM    2  N   UNL     1     -41.269 -53.009  15.207  1.00  0.00    -0.330 N 
HETATM    3  C   UNL     1     -40.446 -53.488  14.207  1.00  0.00     0.108 A 
HETATM    4  N   UNL     1     -40.616 -52.798  13.093  1.00  0.00    -0.342 N 
HETATM    5  C   UNL     1     -41.579 -51.864  13.371  1.00  0.00     0.060 A 
ATOM      6  HN  UNL     1     -40.130 -52.933  12.207  1.00  0.00     0.167 HD
HETATM    7  C   UNL     1     -42.143 -50.894  12.529  1.00  0.00     0.032 A 
HETATM    8  C   UNL     1     -42.005 -51.962  14.692  1.00  0.00     0.062 A 
HETATM    9  C   UNL     1     -43.122 -50.038  13.045  1.00  0.00     0.002 A 
HETATM   10  C   UNL     1     -43.530 -50.145  14.374  1.00  0.00     0.002 A 
HETATM   11  C   UNL     1     -42.983 -51.112  15.226  1.00  0.00     0.032 A 
BRANCH   3  12
HETATM   12  C   UNL     1     -39.479 -54.610  14.365  1.00  0.00     0.240 C 
BRANCH  12  13
HETATM   13  O   UNL     1     -38.580 -54.584  13.263  1.00  0.00    -0.393 OA
HETATM   14  H   UNL     1     -37.727 -54.905  13.599  1.00  0.00     0.209 HD
ENDBRANCH  12  13
ENDBRANCH   3  12
ENDBRANCH   1   2
BRANCH   1  15
HETATM   15  C   UNL     1     -42.457 -54.690  16.635  1.00  0.00     0.160 C 
BRANCH  15  16
HETATM   16  O   UNL     1     -41.957 -55.821  17.357  1.00  0.00    -0.392 OA
HETATM   17  H   UNL     1     -41.288 -55.519  17.993  1.00  0.00     0.210 HD
ENDBRANCH  15  16
BRANCH  15  18
HETATM   18  C   UNL     1     -43.738 -54.200  17.325  1.00  0.00     0.201 C 
BRANCH  18  19
HETATM   19  O   UNL     1     -44.872 -54.583  16.556  1.00  0.00    -0.384 OA
BRANCH  19  20
HETATM   20  C   UNL     1     -45.797 -53.508  16.381  1.00  0.00     0.209 C 
BRANCH  20  21
HETATM   21  C   UNL     1     -45.873 -53.096  14.934  1.00  0.00     0.004 A 
HETATM   22  C   UNL     1     -45.158 -53.746  13.916  1.00  0.00     0.012 A 
HETATM   23  C   UNL     1     -45.261 -53.317  12.590  1.00  0.00     0.001 A 
HETATM   24  C   UNL     1     -46.078 -52.235  12.262  1.00  0.00     0.003 A 
HETATM   25  C   UNL     1     -46.795 -51.583  13.262  1.00  0.00     0.043 A 
HETATM   26  C   UNL     1     -46.689 -52.016  14.582  1.00  0.00     0.124 A 
HETATM   27  F   UNL     1     -47.386 -51.375  15.530  1.00  0.00    -0.205 F 
ENDBRANCH  20  21
ENDBRANCH  19  20
ENDBRANCH  18  19
ENDBRANCH  15  18
ENDBRANCH   1  15
TORSDOF 9
ENDMDL
MODEL 5
REMARK VINA RESULT:      -5.8      1.919      2.607
REMARK  9 active torsions:
REMARK  status: ('A' for Active; 'I' for Inactive)
REMARK    1  A    between atoms: O_1  and  C_2 
REMARK    2  A    between atoms: C_2  and  C_3 
REMARK    3  A    between atoms: N_12  and  C_13 
REMARK    4  A    between atoms: C_13  and  C_14 
REMARK    5  A    between atoms: C_14  and  O_15 
REMARK    6  A    between atoms: C_14  and  C_16 
REMARK    7  A    between atoms: C_16  and  O_17 
REMARK    8  A    between atoms: O_17  and  C_18 
REMARK    9  A    between atoms: C_18  and  C_19 
ROOT
HETATM    1  C   UNL     1     -41.965 -49.297  12.714  1.00  0.00     0.164 C 
ENDROOT
BRANCH   1   2
HETATM    2  N   UNL     1     -41.849 -48.267  11.692  1.00  0.00    -0.330 N 
HETATM    3  C   UNL     1     -40.688 -47.629  11.299  1.00  0.00     0.108 A 
HETATM    4  N   UNL     1     -40.927 -46.808  10.292  1.00  0.00    -0.342 N 
HETATM    5  C   UNL     1     -42.264 -46.928  10.015  1.00  0.00     0.060 A 
ATOM      6  HN  UNL     1     -40.254 -46.207   9.817  1.00  0.00     0.167 HD
HETATM    7  C   UNL     1     -43.025 -46.289   9.025  1.00  0.00     0.032 A 
HETATM    8  C   UNL     1     -42.875 -47.829  10.880  1.00  0.00     0.062 A 
HETATM    9  C   UNL     1     -44.393 -46.573   8.936  1.00  0.00     0.002 A 
HETATM   10  C   UNL     1     -44.990 -47.473   9.818  1.00  0.00     0.002 A 
HETATM   11  C   UNL     1     -44.243 -48.124  10.808  1.00  0.00     0.032 A 
BRANCH   3  12
HETATM   12  C   UNL     1     -39.356 -47.816  11.937  1.00  0.00     0.240 C 
BRANCH  12  13
HETATM   13  O   UNL     1     -38.704 -48.908  11.299  1.00  0.00    -0.393 OA
HETATM   14  H   UNL     1     -37.780 -48.886  11.595  1.00  0.00     0.209 HD
ENDBRANCH  12  13
ENDBRANCH   3  12
ENDBRANCH   1   2
BRANCH   1  15
HETATM   15  C   UNL     1     -41.899 -50.729  12.158  1.00  0.00     0.160 C 
BRANCH  15  16
HETATM   16  O   UNL     1     -40.846 -50.879  11.199  1.00  0.00    -0.392 OA
HETATM   17  H   UNL     1     -40.064 -51.248  11.643  1.00  0.00     0.210 HD
ENDBRANCH  15  16
BRANCH  15  18
HETATM   18  C   UNL     1     -41.679 -51.745  13.288  1.00  0.00     0.201 C 
BRANCH  18  19
HETATM   19  O   UNL     1     -42.243 -52.998  12.920  1.00  0.00    -0.384 OA
BRANCH  19  20
HETATM   20  C   UNL     1     -43.466 -52.850  12.195  1.00  0.00     0.209 C 
BRANCH  20  21
HETATM   21  C   UNL     1     -44.653 -53.042  13.101  1.00  0.00     0.004 A 
HETATM   22  C   UNL     1     -45.018 -54.291  13.628  1.00  0.00     0.012 A 
HETATM   23  C   UNL     1     -46.135 -54.413  14.460  1.00  0.00     0.001 A 
HETATM   24  C   UNL     1     -46.902 -53.291  14.777  1.00  0.00     0.003 A 
HETATM   25  C   UNL     1     -46.549 -52.046  14.263  1.00  0.00     0.043 A 
HETATM   26  C   UNL     1     -45.434 -51.931  13.436  1.00  0.00     0.124 A 
HETATM   27  F   UNL     1     -45.111 -50.724  12.951  1.00  0.00    -0.205 F 
ENDBRANCH  20  21
ENDBRANCH  19  20
ENDBRANCH  18  19
ENDBRANCH  15  18
ENDBRANCH   1  15
TORSDOF 9
ENDMDL
MODEL 6
REMARK VINA RESULT:      -5.7      3.019      4.487
REMARK  9 active torsions:
REMARK  status: ('A' for Active; 'I' for Inactive)
REMARK    1  A    between atoms: O_1  and  C_2 
REMARK    2  A    between atoms: C_2  and  C_3 
REMARK    3  A    between atoms: N_12  and  C_13 
REMARK    4  A    between atoms: C_13  and  C_14 
REMARK    5  A    between atoms: C_14  and  O_15 
REMARK    6  A    between atoms: C_14  and  C_16 
REMARK    7  A    between atoms: C_16  and  O_17 
REMARK    8  A    between atoms: O_17  and  C_18 
REMARK    9  A    between atoms: C_18  and  C_19 
ROOT
HETATM    1  C   UNL     1     -41.490 -48.530  10.446  1.00  0.00     0.164 C 
ENDROOT
BRANCH   1   2
HETATM    2  N   UNL     1     -41.893 -47.131  10.455  1.00  0.00    -0.330 N 
HETATM    3  C   UNL     1     -43.074 -46.615   9.957  1.00  0.00     0.108 A 
HETATM    4  N   UNL     1     -43.154 -45.319  10.199  1.00  0.00    -0.342 N 
HETATM    5  C   UNL     1     -42.012 -44.991  10.882  1.00  0.00     0.060 A 
ATOM      6  HN  UNL     1     -43.912 -44.690   9.933  1.00  0.00     0.167 HD
HETATM    7  C   UNL     1     -41.610 -43.747  11.392  1.00  0.00     0.032 A 
HETATM    8  C   UNL     1     -41.194 -46.103  11.052  1.00  0.00     0.062 A 
HETATM    9  C   UNL     1     -40.384 -43.655  12.059  1.00  0.00     0.002 A 
HETATM   10  C   UNL     1     -39.572 -44.779  12.212  1.00  0.00     0.002 A 
HETATM   11  C   UNL     1     -39.962 -46.029  11.715  1.00  0.00     0.032 A 
BRANCH   3  12
HETATM   12  C   UNL     1     -44.105 -47.402   9.223  1.00  0.00     0.240 C 
BRANCH  12  13
HETATM   13  O   UNL     1     -44.896 -48.100  10.177  1.00  0.00    -0.393 OA
HETATM   14  H   UNL     1     -44.604 -47.794  11.051  1.00  0.00     0.209 HD
ENDBRANCH  12  13
ENDBRANCH   3  12
ENDBRANCH   1   2
BRANCH   1  15
HETATM   15  C   UNL     1     -41.747 -49.254  11.777  1.00  0.00     0.160 C 
BRANCH  15  16
HETATM   16  O   UNL     1     -43.122 -49.626  11.924  1.00  0.00    -0.392 OA
HETATM   17  H   UNL     1     -43.200 -50.270  12.647  1.00  0.00     0.210 HD
ENDBRANCH  15  16
BRANCH  15  18
HETATM   18  C   UNL     1     -40.886 -50.521  11.886  1.00  0.00     0.201 C 
BRANCH  18  19
HETATM   19  O   UNL     1     -41.718 -51.672  11.818  1.00  0.00    -0.384 OA
BRANCH  19  20
HETATM   20  C   UNL     1     -41.412 -52.625  12.839  1.00  0.00     0.209 C 
BRANCH  20  21
HETATM   21  C   UNL     1     -42.639 -53.406  13.228  1.00  0.00     0.004 A 
HETATM   22  C   UNL     1     -43.895 -53.202  12.637  1.00  0.00     0.012 A 
HETATM   23  C   UNL     1     -45.002 -53.952  13.043  1.00  0.00     0.001 A 
HETATM   24  C   UNL     1     -44.871 -54.915  14.043  1.00  0.00     0.003 A 
HETATM   25  C   UNL     1     -43.629 -55.130  14.636  1.00  0.00     0.043 A 
HETATM   26  C   UNL     1     -42.529 -54.380  14.226  1.00  0.00     0.124 A 
HETATM   27  F   UNL     1     -41.343 -54.601  14.810  1.00  0.00    -0.205 F 
ENDBRANCH  20  21
ENDBRANCH  19  20
ENDBRANCH  18  19
ENDBRANCH  15  18
ENDBRANCH   1  15
TORSDOF 9
ENDMDL
MODEL 7
REMARK VINA RESULT:      -5.7      2.330      3.351
REMARK  9 active torsions:
REMARK  status: ('A' for Active; 'I' for Inactive)
REMARK    1  A    between atoms: O_1  and  C_2 
REMARK    2  A    between atoms: C_2  and  C_3 
REMARK    3  A    between atoms: N_12  and  C_13 
REMARK    4  A    between atoms: C_13  and  C_14 
REMARK    5  A    between atoms: C_14  and  O_15 
REMARK    6  A    between atoms: C_14  and  C_16 
REMARK    7  A    between atoms: C_16  and  O_17 
REMARK    8  A    between atoms: O_17  and  C_18 
REMARK    9  A    between atoms: C_18  and  C_19 
ROOT
HETATM    1  C   UNL     1     -40.847 -51.165  13.631  1.00  0.00     0.164 C 
ENDROOT
BRANCH   1   2
HETATM    2  N   UNL     1     -39.950 -50.041  13.408  1.00  0.00    -0.330 N 
HETATM    3  C   UNL     1     -40.032 -49.117  12.384  1.00  0.00     0.108 A 
HETATM    4  N   UNL     1     -39.109 -48.182  12.526  1.00  0.00    -0.342 N 
HETATM    5  C   UNL     1     -38.426 -48.496  13.672  1.00  0.00     0.060 A 
ATOM      6  HN  UNL     1     -38.939 -47.389  11.908  1.00  0.00     0.167 HD
HETATM    7  C   UNL     1     -37.362 -47.817  14.284  1.00  0.00     0.032 A 
HETATM    8  C   UNL     1     -38.923 -49.662  14.246  1.00  0.00     0.062 A 
HETATM    9  C   UNL     1     -36.818 -48.338  15.464  1.00  0.00     0.002 A 
HETATM   10  C   UNL     1     -37.323 -49.512  16.021  1.00  0.00     0.002 A 
HETATM   11  C   UNL     1     -38.389 -50.199  15.426  1.00  0.00     0.032 A 
BRANCH   3  12
HETATM   12  C   UNL     1     -41.006 -49.177  11.259  1.00  0.00     0.240 C 
BRANCH  12  13
HETATM   13  O   UNL     1     -40.433 -49.952  10.213  1.00  0.00    -0.393 OA
HETATM   14  H   UNL     1     -40.900 -49.701   9.399  1.00  0.00     0.209 HD
ENDBRANCH  12  13
ENDBRANCH   3  12
ENDBRANCH   1   2
BRANCH   1  15
HETATM   15  C   UNL     1     -40.459 -52.429  12.845  1.00  0.00     0.160 C 
BRANCH  15  16
HETATM   16  O   UNL     1     -39.297 -53.061  13.394  1.00  0.00    -0.392 OA
HETATM   17  H   UNL     1     -39.249 -52.863  14.344  1.00  0.00     0.210 HD
ENDBRANCH  15  16
BRANCH  15  18
HETATM   18  C   UNL     1     -41.610 -53.445  12.839  1.00  0.00     0.201 C 
BRANCH  18  19
HETATM   19  O   UNL     1     -42.804 -52.812  12.398  1.00  0.00    -0.384 OA
BRANCH  19  20
HETATM   20  C   UNL     1     -43.931 -53.691  12.438  1.00  0.00     0.209 C 
BRANCH  20  21
HETATM   21  C   UNL     1     -45.004 -53.146  13.342  1.00  0.00     0.004 A 
HETATM   22  C   UNL     1     -45.172 -51.775  13.589  1.00  0.00     0.012 A 
HETATM   23  C   UNL     1     -46.182 -51.324  14.444  1.00  0.00     0.001 A 
HETATM   24  C   UNL     1     -47.037 -52.236  15.064  1.00  0.00     0.003 A 
HETATM   25  C   UNL     1     -46.883 -53.600  14.825  1.00  0.00     0.043 A 
HETATM   26  C   UNL     1     -45.875 -54.041  13.970  1.00  0.00     0.124 A 
HETATM   27  F   UNL     1     -45.743 -55.357  13.754  1.00  0.00    -0.205 F 
ENDBRANCH  20  21
ENDBRANCH  19  20
ENDBRANCH  18  19
ENDBRANCH  15  18
ENDBRANCH   1  15
TORSDOF 9
ENDMDL
MODEL 8
REMARK VINA RESULT:      -5.6      3.417      6.727
REMARK  9 active torsions:
REMARK  status: ('A' for Active; 'I' for Inactive)
REMARK    1  A    between atoms: O_1  and  C_2 
REMARK    2  A    between atoms: C_2  and  C_3 
REMARK    3  A    between atoms: N_12  and  C_13 
REMARK    4  A    between atoms: C_13  and  C_14 
REMARK    5  A    between atoms: C_14  and  O_15 
REMARK    6  A    between atoms: C_14  and  C_16 
REMARK    7  A    between atoms: C_16  and  O_17 
REMARK    8  A    between atoms: O_17  and  C_18 
REMARK    9  A    between atoms: C_18  and  C_19 
ROOT
HETATM    1  C   UNL     1     -41.557 -51.064  13.862  1.00  0.00     0.164 C 
ENDROOT
BRANCH   1   2
HETATM    2  N   UNL     1     -42.512 -52.104  13.506  1.00  0.00    -0.330 N 
HETATM    3  C   UNL     1     -42.211 -53.367  13.035  1.00  0.00     0.108 A 
HETATM    4  N   UNL     1     -43.311 -54.084  12.889  1.00  0.00    -0.342 N 
HETATM    5  C   UNL     1     -44.343 -53.276  13.289  1.00  0.00     0.060 A 
ATOM      6  HN  UNL     1     -43.378 -55.043  12.548  1.00  0.00     0.167 HD
HETATM    7  C   UNL     1     -45.717 -53.558  13.350  1.00  0.00     0.032 A 
HETATM    8  C   UNL     1     -43.879 -52.024  13.675  1.00  0.00     0.062 A 
HETATM    9  C   UNL     1     -46.592 -52.560  13.794  1.00  0.00     0.002 A 
HETATM   10  C   UNL     1     -46.108 -51.307  14.168  1.00  0.00     0.002 A 
HETATM   11  C   UNL     1     -44.740 -51.012  14.120  1.00  0.00     0.032 A 
BRANCH   3  12
HETATM   12  C   UNL     1     -40.840 -53.850  12.709  1.00  0.00     0.240 C 
BRANCH  12  13
HETATM   13  O   UNL     1     -40.516 -53.418  11.393  1.00  0.00    -0.393 OA
HETATM   14  H   UNL     1     -39.639 -53.784  11.193  1.00  0.00     0.209 HD
ENDBRANCH  12  13
ENDBRANCH   3  12
ENDBRANCH   1   2
BRANCH   1  15
HETATM   15  C   UNL     1     -41.179 -50.147  12.688  1.00  0.00     0.160 C 
BRANCH  15  16
HETATM   16  O   UNL     1     -41.718 -50.619  11.448  1.00  0.00    -0.392 OA
HETATM   17  H   UNL     1     -42.586 -50.207  11.304  1.00  0.00     0.210 HD
ENDBRANCH  15  16
BRANCH  15  18
HETATM   18  C   UNL     1     -41.684 -48.716  12.925  1.00  0.00     0.201 C 
BRANCH  18  19
HETATM   19  O   UNL     1     -41.495 -47.941  11.748  1.00  0.00    -0.384 OA
BRANCH  19  20
HETATM   20  C   UNL     1     -40.138 -47.524  11.584  1.00  0.00     0.209 C 
BRANCH  20  21
HETATM   21  C   UNL     1     -39.970 -46.079  11.973  1.00  0.00     0.004 A 
HETATM   22  C   UNL     1     -39.407 -45.676  13.193  1.00  0.00     0.012 A 
HETATM   23  C   UNL     1     -39.282 -44.319  13.505  1.00  0.00     0.001 A 
HETATM   24  C   UNL     1     -39.718 -43.347  12.604  1.00  0.00     0.003 A 
HETATM   25  C   UNL     1     -40.276 -43.734  11.388  1.00  0.00     0.043 A 
HETATM   26  C   UNL     1     -40.396 -45.088  11.083  1.00  0.00     0.124 A 
HETATM   27  F   UNL     1     -40.937 -45.440   9.908  1.00  0.00    -0.205 F 
ENDBRANCH  20  21
ENDBRANCH  19  20
ENDBRANCH  18  19
ENDBRANCH  15  18
ENDBRANCH   1  15
TORSDOF 9
ENDMDL
MODEL 9
REMARK VINA RESULT:      -5.6      3.301      5.666
REMARK  9 active torsions:
REMARK  status: ('A' for Active; 'I' for Inactive)
REMARK    1  A    between atoms: O_1  and  C_2 
REMARK    2  A    between atoms: C_2  and  C_3 
REMARK    3  A    between atoms: N_12  and  C_13 
REMARK    4  A    between atoms: C_13  and  C_14 
REMARK    5  A    between atoms: C_14  and  O_15 
REMARK    6  A    between atoms: C_14  and  C_16 
REMARK    7  A    between atoms: C_16  and  O_17 
REMARK    8  A    between atoms: O_17  and  C_18 
REMARK    9  A    between atoms: C_18  and  C_19 
ROOT
HETATM    1  C   UNL     1     -42.530 -53.581  14.607  1.00  0.00     0.164 C 
ENDROOT
BRANCH   1   2
HETATM    2  N   UNL     1     -41.132 -53.988  14.606  1.00  0.00    -0.330 N 
HETATM    3  C   UNL     1     -40.144 -53.526  13.759  1.00  0.00     0.108 A 
HETATM    4  N   UNL     1     -38.973 -54.045  14.083  1.00  0.00    -0.342 N 
HETATM    5  C   UNL     1     -39.203 -54.846  15.171  1.00  0.00     0.060 A 
ATOM      6  HN  UNL     1     -38.079 -53.882  13.619  1.00  0.00     0.167 HD
HETATM    7  C   UNL     1     -38.294 -55.611  15.917  1.00  0.00     0.032 A 
HETATM    8  C   UNL     1     -40.549 -54.840  15.521  1.00  0.00     0.062 A 
HETATM    9  C   UNL     1     -38.769 -56.361  16.999  1.00  0.00     0.002 A 
HETATM   10  C   UNL     1     -40.124 -56.350  17.329  1.00  0.00     0.002 A 
HETATM   11  C   UNL     1     -41.044 -55.586  16.599  1.00  0.00     0.032 A 
BRANCH   3  12
HETATM   12  C   UNL     1     -40.367 -52.594  12.619  1.00  0.00     0.240 C 
BRANCH  12  13
HETATM   13  O   UNL     1     -40.594 -53.367  11.447  1.00  0.00    -0.393 OA
HETATM   14  H   UNL     1     -41.027 -52.776  10.809  1.00  0.00     0.209 HD
ENDBRANCH  12  13
ENDBRANCH   3  12
ENDBRANCH   1   2
BRANCH   1  15
HETATM   15  C   UNL     1     -43.458 -54.560  13.871  1.00  0.00     0.160 C 
BRANCH  15  16
HETATM   16  O   UNL     1     -44.050 -55.508  14.767  1.00  0.00    -0.392 OA
HETATM   17  H   UNL     1     -45.001 -55.570  14.578  1.00  0.00     0.210 HD
ENDBRANCH  15  16
BRANCH  15  18
HETATM   18  C   UNL     1     -44.583 -53.808  13.146  1.00  0.00     0.201 C 
BRANCH  18  19
HETATM   19  O   UNL     1     -45.617 -53.487  14.069  1.00  0.00    -0.384 OA
BRANCH  19  20
HETATM   20  C   UNL     1     -46.084 -52.145  13.916  1.00  0.00     0.209 C 
BRANCH  20  21
HETATM   21  C   UNL     1     -46.319 -51.504  15.258  1.00  0.00     0.004 A 
HETATM   22  C   UNL     1     -47.541 -51.592  15.943  1.00  0.00     0.012 A 
HETATM   23  C   UNL     1     -47.706 -50.970  17.184  1.00  0.00     0.001 A 
HETATM   24  C   UNL     1     -46.656 -50.253  17.757  1.00  0.00     0.003 A 
HETATM   25  C   UNL     1     -45.437 -50.160  17.089  1.00  0.00     0.043 A 
HETATM   26  C   UNL     1     -45.279 -50.783  15.853  1.00  0.00     0.124 A 
HETATM   27  F   UNL     1     -44.100 -50.681  15.225  1.00  0.00    -0.205 F 
ENDBRANCH  20  21
ENDBRANCH  19  20
ENDBRANCH  18  19
ENDBRANCH  15  18
ENDBRANCH   1  15
TORSDOF 9
ENDMDL
