MODEL 1
REMARK VINA RESULT:      -7.0      0.000      0.000
REMARK  5 active torsions:
REMARK  status: ('A' for Active; 'I' for Inactive)
REMARK    1  A    between atoms: N_2  and  C_19 
REMARK    2  A    between atoms: C_7  and  N_13 
REMARK    3  A    between atoms: C_18  and  C_19 
REMARK    4  A    between atoms: C_18  and  C_30 
REMARK    5  A    between atoms: C_30  and  O_31 
ROOT
HETATM    1  C   UNL     1     -42.002 -48.684  11.819  1.00  0.00     0.122 A 
HETATM    2  N   UNL     1     -41.969 -46.702  10.918  1.00  0.00    -0.326 N 
HETATM    3  C   UNL     1     -41.141 -47.700  11.355  1.00  0.00     0.140 A 
HETATM    4  N   UNL     1     -43.319 -48.278  11.704  1.00  0.00    -0.346 N 
ATOM      5  HN  UNL     1     -44.153 -48.789  11.992  1.00  0.00     0.167 HD
HETATM    6  C   UNL     1     -41.422 -49.898  12.245  1.00  0.00     0.135 A 
HETATM    7  C   UNL     1     -43.260 -47.093  11.143  1.00  0.00     0.185 A 
HETATM    8  N   UNL     1     -39.798 -47.739  11.311  1.00  0.00    -0.336 N 
ATOM      9  HN  UNL     1     -39.204 -46.979  10.981  1.00  0.00     0.168 HD
HETATM   10  N   UNL     1     -40.064 -49.989  12.199  1.00  0.00    -0.337 N 
ATOM     11  HN  UNL     1     -39.595 -50.847  12.489  1.00  0.00     0.168 HD
HETATM   12  C   UNL     1     -39.347 -48.930  11.765  1.00  0.00     0.183 A 
ENDROOT
BRANCH   6  13
HETATM   13  N   UNL     1     -42.208 -51.000  12.567  1.00  0.00    -0.365 N 
HETATM   14  C   UNL     1     -41.737 -52.291  12.095  1.00  0.00     0.127 C 
HETATM   15  C   UNL     1     -42.962 -53.197  11.981  1.00  0.00     0.061 C 
HETATM   16  C   UNL     1     -43.759 -53.234  13.285  1.00  0.00     0.118 A 
HETATM   17  C   UNL     1     -43.085 -54.159  14.320  1.00  0.00     0.254 A 
HETATM   18  C   UNL     1     -44.034 -51.856  13.896  1.00  0.00     0.061 C 
HETATM   19  N   UNL     1     -45.000 -53.975  13.109  1.00  0.00    -0.324 N 
HETATM   20  N   UNL     1     -43.942 -55.163  14.637  1.00  0.00    -0.277 N 
HETATM   21  O   UNL     1     -41.972 -54.020  14.800  1.00  0.00    -0.270 OA
HETATM   22  C   UNL     1     -45.080 -55.082  13.910  1.00  0.00     0.323 A 
HETATM   23  H   UNL     1     -43.741 -55.904  15.290  1.00  0.00     0.173 HD
HETATM   24  O   UNL     1     -46.008 -55.864  13.942  1.00  0.00    -0.247 OA
HETATM   25  C   UNL     1     -42.778 -50.989  13.912  1.00  0.00     0.127 C 
HETATM   26  H   UNL     1     -45.748 -53.732  12.475  1.00  0.00     0.165 HD
ENDBRANCH   6  13
BRANCH   2  27
HETATM   27  C   UNL     1     -41.578 -45.486  10.233  1.00  0.00     0.147 C 
BRANCH  27  28
HETATM   28  C   UNL     1     -41.622 -44.247  11.116  1.00  0.00     0.040 C 
HETATM   29  C   UNL     1     -40.378 -43.336  11.099  1.00  0.00     0.183 C 
HETATM   30  O   UNL     1     -40.217 -43.468  12.530  1.00  0.00    -0.389 OA
HETATM   31  C   UNL     1     -41.177 -44.552  12.559  1.00  0.00     0.183 C 
BRANCH  28  32
HETATM   32  C   UNL     1     -42.911 -43.440  11.014  1.00  0.00     0.179 C 
BRANCH  32  33
HETATM   33  O   UNL     1     -43.647 -43.851   9.868  1.00  0.00    -0.400 OA
HETATM   34  H   UNL     1     -43.018 -43.865   9.117  1.00  0.00     0.209 HD
ENDBRANCH  32  33
ENDBRANCH  28  32
ENDBRANCH  27  28
ENDBRANCH   2  27
TORSDOF 5
ENDMDL
MODEL 2
REMARK VINA RESULT:      -7.0      1.919      8.704
REMARK  5 active torsions:
REMARK  status: ('A' for Active; 'I' for Inactive)
REMARK    1  A    between atoms: N_2  and  C_19 
REMARK    2  A    between atoms: C_7  and  N_13 
REMARK    3  A    between atoms: C_18  and  C_19 
REMARK    4  A    between atoms: C_18  and  C_30 
REMARK    5  A    between atoms: C_30  and  O_31 
ROOT
HETATM    1  C   UNL     1     -41.654 -49.075  12.710  1.00  0.00     0.122 A 
HETATM    2  N   UNL     1     -41.913 -50.966  13.756  1.00  0.00    -0.326 N 
HETATM    3  C   UNL     1     -41.076 -50.324  12.886  1.00  0.00     0.140 A 
HETATM    4  N   UNL     1     -42.834 -48.975  13.425  1.00  0.00    -0.346 N 
ATOM      5  HN  UNL     1     -43.475 -48.182  13.456  1.00  0.00     0.167 HD
HETATM    6  C   UNL     1     -40.943 -48.141  11.927  1.00  0.00     0.135 A 
HETATM    7  C   UNL     1     -42.946 -50.121  14.054  1.00  0.00     0.185 A 
HETATM    8  N   UNL     1     -39.932 -50.781  12.350  1.00  0.00    -0.336 N 
ATOM      9  HN  UNL     1     -39.556 -51.718  12.490  1.00  0.00     0.168 HD
HETATM   10  N   UNL     1     -39.767 -48.555  11.380  1.00  0.00    -0.337 N 
ATOM     11  HN  UNL     1     -39.210 -47.917  10.811  1.00  0.00     0.168 HD
HETATM   12  C   UNL     1     -39.348 -49.820  11.599  1.00  0.00     0.183 A 
ENDROOT
BRANCH   6  13
HETATM   13  N   UNL     1     -41.355 -46.815  11.831  1.00  0.00    -0.365 N 
HETATM   14  C   UNL     1     -40.767 -45.884  12.779  1.00  0.00     0.127 C 
HETATM   15  C   UNL     1     -41.752 -44.728  12.937  1.00  0.00     0.061 C 
HETATM   16  C   UNL     1     -42.134 -44.124  11.585  1.00  0.00     0.118 A 
HETATM   17  C   UNL     1     -41.020 -43.194  11.060  1.00  0.00     0.254 A 
HETATM   18  C   UNL     1     -42.520 -45.154  10.520  1.00  0.00     0.061 C 
HETATM   19  N   UNL     1     -43.187 -43.130  11.745  1.00  0.00    -0.324 N 
HETATM   20  N   UNL     1     -41.522 -41.940  10.923  1.00  0.00    -0.277 N 
HETATM   21  O   UNL     1     -39.875 -43.516  10.789  1.00  0.00    -0.270 OA
HETATM   22  C   UNL     1     -42.805 -41.878  11.346  1.00  0.00     0.323 A 
HETATM   23  H   UNL     1     -40.996 -41.144  10.598  1.00  0.00     0.173 HD
HETATM   24  O   UNL     1     -43.498 -40.882  11.388  1.00  0.00    -0.247 OA
HETATM   25  C   UNL     1     -41.524 -46.311  10.471  1.00  0.00     0.127 C 
HETATM   26  H   UNL     1     -44.114 -43.305  12.106  1.00  0.00     0.165 HD
ENDBRANCH   6  13
BRANCH   2  27
HETATM   27  C   UNL     1     -41.707 -52.268  14.360  1.00  0.00     0.147 C 
BRANCH  27  28
HETATM   28  C   UNL     1     -42.126 -53.428  13.468  1.00  0.00     0.040 C 
HETATM   29  C   UNL     1     -43.268 -53.157  12.467  1.00  0.00     0.183 C 
HETATM   30  O   UNL     1     -44.055 -54.239  13.016  1.00  0.00    -0.389 OA
HETATM   31  C   UNL     1     -43.163 -54.337  14.154  1.00  0.00     0.183 C 
BRANCH  28  32
HETATM   32  C   UNL     1     -40.971 -54.176  12.813  1.00  0.00     0.179 C 
BRANCH  32  33
HETATM   33  O   UNL     1     -40.629 -53.551  11.581  1.00  0.00    -0.400 OA
HETATM   34  H   UNL     1     -39.756 -53.127  11.711  1.00  0.00     0.209 HD
ENDBRANCH  32  33
ENDBRANCH  28  32
ENDBRANCH  27  28
ENDBRANCH   2  27
TORSDOF 5
ENDMDL
MODEL 3
REMARK VINA RESULT:      -6.8      2.715      3.605
REMARK  5 active torsions:
REMARK  status: ('A' for Active; 'I' for Inactive)
REMARK    1  A    between atoms: N_2  and  C_19 
REMARK    2  A    between atoms: C_7  and  N_13 
REMARK    3  A    between atoms: C_18  and  C_19 
REMARK    4  A    between atoms: C_18  and  C_30 
REMARK    5  A    between atoms: C_30  and  O_31 
ROOT
HETATM    1  C   UNL     1     -40.583 -47.220  11.680  1.00  0.00     0.122 A 
HETATM    2  N   UNL     1     -40.595 -45.060  11.417  1.00  0.00    -0.326 N 
HETATM    3  C   UNL     1     -41.147 -46.208  10.919  1.00  0.00     0.140 A 
HETATM    4  N   UNL     1     -39.679 -46.704  12.591  1.00  0.00    -0.346 N 
ATOM      5  HN  UNL     1     -39.102 -47.221  13.255  1.00  0.00     0.167 HD
HETATM    6  C   UNL     1     -41.051 -48.533  11.455  1.00  0.00     0.135 A 
HETATM    7  C   UNL     1     -39.727 -45.405  12.417  1.00  0.00     0.185 A 
HETATM    8  N   UNL     1     -42.061 -46.329   9.941  1.00  0.00    -0.336 N 
ATOM      9  HN  UNL     1     -42.432 -45.554   9.391  1.00  0.00     0.168 HD
HETATM   10  N   UNL     1     -41.992 -48.700  10.486  1.00  0.00    -0.337 N 
ATOM     11  HN  UNL     1     -42.369 -49.627  10.288  1.00  0.00     0.168 HD
HETATM   12  C   UNL     1     -42.419 -47.624   9.790  1.00  0.00     0.183 A 
ENDROOT
BRANCH   6  13
HETATM   13  N   UNL     1     -40.670 -49.587  12.280  1.00  0.00    -0.365 N 
HETATM   14  C   UNL     1     -41.742 -50.410  12.816  1.00  0.00     0.127 C 
HETATM   15  C   UNL     1     -41.219 -51.036  14.107  1.00  0.00     0.061 C 
HETATM   16  C   UNL     1     -39.891 -51.762  13.884  1.00  0.00     0.118 A 
HETATM   17  C   UNL     1     -40.119 -53.140  13.226  1.00  0.00     0.254 A 
HETATM   18  C   UNL     1     -38.855 -50.955  13.096  1.00  0.00     0.061 C 
HETATM   19  N   UNL     1     -39.335 -52.217  15.151  1.00  0.00    -0.324 N 
HETATM   20  N   UNL     1     -39.654 -54.107  14.058  1.00  0.00    -0.277 N 
HETATM   21  O   UNL     1     -40.616 -53.347  12.132  1.00  0.00    -0.270 OA
HETATM   22  C   UNL     1     -39.202 -53.578  15.218  1.00  0.00     0.323 A 
HETATM   23  H   UNL     1     -39.686 -55.095  13.863  1.00  0.00     0.173 HD
HETATM   24  O   UNL     1     -38.772 -54.198  16.169  1.00  0.00    -0.247 OA
HETATM   25  C   UNL     1     -39.471 -50.307  11.859  1.00  0.00     0.127 C 
HETATM   26  H   UNL     1     -39.062 -51.625  15.922  1.00  0.00     0.165 HD
ENDBRANCH   6  13
BRANCH   2  27
HETATM   27  C   UNL     1     -40.934 -43.699  11.047  1.00  0.00     0.147 C 
BRANCH  27  28
HETATM   28  C   UNL     1     -42.145 -43.150  11.788  1.00  0.00     0.040 C 
HETATM   29  C   UNL     1     -41.868 -42.131  12.913  1.00  0.00     0.183 C 
HETATM   30  O   UNL     1     -42.555 -42.959  13.881  1.00  0.00    -0.389 OA
HETATM   31  C   UNL     1     -42.575 -44.068  12.949  1.00  0.00     0.183 C 
BRANCH  28  32
HETATM   32  C   UNL     1     -43.289 -42.697  10.889  1.00  0.00     0.179 C 
BRANCH  32  33
HETATM   33  O   UNL     1     -43.631 -43.740   9.984  1.00  0.00    -0.400 OA
HETATM   34  H   UNL     1     -43.912 -44.506  10.526  1.00  0.00     0.209 HD
ENDBRANCH  32  33
ENDBRANCH  28  32
ENDBRANCH  27  28
ENDBRANCH   2  27
TORSDOF 5
ENDMDL
MODEL 4
REMARK VINA RESULT:      -6.8      2.000      8.473
REMARK  5 active torsions:
REMARK  status: ('A' for Active; 'I' for Inactive)
REMARK    1  A    between atoms: N_2  and  C_19 
REMARK    2  A    between atoms: C_7  and  N_13 
REMARK    3  A    between atoms: C_18  and  C_19 
REMARK    4  A    between atoms: C_18  and  C_30 
REMARK    5  A    between atoms: C_30  and  O_31 
ROOT
HETATM    1  C   UNL     1     -40.707 -50.523  12.439  1.00  0.00     0.122 A 
HETATM    2  N   UNL     1     -40.971 -52.652  12.807  1.00  0.00    -0.326 N 
HETATM    3  C   UNL     1     -40.071 -51.635  12.970  1.00  0.00     0.140 A 
HETATM    4  N   UNL     1     -41.947 -50.862  11.930  1.00  0.00    -0.346 N 
ATOM      5  HN  UNL     1     -42.614 -50.251  11.460  1.00  0.00     0.167 HD
HETATM    6  C   UNL     1     -40.045 -49.283  12.563  1.00  0.00     0.135 A 
HETATM    7  C   UNL     1     -42.078 -52.143  12.186  1.00  0.00     0.185 A 
HETATM    8  N   UNL     1     -38.859 -51.689  13.548  1.00  0.00    -0.336 N 
ATOM      9  HN  UNL     1     -38.421 -52.539  13.905  1.00  0.00     0.168 HD
HETATM   10  N   UNL     1     -38.822 -49.287  13.161  1.00  0.00    -0.337 N 
ATOM     11  HN  UNL     1     -38.304 -48.417  13.282  1.00  0.00     0.168 HD
HETATM   12  C   UNL     1     -38.303 -50.458  13.591  1.00  0.00     0.183 A 
ENDROOT
BRANCH   6  13
HETATM   13  N   UNL     1     -40.673 -48.090  12.215  1.00  0.00    -0.365 N 
HETATM   14  C   UNL     1     -41.571 -47.519  13.204  1.00  0.00     0.127 C 
HETATM   15  C   UNL     1     -42.578 -46.657  12.445  1.00  0.00     0.061 C 
HETATM   16  C   UNL     1     -41.880 -45.642  11.537  1.00  0.00     0.118 A 
HETATM   17  C   UNL     1     -41.358 -44.439  12.350  1.00  0.00     0.254 A 
HETATM   18  C   UNL     1     -40.761 -46.233  10.674  1.00  0.00     0.061 C 
HETATM   19  N   UNL     1     -42.852 -44.939  10.711  1.00  0.00    -0.324 N 
HETATM   20  N   UNL     1     -41.961 -43.309  11.901  1.00  0.00    -0.277 N 
HETATM   21  O   UNL     1     -40.528 -44.473  13.243  1.00  0.00    -0.270 OA
HETATM   22  C   UNL     1     -42.869 -43.589  10.938  1.00  0.00     0.323 A 
HETATM   23  H   UNL     1     -41.796 -42.385  12.268  1.00  0.00     0.173 HD
HETATM   24  O   UNL     1     -43.594 -42.790  10.382  1.00  0.00    -0.247 OA
HETATM   25  C   UNL     1     -39.839 -47.135  11.491  1.00  0.00     0.127 C 
HETATM   26  H   UNL     1     -43.464 -45.364  10.029  1.00  0.00     0.165 HD
ENDBRANCH   6  13
BRANCH   2  27
HETATM   27  C   UNL     1     -40.847 -54.011  13.297  1.00  0.00     0.147 C 
BRANCH  27  28
HETATM   28  C   UNL     1     -41.544 -54.244  14.631  1.00  0.00     0.040 C 
HETATM   29  C   UNL     1     -41.468 -53.102  15.663  1.00  0.00     0.183 C 
HETATM   30  O   UNL     1     -40.867 -53.979  16.644  1.00  0.00    -0.389 OA
HETATM   31  C   UNL     1     -40.638 -54.989  15.631  1.00  0.00     0.183 C 
BRANCH  28  32
HETATM   32  C   UNL     1     -42.955 -54.810  14.520  1.00  0.00     0.179 C 
BRANCH  32  33
HETATM   33  O   UNL     1     -43.176 -55.755  15.560  1.00  0.00    -0.400 OA
HETATM   34  H   UNL     1     -43.163 -56.642  15.145  1.00  0.00     0.209 HD
ENDBRANCH  32  33
ENDBRANCH  28  32
ENDBRANCH  27  28
ENDBRANCH   2  27
TORSDOF 5
ENDMDL
MODEL 5
REMARK VINA RESULT:      -6.7      1.940      8.691
REMARK  5 active torsions:
REMARK  status: ('A' for Active; 'I' for Inactive)
REMARK    1  A    between atoms: N_2  and  C_19 
REMARK    2  A    between atoms: C_7  and  N_13 
REMARK    3  A    between atoms: C_18  and  C_19 
REMARK    4  A    between atoms: C_18  and  C_30 
REMARK    5  A    between atoms: C_30  and  O_31 
ROOT
HETATM    1  C   UNL     1     -42.603 -49.760  13.277  1.00  0.00     0.122 A 
HETATM    2  N   UNL     1     -43.571 -51.380  14.362  1.00  0.00    -0.326 N 
HETATM    3  C   UNL     1     -42.728 -51.141  13.312  1.00  0.00     0.140 A 
HETATM    4  N   UNL     1     -43.381 -49.172  14.258  1.00  0.00    -0.346 N 
ATOM      5  HN  UNL     1     -43.500 -48.176  14.441  1.00  0.00     0.167 HD
HETATM    6  C   UNL     1     -41.696 -49.219  12.341  1.00  0.00     0.135 A 
HETATM    7  C   UNL     1     -43.932 -50.175  14.899  1.00  0.00     0.185 A 
HETATM    8  N   UNL     1     -42.125 -52.039  12.515  1.00  0.00    -0.336 N 
ATOM      9  HN  UNL     1     -42.266 -53.048  12.563  1.00  0.00     0.168 HD
HETATM   10  N   UNL     1     -41.047 -50.094  11.525  1.00  0.00    -0.337 N 
ATOM     11  HN  UNL     1     -40.376 -49.756  10.835  1.00  0.00     0.168 HD
HETATM   12  C   UNL     1     -41.303 -51.416  11.641  1.00  0.00     0.183 A 
ENDROOT
BRANCH   6  13
HETATM   13  N   UNL     1     -41.377 -47.864  12.344  1.00  0.00    -0.365 N 
HETATM   14  C   UNL     1     -40.016 -47.519  11.971  1.00  0.00     0.127 C 
HETATM   15  C   UNL     1     -39.703 -46.174  12.622  1.00  0.00     0.061 C 
HETATM   16  C   UNL     1     -40.758 -45.121  12.278  1.00  0.00     0.118 A 
HETATM   17  C   UNL     1     -40.538 -44.562  10.856  1.00  0.00     0.254 A 
HETATM   18  C   UNL     1     -42.204 -45.597  12.449  1.00  0.00     0.061 C 
HETATM   19  N   UNL     1     -40.527 -43.896  13.030  1.00  0.00    -0.324 N 
HETATM   20  N   UNL     1     -40.308 -43.227  10.939  1.00  0.00    -0.277 N 
HETATM   21  O   UNL     1     -40.577 -45.195   9.814  1.00  0.00    -0.270 OA
HETATM   22  C   UNL     1     -40.278 -42.815  12.227  1.00  0.00     0.323 A 
HETATM   23  H   UNL     1     -40.132 -42.625  10.150  1.00  0.00     0.173 HD
HETATM   24  O   UNL     1     -40.047 -41.688  12.614  1.00  0.00    -0.247 OA
HETATM   25  C   UNL     1     -42.417 -46.977  11.831  1.00  0.00     0.127 C 
HETATM   26  H   UNL     1     -40.543 -43.809  14.036  1.00  0.00     0.165 HD
ENDBRANCH   6  13
BRANCH   2  27
HETATM   27  C   UNL     1     -43.942 -52.674  14.903  1.00  0.00     0.147 C 
BRANCH  27  28
HETATM   28  C   UNL     1     -45.100 -53.332  14.167  1.00  0.00     0.040 C 
HETATM   29  C   UNL     1     -45.989 -54.291  14.985  1.00  0.00     0.183 C 
HETATM   30  O   UNL     1     -45.730 -55.375  14.063  1.00  0.00    -0.389 OA
HETATM   31  C   UNL     1     -44.663 -54.619  13.440  1.00  0.00     0.183 C 
BRANCH  28  32
HETATM   32  C   UNL     1     -45.934 -52.383  13.315  1.00  0.00     0.179 C 
BRANCH  32  33
HETATM   33  O   UNL     1     -46.350 -53.044  12.125  1.00  0.00    -0.400 OA
HETATM   34  H   UNL     1     -47.039 -52.482  11.714  1.00  0.00     0.209 HD
ENDBRANCH  32  33
ENDBRANCH  28  32
ENDBRANCH  27  28
ENDBRANCH   2  27
TORSDOF 5
ENDMDL
MODEL 6
REMARK VINA RESULT:      -6.6      1.846      2.436
REMARK  5 active torsions:
REMARK  status: ('A' for Active; 'I' for Inactive)
REMARK    1  A    between atoms: N_2  and  C_19 
REMARK    2  A    between atoms: C_7  and  N_13 
REMARK    3  A    between atoms: C_18  and  C_19 
REMARK    4  A    between atoms: C_18  and  C_30 
REMARK    5  A    between atoms: C_30  and  O_31 
ROOT
HETATM    1  C   UNL     1     -40.821 -48.843  13.268  1.00  0.00     0.122 A 
HETATM    2  N   UNL     1     -40.020 -46.821  13.163  1.00  0.00    -0.326 N 
HETATM    3  C   UNL     1     -39.957 -48.038  12.540  1.00  0.00     0.140 A 
HETATM    4  N   UNL     1     -41.365 -48.144  14.330  1.00  0.00    -0.346 N 
ATOM      5  HN  UNL     1     -42.007 -48.496  15.041  1.00  0.00     0.167 HD
HETATM    6  C   UNL     1     -41.041 -50.151  12.787  1.00  0.00     0.135 A 
HETATM    7  C   UNL     1     -40.876 -46.931  14.224  1.00  0.00     0.185 A 
HETATM    8  N   UNL     1     -39.250 -48.371  11.447  1.00  0.00    -0.336 N 
ATOM      9  HN  UNL     1     -38.607 -47.750  10.957  1.00  0.00     0.168 HD
HETATM   10  N   UNL     1     -40.360 -50.526  11.669  1.00  0.00    -0.337 N 
ATOM     11  HN  UNL     1     -40.488 -51.458  11.276  1.00  0.00     0.168 HD
HETATM   12  C   UNL     1     -39.513 -49.648  11.089  1.00  0.00     0.183 A 
ENDROOT
BRANCH   6  13
HETATM   13  N   UNL     1     -42.014 -50.973  13.348  1.00  0.00    -0.365 N 
HETATM   14  C   UNL     1     -43.395 -50.655  13.028  1.00  0.00     0.127 C 
HETATM   15  C   UNL     1     -44.253 -51.202  14.166  1.00  0.00     0.061 C 
HETATM   16  C   UNL     1     -43.971 -52.683  14.423  1.00  0.00     0.118 A 
HETATM   17  C   UNL     1     -44.673 -53.571  13.374  1.00  0.00     0.254 A 
HETATM   18  C   UNL     1     -42.483 -53.035  14.514  1.00  0.00     0.061 C 
HETATM   19  N   UNL     1     -44.683 -53.144  15.607  1.00  0.00    -0.324 N 
HETATM   20  N   UNL     1     -45.548 -54.393  14.007  1.00  0.00    -0.277 N 
HETATM   21  O   UNL     1     -44.477 -53.563  12.170  1.00  0.00    -0.270 OA
HETATM   22  C   UNL     1     -45.583 -54.140  15.336  1.00  0.00     0.323 A 
HETATM   23  H   UNL     1     -46.135 -55.071  13.547  1.00  0.00     0.173 HD
HETATM   24  O   UNL     1     -46.301 -54.682  16.150  1.00  0.00    -0.247 OA
HETATM   25  C   UNL     1     -41.685 -52.396  13.382  1.00  0.00     0.127 C 
HETATM   26  H   UNL     1     -44.555 -52.795  16.546  1.00  0.00     0.165 HD
ENDBRANCH   6  13
BRANCH   2  27
HETATM   27  C   UNL     1     -39.389 -45.589  12.730  1.00  0.00     0.147 C 
BRANCH  27  28
HETATM   28  C   UNL     1     -40.244 -44.771  11.773  1.00  0.00     0.040 C 
HETATM   29  C   UNL     1     -41.572 -45.405  11.311  1.00  0.00     0.183 C 
HETATM   30  O   UNL     1     -41.185 -45.290   9.922  1.00  0.00    -0.389 OA
HETATM   31  C   UNL     1     -39.823 -44.977  10.305  1.00  0.00     0.183 C 
BRANCH  28  32
HETATM   32  C   UNL     1     -40.428 -43.312  12.174  1.00  0.00     0.179 C 
BRANCH  32  33
HETATM   33  O   UNL     1     -40.496 -42.498  11.008  1.00  0.00    -0.400 OA
HETATM   34  H   UNL     1     -40.916 -41.654  11.276  1.00  0.00     0.209 HD
ENDBRANCH  32  33
ENDBRANCH  28  32
ENDBRANCH  27  28
ENDBRANCH   2  27
TORSDOF 5
ENDMDL
MODEL 7
REMARK VINA RESULT:      -6.6      3.136      9.238
REMARK  5 active torsions:
REMARK  status: ('A' for Active; 'I' for Inactive)
REMARK    1  A    between atoms: N_2  and  C_19 
REMARK    2  A    between atoms: C_7  and  N_13 
REMARK    3  A    between atoms: C_18  and  C_19 
REMARK    4  A    between atoms: C_18  and  C_30 
REMARK    5  A    between atoms: C_30  and  O_31 
ROOT
HETATM    1  C   UNL     1     -42.118 -46.904  12.614  1.00  0.00     0.122 A 
HETATM    2  N   UNL     1     -41.883 -48.964  13.279  1.00  0.00    -0.326 N 
HETATM    3  C   UNL     1     -42.521 -48.203  12.338  1.00  0.00     0.140 A 
HETATM    4  N   UNL     1     -41.287 -46.872  13.719  1.00  0.00    -0.346 N 
ATOM      5  HN  UNL     1     -40.869 -46.052  14.158  1.00  0.00     0.167 HD
HETATM    6  C   UNL     1     -42.546 -45.895  11.725  1.00  0.00     0.135 A 
HETATM    7  C   UNL     1     -41.155 -48.127  14.079  1.00  0.00     0.185 A 
HETATM    8  N   UNL     1     -43.325 -48.619  11.346  1.00  0.00    -0.336 N 
ATOM      9  HN  UNL     1     -43.613 -49.585  11.195  1.00  0.00     0.168 HD
HETATM   10  N   UNL     1     -43.348 -46.274  10.693  1.00  0.00    -0.337 N 
ATOM     11  HN  UNL     1     -43.680 -45.585  10.017  1.00  0.00     0.168 HD
HETATM   12  C   UNL     1     -43.698 -47.573  10.574  1.00  0.00     0.183 A 
ENDROOT
BRANCH   6  13
HETATM   13  N   UNL     1     -42.060 -44.595  11.820  1.00  0.00    -0.365 N 
HETATM   14  C   UNL     1     -42.563 -43.794  12.924  1.00  0.00     0.127 C 
HETATM   15  C   UNL     1     -42.438 -42.331  12.505  1.00  0.00     0.061 C 
HETATM   16  C   UNL     1     -41.017 -41.993  12.052  1.00  0.00     0.118 A 
HETATM   17  C   UNL     1     -40.082 -41.798  13.265  1.00  0.00     0.254 A 
HETATM   18  C   UNL     1     -40.414 -42.997  11.066  1.00  0.00     0.061 C 
HETATM   19  N   UNL     1     -40.956 -40.641  11.513  1.00  0.00    -0.324 N 
HETATM   20  N   UNL     1     -39.591 -40.532  13.243  1.00  0.00    -0.277 N 
HETATM   21  O   UNL     1     -39.802 -42.635  14.106  1.00  0.00    -0.270 OA
HETATM   22  C   UNL     1     -40.117 -39.822  12.219  1.00  0.00     0.323 A 
HETATM   23  H   UNL     1     -38.958 -40.150  13.928  1.00  0.00     0.173 HD
HETATM   24  O   UNL     1     -39.903 -38.652  11.974  1.00  0.00    -0.247 OA
HETATM   25  C   UNL     1     -40.639 -44.436  11.521  1.00  0.00     0.127 C 
HETATM   26  H   UNL     1     -41.462 -40.304  10.706  1.00  0.00     0.165 HD
ENDBRANCH   6  13
BRANCH   2  27
HETATM   27  C   UNL     1     -41.872 -50.411  13.366  1.00  0.00     0.147 C 
BRANCH  27  28
HETATM   28  C   UNL     1     -40.749 -51.062  12.570  1.00  0.00     0.040 C 
HETATM   29  C   UNL     1     -41.076 -52.395  11.869  1.00  0.00     0.183 C 
HETATM   30  O   UNL     1     -39.999 -53.066  12.563  1.00  0.00    -0.389 OA
HETATM   31  C   UNL     1     -39.847 -51.938  13.459  1.00  0.00     0.183 C 
BRANCH  28  32
HETATM   32  C   UNL     1     -39.992 -50.113  11.649  1.00  0.00     0.179 C 
BRANCH  32  33
HETATM   33  O   UNL     1     -40.569 -50.142  10.349  1.00  0.00    -0.400 OA
HETATM   34  H   UNL     1     -41.372 -49.582  10.382  1.00  0.00     0.209 HD
ENDBRANCH  32  33
ENDBRANCH  28  32
ENDBRANCH  27  28
ENDBRANCH   2  27
TORSDOF 5
ENDMDL
MODEL 8
REMARK VINA RESULT:      -6.6      2.152      8.685
REMARK  5 active torsions:
REMARK  status: ('A' for Active; 'I' for Inactive)
REMARK    1  A    between atoms: N_2  and  C_19 
REMARK    2  A    between atoms: C_7  and  N_13 
REMARK    3  A    between atoms: C_18  and  C_19 
REMARK    4  A    between atoms: C_18  and  C_30 
REMARK    5  A    between atoms: C_30  and  O_31 
ROOT
HETATM    1  C   UNL     1     -42.233 -50.378  13.964  1.00  0.00     0.122 A 
HETATM    2  N   UNL     1     -42.971 -52.395  14.315  1.00  0.00    -0.326 N 
HETATM    3  C   UNL     1     -42.921 -51.153  14.885  1.00  0.00     0.140 A 
HETATM    4  N   UNL     1     -41.839 -51.139  12.879  1.00  0.00    -0.346 N 
ATOM      5  HN  UNL     1     -41.297 -50.834  12.070  1.00  0.00     0.167 HD
HETATM    6  C   UNL     1     -42.115 -48.999  14.242  1.00  0.00     0.135 A 
HETATM    7  C   UNL     1     -42.315 -52.338  13.116  1.00  0.00     0.185 A 
HETATM    8  N   UNL     1     -43.452 -50.758  16.055  1.00  0.00    -0.336 N 
ATOM      9  HN  UNL     1     -43.932 -51.372  16.713  1.00  0.00     0.168 HD
HETATM   10  N   UNL     1     -42.656 -48.551  15.409  1.00  0.00    -0.337 N 
ATOM     11  HN  UNL     1     -42.605 -47.563  15.655  1.00  0.00     0.168 HD
HETATM   12  C   UNL     1     -43.260 -49.432  16.235  1.00  0.00     0.183 A 
ENDROOT
BRANCH   6  13
HETATM   13  N   UNL     1     -41.592 -48.114  13.304  1.00  0.00    -0.365 N 
HETATM   14  C   UNL     1     -42.548 -47.461  12.427  1.00  0.00     0.127 C 
HETATM   15  C   UNL     1     -41.796 -47.082  11.152  1.00  0.00     0.061 C 
HETATM   16  C   UNL     1     -40.537 -46.270  11.460  1.00  0.00     0.118 A 
HETATM   17  C   UNL     1     -40.889 -44.801  11.773  1.00  0.00     0.254 A 
HETATM   18  C   UNL     1     -39.662 -46.860  12.571  1.00  0.00     0.061 C 
HETATM   19  N   UNL     1     -39.756 -46.053  10.250  1.00  0.00    -0.324 N 
HETATM   20  N   UNL     1     -40.281 -43.999  10.861  1.00  0.00    -0.277 N 
HETATM   21  O   UNL     1     -41.583 -44.401  12.693  1.00  0.00    -0.270 OA
HETATM   22  C   UNL     1     -39.619 -44.729   9.934  1.00  0.00     0.323 A 
HETATM   23  H   UNL     1     -40.353 -42.994  10.841  1.00  0.00     0.173 HD
HETATM   24  O   UNL     1     -39.022 -44.292   8.971  1.00  0.00    -0.247 OA
HETATM   25  C   UNL     1     -40.496 -47.276  13.781  1.00  0.00     0.127 C 
HETATM   26  H   UNL     1     -39.341 -46.775   9.678  1.00  0.00     0.165 HD
ENDBRANCH   6  13
BRANCH   2  27
HETATM   27  C   UNL     1     -43.683 -53.555  14.816  1.00  0.00     0.147 C 
BRANCH  27  28
HETATM   28  C   UNL     1     -45.089 -53.699  14.251  1.00  0.00     0.040 C 
HETATM   29  C   UNL     1     -46.225 -53.939  15.266  1.00  0.00     0.183 C 
HETATM   30  O   UNL     1     -46.609 -55.165  14.600  1.00  0.00    -0.389 OA
HETATM   31  C   UNL     1     -45.390 -55.147  13.818  1.00  0.00     0.183 C 
BRANCH  28  32
HETATM   32  C   UNL     1     -45.470 -52.643  13.220  1.00  0.00     0.179 C 
BRANCH  32  33
HETATM   33  O   UNL     1     -46.468 -53.162  12.347  1.00  0.00    -0.400 OA
HETATM   34  H   UNL     1     -46.847 -53.951  12.787  1.00  0.00     0.209 HD
ENDBRANCH  32  33
ENDBRANCH  28  32
ENDBRANCH  27  28
ENDBRANCH   2  27
TORSDOF 5
ENDMDL
MODEL 9
REMARK VINA RESULT:      -6.5      1.850      2.608
REMARK  5 active torsions:
REMARK  status: ('A' for Active; 'I' for Inactive)
REMARK    1  A    between atoms: N_2  and  C_19 
REMARK    2  A    between atoms: C_7  and  N_13 
REMARK    3  A    between atoms: C_18  and  C_19 
REMARK    4  A    between atoms: C_18  and  C_30 
REMARK    5  A    between atoms: C_30  and  O_31 
ROOT
HETATM    1  C   UNL     1     -42.585 -47.684  13.078  1.00  0.00     0.122 A 
HETATM    2  N   UNL     1     -42.483 -45.530  13.381  1.00  0.00    -0.326 N 
HETATM    3  C   UNL     1     -42.684 -46.473  12.410  1.00  0.00     0.140 A 
HETATM    4  N   UNL     1     -42.291 -47.484  14.415  1.00  0.00    -0.346 N 
ATOM      5  HN  UNL     1     -42.137 -48.195  15.130  1.00  0.00     0.167 HD
HETATM    6  C   UNL     1     -42.854 -48.853  12.336  1.00  0.00     0.135 A 
HETATM    7  C   UNL     1     -42.256 -46.181  14.562  1.00  0.00     0.185 A 
HETATM    8  N   UNL     1     -42.956 -46.274  11.109  1.00  0.00    -0.336 N 
ATOM      9  HN  UNL     1     -42.996 -45.362  10.655  1.00  0.00     0.168 HD
HETATM   10  N   UNL     1     -43.153 -48.698  11.017  1.00  0.00    -0.337 N 
ATOM     11  HN  UNL     1     -43.362 -49.510  10.436  1.00  0.00     0.168 HD
HETATM   12  C   UNL     1     -43.168 -47.456  10.487  1.00  0.00     0.183 A 
ENDROOT
BRANCH   6  13
HETATM   13  N   UNL     1     -42.944 -50.097  12.954  1.00  0.00    -0.365 N 
HETATM   14  C   UNL     1     -44.263 -50.497  13.415  1.00  0.00     0.127 C 
HETATM   15  C   UNL     1     -44.054 -51.493  14.552  1.00  0.00     0.061 C 
HETATM   16  C   UNL     1     -43.137 -52.643  14.134  1.00  0.00     0.118 A 
HETATM   17  C   UNL     1     -43.899 -53.675  13.277  1.00  0.00     0.254 A 
HETATM   18  C   UNL     1     -41.854 -52.200  13.424  1.00  0.00     0.061 C 
HETATM   19  N   UNL     1     -42.827 -53.495  15.274  1.00  0.00    -0.324 N 
HETATM   20  N   UNL     1     -43.878 -54.875  13.911  1.00  0.00    -0.277 N 
HETATM   21  O   UNL     1     -44.427 -53.472  12.196  1.00  0.00    -0.270 OA
HETATM   22  C   UNL     1     -43.261 -54.783  15.111  1.00  0.00     0.323 A 
HETATM   23  H   UNL     1     -44.308 -55.717  13.561  1.00  0.00     0.173 HD
HETATM   24  O   UNL     1     -43.131 -55.678  15.921  1.00  0.00    -0.247 OA
HETATM   25  C   UNL     1     -42.139 -51.155  12.349  1.00  0.00     0.127 C 
HETATM   26  H   UNL     1     -42.344 -53.206  16.112  1.00  0.00     0.165 HD
ENDBRANCH   6  13
BRANCH   2  27
HETATM   27  C   UNL     1     -42.596 -44.092  13.234  1.00  0.00     0.147 C 
BRANCH  27  28
HETATM   28  C   UNL     1     -41.339 -43.435  12.682  1.00  0.00     0.040 C 
HETATM   29  C   UNL     1     -40.046 -44.275  12.709  1.00  0.00     0.183 C 
HETATM   30  O   UNL     1     -39.363 -43.264  13.487  1.00  0.00    -0.389 OA
HETATM   31  C   UNL     1     -40.617 -42.587  13.747  1.00  0.00     0.183 C 
BRANCH  28  32
HETATM   32  C   UNL     1     -41.525 -42.733  11.342  1.00  0.00     0.179 C 
BRANCH  32  33
HETATM   33  O   UNL     1     -42.573 -43.361  10.612  1.00  0.00    -0.400 OA
HETATM   34  H   UNL     1     -42.178 -43.695   9.780  1.00  0.00     0.209 HD
ENDBRANCH  32  33
ENDBRANCH  28  32
ENDBRANCH  27  28
ENDBRANCH   2  27
TORSDOF 5
ENDMDL
