MODEL 1
REMARK VINA RESULT:      -5.7      0.000      0.000
REMARK  4 active torsions:
REMARK  status: ('A' for Active; 'I' for Inactive)
REMARK    1  A    between atoms: C_3  and  N_4 
REMARK    2  A    between atoms: C_5  and  N_10 
REMARK    3  A    between atoms: C_9  and  C_15 
REMARK    4  A    between atoms: O_13  and  C_15 
ROOT
HETATM    1  N   UNL     1     -42.430 -52.415  12.606  1.00  0.00    -0.319 N 
ATOM      2  HN  UNL     1     -42.744 -53.356  12.843  1.00  0.00     0.170 HD
HETATM    3  C   UNL     1     -43.110 -51.330  13.022  1.00  0.00     0.107 A 
HETATM    4  C   UNL     1     -41.326 -52.221  11.868  1.00  0.00     0.156 A 
HETATM    5  N   UNL     1     -40.859 -51.039  11.467  1.00  0.00    -0.343 N 
ATOM      6  HN  UNL     1     -40.037 -50.955  10.869  1.00  0.00     0.167 HD
HETATM    7  C   UNL     1     -42.658 -50.063  12.684  1.00  0.00     0.065 A 
HETATM    8  C   UNL     1     -41.537 -49.971  11.900  1.00  0.00     0.094 A 
ENDROOT
BRANCH   3   9
HETATM    9  N   UNL     1     -44.223 -51.471  13.849  1.00  0.00    -0.360 N 
HETATM   10  C   UNL     1     -45.586 -51.492  13.275  1.00  0.00     0.109 C 
HETATM   11  C   UNL     1     -46.508 -51.297  14.510  1.00  0.00     0.029 C 
HETATM   12  C   UNL     1     -45.573 -51.112  15.698  1.00  0.00     0.022 C 
HETATM   13  C   UNL     1     -44.270 -50.663  15.067  1.00  0.00     0.125 C 
BRANCH  10  14
HETATM   14  C   UNL     1     -45.947 -52.780  12.525  1.00  0.00     0.189 C 
BRANCH  14  15
HETATM   15  O   UNL     1     -46.751 -52.465  11.382  1.00  0.00    -0.399 OA
HETATM   16  H   UNL     1     -46.299 -52.845  10.610  1.00  0.00     0.209 HD
ENDBRANCH  14  15
ENDBRANCH  10  14
ENDBRANCH   3   9
BRANCH   4  17
HETATM   17  N   UNL     1     -40.625 -53.329  11.435  1.00  0.00    -0.274 NA
HETATM   18  H   UNL     1     -40.915 -53.566  10.498  1.00  0.00     0.127 HD
HETATM   19  H   UNL     1     -39.638 -53.170  11.590  1.00  0.00     0.127 HD
ENDBRANCH   4  17
TORSDOF 4
ENDMDL
MODEL 2
REMARK VINA RESULT:      -5.5      4.629      5.852
REMARK  4 active torsions:
REMARK  status: ('A' for Active; 'I' for Inactive)
REMARK    1  A    between atoms: C_3  and  N_4 
REMARK    2  A    between atoms: C_5  and  N_10 
REMARK    3  A    between atoms: C_9  and  C_15 
REMARK    4  A    between atoms: O_13  and  C_15 
ROOT
HETATM    1  N   UNL     1     -42.354 -48.014   9.005  1.00  0.00    -0.319 N 
ATOM      2  HN  UNL     1     -41.414 -48.259   8.693  1.00  0.00     0.170 HD
HETATM    3  C   UNL     1     -42.619 -47.802  10.308  1.00  0.00     0.107 A 
HETATM    4  C   UNL     1     -43.363 -47.895   8.129  1.00  0.00     0.156 A 
HETATM    5  N   UNL     1     -44.630 -47.625   8.438  1.00  0.00    -0.343 N 
ATOM      6  HN  UNL     1     -45.366 -47.591   7.733  1.00  0.00     0.167 HD
HETATM    7  C   UNL     1     -43.907 -47.470  10.702  1.00  0.00     0.065 A 
HETATM    8  C   UNL     1     -44.876 -47.402   9.734  1.00  0.00     0.094 A 
ENDROOT
BRANCH   3   9
HETATM    9  N   UNL     1     -41.595 -47.843  11.252  1.00  0.00    -0.360 N 
HETATM   10  C   UNL     1     -41.486 -48.981  12.191  1.00  0.00     0.109 C 
HETATM   11  C   UNL     1     -40.483 -48.476  13.265  1.00  0.00     0.029 C 
HETATM   12  C   UNL     1     -40.148 -47.042  12.875  1.00  0.00     0.022 C 
HETATM   13  C   UNL     1     -41.316 -46.621  12.004  1.00  0.00     0.125 C 
BRANCH  10  14
HETATM   14  C   UNL     1     -40.994 -50.289  11.561  1.00  0.00     0.189 C 
BRANCH  14  15
HETATM   15  O   UNL     1     -40.308 -50.007  10.335  1.00  0.00    -0.399 OA
HETATM   16  H   UNL     1     -40.590 -50.682   9.696  1.00  0.00     0.209 HD
ENDBRANCH  14  15
ENDBRANCH  10  14
ENDBRANCH   3   9
BRANCH   4  17
HETATM   17  N   UNL     1     -43.099 -48.114   6.791  1.00  0.00    -0.274 NA
HETATM   18  H   UNL     1     -42.726 -47.273   6.379  1.00  0.00     0.127 HD
HETATM   19  H   UNL     1     -42.549 -48.959   6.703  1.00  0.00     0.127 HD
ENDBRANCH   4  17
TORSDOF 4
ENDMDL
MODEL 3
REMARK VINA RESULT:      -5.4      1.796      2.435
REMARK  4 active torsions:
REMARK  status: ('A' for Active; 'I' for Inactive)
REMARK    1  A    between atoms: C_3  and  N_4 
REMARK    2  A    between atoms: C_5  and  N_10 
REMARK    3  A    between atoms: C_9  and  C_15 
REMARK    4  A    between atoms: O_13  and  C_15 
ROOT
HETATM    1  N   UNL     1     -42.556 -51.892  12.414  1.00  0.00    -0.319 N 
ATOM      2  HN  UNL     1     -43.025 -51.001  12.249  1.00  0.00     0.170 HD
HETATM    3  C   UNL     1     -43.099 -52.823  13.221  1.00  0.00     0.107 A 
HETATM    4  C   UNL     1     -41.379 -52.171  11.834  1.00  0.00     0.156 A 
HETATM    5  N   UNL     1     -40.666 -53.281  12.019  1.00  0.00    -0.343 N 
ATOM      6  HN  UNL     1     -39.754 -53.419  11.585  1.00  0.00     0.167 HD
HETATM    7  C   UNL     1     -42.438 -54.025  13.426  1.00  0.00     0.065 A 
HETATM    8  C   UNL     1     -41.225 -54.203  12.812  1.00  0.00     0.094 A 
ENDROOT
BRANCH   3   9
HETATM    9  N   UNL     1     -44.353 -52.615  13.793  1.00  0.00    -0.360 N 
HETATM   10  C   UNL     1     -45.504 -53.458  13.402  1.00  0.00     0.109 C 
HETATM   11  C   UNL     1     -46.730 -52.689  13.968  1.00  0.00     0.029 C 
HETATM   12  C   UNL     1     -46.169 -51.416  14.589  1.00  0.00     0.022 C 
HETATM   13  C   UNL     1     -44.829 -51.237  13.900  1.00  0.00     0.125 C 
BRANCH  10  14
HETATM   14  C   UNL     1     -45.465 -54.891  13.945  1.00  0.00     0.189 C 
BRANCH  14  15
HETATM   15  O   UNL     1     -46.746 -55.240  14.483  1.00  0.00    -0.399 OA
HETATM   16  H   UNL     1     -47.003 -56.081  14.068  1.00  0.00     0.209 HD
ENDBRANCH  14  15
ENDBRANCH  10  14
ENDBRANCH   3   9
BRANCH   4  17
HETATM   17  N   UNL     1     -40.814 -51.219  11.007  1.00  0.00    -0.274 NA
HETATM   18  H   UNL     1     -41.317 -51.191  10.133  1.00  0.00     0.127 HD
HETATM   19  H   UNL     1     -40.726 -50.353  11.521  1.00  0.00     0.127 HD
ENDBRANCH   4  17
TORSDOF 4
ENDMDL
MODEL 4
REMARK VINA RESULT:      -5.3      4.026      5.547
REMARK  4 active torsions:
REMARK  status: ('A' for Active; 'I' for Inactive)
REMARK    1  A    between atoms: C_3  and  N_4 
REMARK    2  A    between atoms: C_5  and  N_10 
REMARK    3  A    between atoms: C_9  and  C_15 
REMARK    4  A    between atoms: O_13  and  C_15 
ROOT
HETATM    1  N   UNL     1     -41.729 -48.468   9.911  1.00  0.00    -0.319 N 
ATOM      2  HN  UNL     1     -41.198 -48.862   9.134  1.00  0.00     0.170 HD
HETATM    3  C   UNL     1     -41.456 -48.811  11.184  1.00  0.00     0.107 A 
HETATM    4  C   UNL     1     -42.722 -47.592   9.694  1.00  0.00     0.156 A 
HETATM    5  N   UNL     1     -43.503 -47.057  10.631  1.00  0.00    -0.343 N 
ATOM      6  HN  UNL     1     -44.274 -46.429  10.402  1.00  0.00     0.167 HD
HETATM    7  C   UNL     1     -42.196 -48.258  12.219  1.00  0.00     0.065 A 
HETATM    8  C   UNL     1     -43.211 -47.395  11.892  1.00  0.00     0.094 A 
ENDROOT
BRANCH   3   9
HETATM    9  N   UNL     1     -40.390 -49.661  11.472  1.00  0.00    -0.360 N 
HETATM   10  C   UNL     1     -40.571 -50.805  12.393  1.00  0.00     0.109 C 
HETATM   11  C   UNL     1     -39.118 -51.250  12.715  1.00  0.00     0.029 C 
HETATM   12  C   UNL     1     -38.213 -50.263  11.988  1.00  0.00     0.022 C 
HETATM   13  C   UNL     1     -39.097 -49.050  11.775  1.00  0.00     0.125 C 
BRANCH  10  14
HETATM   14  C   UNL     1     -41.382 -51.972  11.816  1.00  0.00     0.189 C 
BRANCH  14  15
HETATM   15  O   UNL     1     -40.505 -53.064  11.510  1.00  0.00    -0.399 OA
HETATM   16  H   UNL     1     -39.599 -52.740  11.647  1.00  0.00     0.209 HD
ENDBRANCH  14  15
ENDBRANCH  10  14
ENDBRANCH   3   9
BRANCH   4  17
HETATM   17  N   UNL     1     -43.010 -47.238   8.390  1.00  0.00    -0.274 NA
HETATM   18  H   UNL     1     -42.293 -47.595   7.778  1.00  0.00     0.127 HD
HETATM   19  H   UNL     1     -43.967 -47.496   8.187  1.00  0.00     0.127 HD
ENDBRANCH   4  17
TORSDOF 4
ENDMDL
MODEL 5
REMARK VINA RESULT:      -5.3      3.112      5.252
REMARK  4 active torsions:
REMARK  status: ('A' for Active; 'I' for Inactive)
REMARK    1  A    between atoms: C_3  and  N_4 
REMARK    2  A    between atoms: C_5  and  N_10 
REMARK    3  A    between atoms: C_9  and  C_15 
REMARK    4  A    between atoms: O_13  and  C_15 
ROOT
HETATM    1  N   UNL     1     -43.791 -53.160  12.981  1.00  0.00    -0.319 N 
ATOM      2  HN  UNL     1     -43.227 -52.471  12.482  1.00  0.00     0.170 HD
HETATM    3  C   UNL     1     -43.232 -54.000  13.873  1.00  0.00     0.107 A 
HETATM    4  C   UNL     1     -45.111 -53.257  12.767  1.00  0.00     0.156 A 
HETATM    5  N   UNL     1     -45.925 -54.148  13.330  1.00  0.00    -0.343 N 
ATOM      6  HN  UNL     1     -46.916 -54.204  13.096  1.00  0.00     0.167 HD
HETATM    7  C   UNL     1     -44.024 -54.926  14.536  1.00  0.00     0.065 A 
HETATM    8  C   UNL     1     -45.359 -54.966  14.225  1.00  0.00     0.094 A 
ENDROOT
BRANCH   3   9
HETATM    9  N   UNL     1     -41.877 -53.896  14.186  1.00  0.00    -0.360 N 
HETATM   10  C   UNL     1     -40.860 -53.870  13.112  1.00  0.00     0.109 C 
HETATM   11  C   UNL     1     -39.524 -54.113  13.867  1.00  0.00     0.029 C 
HETATM   12  C   UNL     1     -39.907 -54.327  15.326  1.00  0.00     0.022 C 
HETATM   13  C   UNL     1     -41.363 -54.743  15.261  1.00  0.00     0.125 C 
BRANCH  10  14
HETATM   14  C   UNL     1     -40.803 -52.562  12.314  1.00  0.00     0.189 C 
BRANCH  14  15
HETATM   15  O   UNL     1     -41.362 -52.766  11.010  1.00  0.00    -0.399 OA
HETATM   16  H   UNL     1     -41.964 -53.526  11.082  1.00  0.00     0.209 HD
ENDBRANCH  14  15
ENDBRANCH  10  14
ENDBRANCH   3   9
BRANCH   4  17
HETATM   17  N   UNL     1     -45.691 -52.401  11.851  1.00  0.00    -0.274 NA
HETATM   18  H   UNL     1     -44.979 -51.824  11.431  1.00  0.00     0.127 HD
HETATM   19  H   UNL     1     -46.280 -52.940  11.230  1.00  0.00     0.127 HD
ENDBRANCH   4  17
TORSDOF 4
ENDMDL
MODEL 6
REMARK VINA RESULT:      -5.3      6.016      7.287
REMARK  4 active torsions:
REMARK  status: ('A' for Active; 'I' for Inactive)
REMARK    1  A    between atoms: C_3  and  N_4 
REMARK    2  A    between atoms: C_5  and  N_10 
REMARK    3  A    between atoms: C_9  and  C_15 
REMARK    4  A    between atoms: O_13  and  C_15 
ROOT
HETATM    1  N   UNL     1     -44.622 -46.820   9.995  1.00  0.00    -0.319 N 
ATOM      2  HN  UNL     1     -44.905 -46.336  10.847  1.00  0.00     0.170 HD
HETATM    3  C   UNL     1     -43.321 -47.033   9.717  1.00  0.00     0.107 A 
HETATM    4  C   UNL     1     -45.534 -47.263   9.117  1.00  0.00     0.156 A 
HETATM    5  N   UNL     1     -45.267 -47.864   7.958  1.00  0.00    -0.343 N 
ATOM      6  HN  UNL     1     -46.003 -48.140   7.308  1.00  0.00     0.167 HD
HETATM    7  C   UNL     1     -42.966 -47.695   8.550  1.00  0.00     0.065 A 
HETATM    8  C   UNL     1     -43.972 -48.082   7.702  1.00  0.00     0.094 A 
ENDROOT
BRANCH   3   9
HETATM    9  N   UNL     1     -42.335 -46.657  10.627  1.00  0.00    -0.360 N 
HETATM   10  C   UNL     1     -41.729 -45.309  10.561  1.00  0.00     0.109 C 
HETATM   11  C   UNL     1     -40.474 -45.426  11.469  1.00  0.00     0.029 C 
HETATM   12  C   UNL     1     -40.434 -46.876  11.933  1.00  0.00     0.022 C 
HETATM   13  C   UNL     1     -41.261 -47.611  10.896  1.00  0.00     0.125 C 
BRANCH  10  14
HETATM   14  C   UNL     1     -42.641 -44.171  11.037  1.00  0.00     0.189 C 
BRANCH  14  15
HETATM   15  O   UNL     1     -43.530 -43.789   9.980  1.00  0.00    -0.399 OA
HETATM   16  H   UNL     1     -43.228 -42.922   9.663  1.00  0.00     0.209 HD
ENDBRANCH  14  15
ENDBRANCH  10  14
ENDBRANCH   3   9
BRANCH   4  17
HETATM   17  N   UNL     1     -46.869 -47.046   9.393  1.00  0.00    -0.274 NA
HETATM   18  H   UNL     1     -46.954 -46.342  10.110  1.00  0.00     0.127 HD
HETATM   19  H   UNL     1     -47.359 -46.886   8.523  1.00  0.00     0.127 HD
ENDBRANCH   4  17
TORSDOF 4
ENDMDL
MODEL 7
REMARK VINA RESULT:      -5.2      2.713      4.719
REMARK  4 active torsions:
REMARK  status: ('A' for Active; 'I' for Inactive)
REMARK    1  A    between atoms: C_3  and  N_4 
REMARK    2  A    between atoms: C_5  and  N_10 
REMARK    3  A    between atoms: C_9  and  C_15 
REMARK    4  A    between atoms: O_13  and  C_15 
ROOT
HETATM    1  N   UNL     1     -45.010 -52.798  12.763  1.00  0.00    -0.319 N 
ATOM      2  HN  UNL     1     -44.600 -53.370  12.025  1.00  0.00     0.170 HD
HETATM    3  C   UNL     1     -44.369 -52.610  13.932  1.00  0.00     0.107 A 
HETATM    4  C   UNL     1     -46.205 -52.211  12.600  1.00  0.00     0.156 A 
HETATM    5  N   UNL     1     -46.845 -51.485  13.515  1.00  0.00    -0.343 N 
ATOM      6  HN  UNL     1     -47.775 -51.099  13.350  1.00  0.00     0.167 HD
HETATM    7  C   UNL     1     -44.951 -51.827  14.918  1.00  0.00     0.065 A 
HETATM    8  C   UNL     1     -46.190 -51.295  14.666  1.00  0.00     0.094 A 
ENDROOT
BRANCH   3   9
HETATM    9  N   UNL     1     -43.094 -53.138  14.130  1.00  0.00    -0.360 N 
HETATM   10  C   UNL     1     -42.214 -53.425  12.976  1.00  0.00     0.109 C 
HETATM   11  C   UNL     1     -41.089 -54.307  13.583  1.00  0.00     0.029 C 
HETATM   12  C   UNL     1     -41.465 -54.507  15.046  1.00  0.00     0.022 C 
HETATM   13  C   UNL     1     -42.958 -54.244  15.076  1.00  0.00     0.125 C 
BRANCH  10  14
HETATM   14  C   UNL     1     -41.624 -52.184  12.295  1.00  0.00     0.189 C 
BRANCH  14  15
HETATM   15  O   UNL     1     -41.200 -52.518  10.967  1.00  0.00    -0.399 OA
HETATM   16  H   UNL     1     -41.930 -53.013  10.559  1.00  0.00     0.209 HD
ENDBRANCH  14  15
ENDBRANCH  10  14
ENDBRANCH   3   9
BRANCH   4  17
HETATM   17  N   UNL     1     -46.871 -52.402  11.404  1.00  0.00    -0.274 NA
HETATM   18  H   UNL     1     -47.509 -53.177  11.494  1.00  0.00     0.127 HD
HETATM   19  H   UNL     1     -47.254 -51.516  11.101  1.00  0.00     0.127 HD
ENDBRANCH   4  17
TORSDOF 4
ENDMDL
MODEL 8
REMARK VINA RESULT:      -5.1     21.691     23.189
REMARK  4 active torsions:
REMARK  status: ('A' for Active; 'I' for Inactive)
REMARK    1  A    between atoms: C_3  and  N_4 
REMARK    2  A    between atoms: C_5  and  N_10 
REMARK    3  A    between atoms: C_9  and  C_15 
REMARK    4  A    between atoms: O_13  and  C_15 
ROOT
HETATM    1  N   UNL     1     -28.592 -53.440  -4.192  1.00  0.00    -0.319 N 
ATOM      2  HN  UNL     1     -29.176 -53.212  -3.388  1.00  0.00     0.170 HD
HETATM    3  C   UNL     1     -29.086 -53.395  -5.444  1.00  0.00     0.107 A 
HETATM    4  C   UNL     1     -27.308 -53.794  -4.035  1.00  0.00     0.156 A 
HETATM    5  N   UNL     1     -26.476 -54.153  -5.013  1.00  0.00    -0.343 N 
ATOM      6  HN  UNL     1     -25.520 -54.456  -4.828  1.00  0.00     0.167 HD
HETATM    7  C   UNL     1     -28.268 -53.710  -6.519  1.00  0.00     0.065 A 
HETATM    8  C   UNL     1     -26.977 -54.090  -6.251  1.00  0.00     0.094 A 
ENDROOT
BRANCH   3   9
HETATM    9  N   UNL     1     -30.393 -52.966  -5.671  1.00  0.00    -0.360 N 
HETATM   10  C   UNL     1     -31.505 -53.941  -5.716  1.00  0.00     0.109 C 
HETATM   11  C   UNL     1     -32.678 -53.132  -6.334  1.00  0.00     0.029 C 
HETATM   12  C   UNL     1     -32.106 -51.756  -6.655  1.00  0.00     0.022 C 
HETATM   13  C   UNL     1     -30.612 -51.997  -6.743  1.00  0.00     0.125 C 
BRANCH  10  14
HETATM   14  C   UNL     1     -31.904 -54.523  -4.354  1.00  0.00     0.189 C 
BRANCH  14  15
HETATM   15  O   UNL     1     -33.321 -54.735  -4.316  1.00  0.00    -0.399 OA
HETATM   16  H   UNL     1     -33.463 -55.580  -3.859  1.00  0.00     0.209 HD
ENDBRANCH  14  15
ENDBRANCH  10  14
ENDBRANCH   3   9
BRANCH   4  17
HETATM   17  N   UNL     1     -26.794 -53.845  -2.754  1.00  0.00    -0.274 NA
HETATM   18  H   UNL     1     -27.474 -54.261  -2.135  1.00  0.00     0.127 HD
HETATM   19  H   UNL     1     -25.876 -54.269  -2.789  1.00  0.00     0.127 HD
ENDBRANCH   4  17
TORSDOF 4
ENDMDL
MODEL 9
REMARK VINA RESULT:      -4.9      4.676      6.442
REMARK  4 active torsions:
REMARK  status: ('A' for Active; 'I' for Inactive)
REMARK    1  A    between atoms: C_3  and  N_4 
REMARK    2  A    between atoms: C_5  and  N_10 
REMARK    3  A    between atoms: C_9  and  C_15 
REMARK    4  A    between atoms: O_13  and  C_15 
ROOT
HETATM    1  N   UNL     1     -39.759 -47.062  10.957  1.00  0.00    -0.319 N 
ATOM      2  HN  UNL     1     -39.653 -47.616  10.108  1.00  0.00     0.170 HD
HETATM    3  C   UNL     1     -39.538 -47.603  12.171  1.00  0.00     0.107 A 
HETATM    4  C   UNL     1     -40.123 -45.772  10.900  1.00  0.00     0.156 A 
HETATM    5  N   UNL     1     -40.332 -44.977  11.949  1.00  0.00    -0.343 N 
ATOM      6  HN  UNL     1     -40.652 -44.015  11.845  1.00  0.00     0.167 HD
HETATM    7  C   UNL     1     -39.690 -46.824  13.309  1.00  0.00     0.065 A 
HETATM    8  C   UNL     1     -40.095 -45.524  13.146  1.00  0.00     0.094 A 
ENDROOT
BRANCH   3   9
HETATM    9  N   UNL     1     -39.090 -48.917  12.286  1.00  0.00    -0.360 N 
HETATM   10  C   UNL     1     -40.023 -49.995  12.682  1.00  0.00     0.109 C 
HETATM   11  C   UNL     1     -39.084 -51.181  13.037  1.00  0.00     0.029 C 
HETATM   12  C   UNL     1     -37.666 -50.648  12.873  1.00  0.00     0.022 C 
HETATM   13  C   UNL     1     -37.828 -49.145  12.988  1.00  0.00     0.125 C 
BRANCH  10  14
HETATM   14  C   UNL     1     -41.028 -50.404  11.598  1.00  0.00     0.189 C 
BRANCH  14  15
HETATM   15  O   UNL     1     -40.484 -50.124  10.303  1.00  0.00    -0.399 OA
HETATM   16  H   UNL     1     -39.706 -49.559  10.445  1.00  0.00     0.209 HD
ENDBRANCH  14  15
ENDBRANCH  10  14
ENDBRANCH   3   9
BRANCH   4  17
HETATM   17  N   UNL     1     -40.354 -45.211   9.659  1.00  0.00    -0.274 NA
HETATM   18  H   UNL     1     -40.530 -44.224   9.764  1.00  0.00     0.127 HD
HETATM   19  H   UNL     1     -39.609 -45.487   9.034  1.00  0.00     0.127 HD
ENDBRANCH   4  17
TORSDOF 4
ENDMDL
