MODEL 1
REMARK VINA RESULT:      -5.7      0.000      0.000
REMARK  4 active torsions:
REMARK  status: ('A' for Active; 'I' for Inactive)
REMARK    1  A    between atoms: C_4  and  C_5 
REMARK    2  A    between atoms: C_5  and  C_6 
REMARK    3  A    between atoms: C_6  and  N_7 
REMARK       I    between atoms: N_7  and  C_8 
REMARK       I    between atoms: C_8  and  N_10 
REMARK    4  A    between atoms: C_13  and  O_14 
ROOT
HETATM    1  N   UNL     1     -42.265 -49.726  11.809  1.00  0.00    -0.343 N 
HETATM    2  C   UNL     1     -42.021 -51.030  12.151  1.00  0.00     0.318 C 
HETATM    3  O   UNL     1     -41.011 -51.617  11.770  1.00  0.00    -0.247 OA
HETATM    4  N   UNL     1     -42.996 -51.627  12.934  1.00  0.00    -0.334 N 
HETATM    5  C   UNL     1     -42.747 -52.971  13.455  1.00  0.00     0.130 C 
HETATM    6  C   UNL     1     -43.914 -53.916  13.181  1.00  0.00     0.051 C 
HETATM    7  C   UNL     1     -45.255 -53.319  13.604  1.00  0.00     0.121 C 
HETATM    8  C   UNL     1     -45.445 -51.918  13.030  1.00  0.00     0.051 C 
HETATM    9  C   UNL     1     -44.261 -51.011  13.342  1.00  0.00     0.130 C 
HETATM   10  H   UNL     1     -42.715 -49.178  12.523  1.00  0.00     0.164 HD
ENDROOT
BRANCH   1  11
HETATM   11  C   UNL     1     -41.343 -49.011  10.945  1.00  0.00     0.129 C 
BRANCH  11  12
HETATM   12  C   UNL     1     -41.842 -47.612  10.573  1.00  0.00     0.061 C 
BRANCH  12  13
HETATM   13  C   UNL     1     -43.098 -47.611   9.769  1.00  0.00    -0.023 A 
HETATM   14  C   UNL     1     -44.397 -47.449  10.206  1.00  0.00     0.118 A 
HETATM   15  N   UNL     1     -45.190 -47.523   9.098  1.00  0.00    -0.308 N 
HETATM   16  C   UNL     1     -46.626 -47.404   9.049  1.00  0.00     0.177 C 
HETATM   17  N   UNL     1     -44.499 -47.735   7.963  1.00  0.00    -0.310 N 
HETATM   18  C   UNL     1     -43.231 -47.793   8.373  1.00  0.00     0.115 A 
ATOM     19  HN  UNL     1     -44.860 -47.828   7.013  1.00  0.00     0.186 HD
ENDBRANCH  12  13
ENDBRANCH  11  12
ENDBRANCH   1  11
BRANCH   7  20
HETATM   20  O   UNL     1     -45.379 -53.296  15.026  1.00  0.00    -0.395 OA
HETATM   21  H   UNL     1     -46.213 -53.721  15.283  1.00  0.00     0.210 HD
ENDBRANCH   7  20
TORSDOF 4
ENDMDL
MODEL 2
REMARK VINA RESULT:      -5.6      2.036      3.158
REMARK  4 active torsions:
REMARK  status: ('A' for Active; 'I' for Inactive)
REMARK    1  A    between atoms: C_4  and  C_5 
REMARK    2  A    between atoms: C_5  and  C_6 
REMARK    3  A    between atoms: C_6  and  N_7 
REMARK       I    between atoms: N_7  and  C_8 
REMARK       I    between atoms: C_8  and  N_10 
REMARK    4  A    between atoms: C_13  and  O_14 
ROOT
HETATM    1  N   UNL     1     -41.334 -49.744  12.256  1.00  0.00    -0.343 N 
HETATM    2  C   UNL     1     -41.860 -50.974  12.550  1.00  0.00     0.318 C 
HETATM    3  O   UNL     1     -43.074 -51.162  12.588  1.00  0.00    -0.247 OA
HETATM    4  N   UNL     1     -40.929 -51.966  12.815  1.00  0.00    -0.334 N 
HETATM    5  C   UNL     1     -41.405 -53.335  13.004  1.00  0.00     0.130 C 
HETATM    6  C   UNL     1     -40.839 -53.968  14.274  1.00  0.00     0.051 C 
HETATM    7  C   UNL     1     -39.323 -53.811  14.373  1.00  0.00     0.121 C 
HETATM    8  C   UNL     1     -38.899 -52.361  14.162  1.00  0.00     0.051 C 
HETATM    9  C   UNL     1     -39.477 -51.781  12.876  1.00  0.00     0.130 C 
HETATM   10  H   UNL     1     -40.483 -49.765  11.718  1.00  0.00     0.164 HD
ENDROOT
BRANCH   1  11
HETATM   11  C   UNL     1     -42.210 -48.611  12.016  1.00  0.00     0.129 C 
BRANCH  11  12
HETATM   12  C   UNL     1     -41.950 -47.935  10.667  1.00  0.00     0.061 C 
BRANCH  12  13
HETATM   13  C   UNL     1     -43.178 -47.731   9.845  1.00  0.00    -0.023 A 
HETATM   14  C   UNL     1     -44.473 -47.518  10.273  1.00  0.00     0.118 A 
HETATM   15  N   UNL     1     -45.235 -47.389   9.150  1.00  0.00    -0.308 N 
HETATM   16  C   UNL     1     -46.655 -47.147   9.087  1.00  0.00     0.177 C 
HETATM   17  N   UNL     1     -44.530 -47.515   8.010  1.00  0.00    -0.310 N 
HETATM   18  C   UNL     1     -43.283 -47.727   8.435  1.00  0.00     0.115 A 
ATOM     19  HN  UNL     1     -44.869 -47.460   7.050  1.00  0.00     0.186 HD
ENDBRANCH  12  13
ENDBRANCH  11  12
ENDBRANCH   1  11
BRANCH   7  20
HETATM   20  O   UNL     1     -38.658 -54.664  13.443  1.00  0.00    -0.395 OA
HETATM   21  H   UNL     1     -39.291 -54.964  12.771  1.00  0.00     0.210 HD
ENDBRANCH   7  20
TORSDOF 4
ENDMDL
MODEL 3
REMARK VINA RESULT:      -5.6      2.462      3.723
REMARK  4 active torsions:
REMARK  status: ('A' for Active; 'I' for Inactive)
REMARK    1  A    between atoms: C_4  and  C_5 
REMARK    2  A    between atoms: C_5  and  C_6 
REMARK    3  A    between atoms: C_6  and  N_7 
REMARK       I    between atoms: N_7  and  C_8 
REMARK       I    between atoms: C_8  and  N_10 
REMARK    4  A    between atoms: C_13  and  O_14 
ROOT
HETATM    1  N   UNL     1     -42.210 -50.386  13.529  1.00  0.00    -0.343 N 
HETATM    2  C   UNL     1     -42.453 -51.680  13.911  1.00  0.00     0.318 C 
HETATM    3  O   UNL     1     -43.541 -52.023  14.369  1.00  0.00    -0.247 OA
HETATM    4  N   UNL     1     -41.386 -52.550  13.757  1.00  0.00    -0.334 N 
HETATM    5  C   UNL     1     -41.605 -53.974  14.012  1.00  0.00     0.130 C 
HETATM    6  C   UNL     1     -40.549 -54.556  14.949  1.00  0.00     0.051 C 
HETATM    7  C   UNL     1     -39.128 -54.209  14.507  1.00  0.00     0.121 C 
HETATM    8  C   UNL     1     -38.974 -52.713  14.256  1.00  0.00     0.051 C 
HETATM    9  C   UNL     1     -40.042 -52.184  13.305  1.00  0.00     0.130 C 
HETATM   10  H   UNL     1     -41.618 -50.287  12.722  1.00  0.00     0.164 HD
ENDROOT
BRANCH   1  11
HETATM   11  C   UNL     1     -43.234 -49.370  13.696  1.00  0.00     0.129 C 
BRANCH  11  12
HETATM   12  C   UNL     1     -42.821 -48.012  13.122  1.00  0.00     0.061 C 
BRANCH  12  13
HETATM   13  C   UNL     1     -42.724 -47.989  11.633  1.00  0.00    -0.023 A 
HETATM   14  C   UNL     1     -43.674 -47.586  10.717  1.00  0.00     0.118 A 
HETATM   15  N   UNL     1     -43.115 -47.750   9.483  1.00  0.00    -0.308 N 
HETATM   16  C   UNL     1     -43.723 -47.457   8.209  1.00  0.00     0.177 C 
HETATM   17  N   UNL     1     -41.864 -48.245   9.527  1.00  0.00    -0.310 N 
HETATM   18  C   UNL     1     -41.631 -48.394  10.832  1.00  0.00     0.115 A 
ATOM     19  HN  UNL     1     -41.242 -48.455   8.746  1.00  0.00     0.186 HD
ENDBRANCH  12  13
ENDBRANCH  11  12
ENDBRANCH   1  11
BRANCH   7  20
HETATM   20  O   UNL     1     -38.758 -54.950  13.346  1.00  0.00    -0.395 OA
HETATM   21  H   UNL     1     -38.014 -55.536  13.561  1.00  0.00     0.210 HD
ENDBRANCH   7  20
TORSDOF 4
ENDMDL
MODEL 4
REMARK VINA RESULT:      -5.6      3.635      6.626
REMARK  4 active torsions:
REMARK  status: ('A' for Active; 'I' for Inactive)
REMARK    1  A    between atoms: C_4  and  C_5 
REMARK    2  A    between atoms: C_5  and  C_6 
REMARK    3  A    between atoms: C_6  and  N_7 
REMARK       I    between atoms: N_7  and  C_8 
REMARK       I    between atoms: C_8  and  N_10 
REMARK    4  A    between atoms: C_13  and  O_14 
ROOT
HETATM    1  N   UNL     1     -44.386 -52.171  12.396  1.00  0.00    -0.343 N 
HETATM    2  C   UNL     1     -43.379 -53.051  12.695  1.00  0.00     0.318 C 
HETATM    3  O   UNL     1     -43.616 -54.189  13.094  1.00  0.00    -0.247 OA
HETATM    4  N   UNL     1     -42.095 -52.556  12.529  1.00  0.00    -0.334 N 
HETATM    5  C   UNL     1     -40.968 -53.472  12.696  1.00  0.00     0.130 C 
HETATM    6  C   UNL     1     -39.905 -52.906  13.636  1.00  0.00     0.051 C 
HETATM    7  C   UNL     1     -39.504 -51.480  13.265  1.00  0.00     0.121 C 
HETATM    8  C   UNL     1     -40.728 -50.583  13.103  1.00  0.00     0.051 C 
HETATM    9  C   UNL     1     -41.751 -51.184  12.147  1.00  0.00     0.130 C 
HETATM   10  H   UNL     1     -44.200 -51.562  11.617  1.00  0.00     0.164 HD
ENDROOT
BRANCH   1  11
HETATM   11  C   UNL     1     -45.774 -52.557  12.584  1.00  0.00     0.129 C 
BRANCH  11  12
HETATM   12  C   UNL     1     -46.542 -51.586  13.485  1.00  0.00     0.061 C 
BRANCH  12  13
HETATM   13  C   UNL     1     -46.582 -51.994  14.919  1.00  0.00    -0.023 A 
HETATM   14  C   UNL     1     -45.953 -53.062  15.526  1.00  0.00     0.118 A 
HETATM   15  N   UNL     1     -46.294 -53.012  16.846  1.00  0.00    -0.308 N 
HETATM   16  C   UNL     1     -45.874 -53.918  17.886  1.00  0.00     0.177 C 
HETATM   17  N   UNL     1     -47.115 -51.989  17.145  1.00  0.00    -0.310 N 
HETATM   18  C   UNL     1     -47.293 -51.376  15.974  1.00  0.00     0.115 A 
ATOM     19  HN  UNL     1     -47.509 -51.741  18.054  1.00  0.00     0.186 HD
ENDBRANCH  12  13
ENDBRANCH  11  12
ENDBRANCH   1  11
BRANCH   7  20
HETATM   20  O   UNL     1     -38.714 -51.462  12.077  1.00  0.00    -0.395 OA
HETATM   21  H   UNL     1     -38.754 -50.579  11.676  1.00  0.00     0.210 HD
ENDBRANCH   7  20
TORSDOF 4
ENDMDL
MODEL 5
REMARK VINA RESULT:      -5.4      3.914      5.455
REMARK  4 active torsions:
REMARK  status: ('A' for Active; 'I' for Inactive)
REMARK    1  A    between atoms: C_4  and  C_5 
REMARK    2  A    between atoms: C_5  and  C_6 
REMARK    3  A    between atoms: C_6  and  N_7 
REMARK       I    between atoms: N_7  and  C_8 
REMARK       I    between atoms: C_8  and  N_10 
REMARK    4  A    between atoms: C_13  and  O_14 
ROOT
HETATM    1  N   UNL     1     -42.259 -53.755  15.397  1.00  0.00    -0.343 N 
HETATM    2  C   UNL     1     -43.512 -54.300  15.292  1.00  0.00     0.318 C 
HETATM    3  O   UNL     1     -43.677 -55.495  15.058  1.00  0.00    -0.247 OA
HETATM    4  N   UNL     1     -44.559 -53.406  15.452  1.00  0.00    -0.334 N 
HETATM    5  C   UNL     1     -45.924 -53.930  15.490  1.00  0.00     0.130 C 
HETATM    6  C   UNL     1     -46.852 -53.181  14.537  1.00  0.00     0.051 C 
HETATM    7  C   UNL     1     -46.757 -51.666  14.708  1.00  0.00     0.121 C 
HETATM    8  C   UNL     1     -45.309 -51.191  14.662  1.00  0.00     0.051 C 
HETATM    9  C   UNL     1     -44.428 -51.959  15.640  1.00  0.00     0.130 C 
HETATM   10  H   UNL     1     -42.171 -53.024  16.083  1.00  0.00     0.164 HD
ENDROOT
BRANCH   1  11
HETATM   11  C   UNL     1     -41.082 -54.581  15.192  1.00  0.00     0.129 C 
BRANCH  11  12
HETATM   12  C   UNL     1     -39.917 -53.808  14.569  1.00  0.00     0.061 C 
BRANCH  12  13
HETATM   13  C   UNL     1     -40.306 -52.963  13.402  1.00  0.00    -0.023 A 
HETATM   14  C   UNL     1     -40.103 -51.611  13.216  1.00  0.00     0.118 A 
HETATM   15  N   UNL     1     -40.633 -51.305  11.997  1.00  0.00    -0.308 N 
HETATM   16  C   UNL     1     -40.656 -50.012  11.360  1.00  0.00     0.177 C 
HETATM   17  N   UNL     1     -41.182 -52.364  11.374  1.00  0.00    -0.310 N 
HETATM   18  C   UNL     1     -40.986 -53.368  12.230  1.00  0.00     0.115 A 
ATOM     19  HN  UNL     1     -41.638 -52.393  10.462  1.00  0.00     0.186 HD
ENDBRANCH  12  13
ENDBRANCH  11  12
ENDBRANCH   1  11
BRANCH   7  20
HETATM   20  O   UNL     1     -47.381 -51.248  15.922  1.00  0.00    -0.395 OA
HETATM   21  H   UNL     1     -47.036 -50.377  16.178  1.00  0.00     0.210 HD
ENDBRANCH   7  20
TORSDOF 4
ENDMDL
MODEL 6
REMARK VINA RESULT:      -5.3      4.380      7.384
REMARK  4 active torsions:
REMARK  status: ('A' for Active; 'I' for Inactive)
REMARK    1  A    between atoms: C_4  and  C_5 
REMARK    2  A    between atoms: C_5  and  C_6 
REMARK    3  A    between atoms: C_6  and  N_7 
REMARK       I    between atoms: N_7  and  C_8 
REMARK       I    between atoms: C_8  and  N_10 
REMARK    4  A    between atoms: C_13  and  O_14 
ROOT
HETATM    1  N   UNL     1     -45.636 -53.009  14.044  1.00  0.00    -0.343 N 
HETATM    2  C   UNL     1     -44.540 -53.725  14.445  1.00  0.00     0.318 C 
HETATM    3  O   UNL     1     -44.546 -54.385  15.482  1.00  0.00    -0.247 OA
HETATM    4  N   UNL     1     -43.437 -53.633  13.611  1.00  0.00    -0.334 N 
HETATM    5  C   UNL     1     -42.275 -54.473  13.896  1.00  0.00     0.130 C 
HETATM    6  C   UNL     1     -40.977 -53.668  13.915  1.00  0.00     0.051 C 
HETATM    7  C   UNL     1     -40.825 -52.786  12.678  1.00  0.00     0.121 C 
HETATM    8  C   UNL     1     -42.073 -51.942  12.440  1.00  0.00     0.051 C 
HETATM    9  C   UNL     1     -43.337 -52.792  12.415  1.00  0.00     0.130 C 
HETATM   10  H   UNL     1     -45.784 -52.982  13.049  1.00  0.00     0.164 HD
ENDROOT
BRANCH   1  11
HETATM   11  C   UNL     1     -46.834 -52.982  14.865  1.00  0.00     0.129 C 
BRANCH  11  12
HETATM   12  C   UNL     1     -47.172 -51.579  15.375  1.00  0.00     0.061 C 
BRANCH  12  13
HETATM   13  C   UNL     1     -47.394 -51.507  16.849  1.00  0.00    -0.023 A 
HETATM   14  C   UNL     1     -48.213 -50.648  17.553  1.00  0.00     0.118 A 
HETATM   15  N   UNL     1     -48.075 -50.975  18.870  1.00  0.00    -0.308 N 
HETATM   16  C   UNL     1     -48.739 -50.359  19.991  1.00  0.00     0.177 C 
HETATM   17  N   UNL     1     -47.211 -51.985  19.080  1.00  0.00    -0.310 N 
HETATM   18  C   UNL     1     -46.795 -52.303  17.852  1.00  0.00     0.115 A 
ATOM     19  HN  UNL     1     -46.939 -52.408  19.967  1.00  0.00     0.186 HD
ENDBRANCH  12  13
ENDBRANCH  11  12
ENDBRANCH   1  11
BRANCH   7  20
HETATM   20  O   UNL     1     -40.526 -53.569  11.523  1.00  0.00    -0.395 OA
HETATM   21  H   UNL     1     -40.021 -53.032  10.891  1.00  0.00     0.210 HD
ENDBRANCH   7  20
TORSDOF 4
ENDMDL
MODEL 7
REMARK VINA RESULT:      -5.2      4.373      6.718
REMARK  4 active torsions:
REMARK  status: ('A' for Active; 'I' for Inactive)
REMARK    1  A    between atoms: C_4  and  C_5 
REMARK    2  A    between atoms: C_5  and  C_6 
REMARK    3  A    between atoms: C_6  and  N_7 
REMARK       I    between atoms: N_7  and  C_8 
REMARK       I    between atoms: C_8  and  N_10 
REMARK    4  A    between atoms: C_13  and  O_14 
ROOT
HETATM    1  N   UNL     1     -41.209 -53.105  14.234  1.00  0.00    -0.343 N 
HETATM    2  C   UNL     1     -39.952 -52.583  14.394  1.00  0.00     0.318 C 
HETATM    3  O   UNL     1     -39.304 -52.769  15.421  1.00  0.00    -0.247 OA
HETATM    4  N   UNL     1     -39.488 -51.826  13.329  1.00  0.00    -0.334 N 
HETATM    5  C   UNL     1     -38.106 -51.348  13.364  1.00  0.00     0.130 C 
HETATM    6  C   UNL     1     -38.011 -49.853  13.069  1.00  0.00     0.051 C 
HETATM    7  C   UNL     1     -38.778 -49.462  11.807  1.00  0.00     0.121 C 
HETATM    8  C   UNL     1     -40.207 -49.996  11.838  1.00  0.00     0.051 C 
HETATM    9  C   UNL     1     -40.247 -51.493  12.122  1.00  0.00     0.130 C 
HETATM   10  H   UNL     1     -41.428 -53.402  13.298  1.00  0.00     0.164 HD
ENDROOT
BRANCH   1  11
HETATM   11  C   UNL     1     -41.826 -53.868  15.304  1.00  0.00     0.129 C 
BRANCH  11  12
HETATM   12  C   UNL     1     -42.914 -54.821  14.802  1.00  0.00     0.061 C 
BRANCH  12  13
HETATM   13  C   UNL     1     -44.202 -54.145  14.466  1.00  0.00    -0.023 A 
HETATM   14  C   UNL     1     -44.642 -52.895  14.851  1.00  0.00     0.118 A 
HETATM   15  N   UNL     1     -45.874 -52.730  14.291  1.00  0.00    -0.308 N 
HETATM   16  C   UNL     1     -46.731 -51.576  14.403  1.00  0.00     0.177 C 
HETATM   17  N   UNL     1     -46.280 -53.793  13.573  1.00  0.00    -0.310 N 
HETATM   18  C   UNL     1     -45.266 -54.653  13.685  1.00  0.00     0.115 A 
ATOM     19  HN  UNL     1     -47.155 -53.913  13.063  1.00  0.00     0.186 HD
ENDBRANCH  12  13
ENDBRANCH  11  12
ENDBRANCH   1  11
BRANCH   7  20
HETATM   20  O   UNL     1     -38.102 -49.914  10.635  1.00  0.00    -0.395 OA
HETATM   21  H   UNL     1     -37.345 -49.333  10.455  1.00  0.00     0.210 HD
ENDBRANCH   7  20
TORSDOF 4
ENDMDL
MODEL 8
REMARK VINA RESULT:      -5.2      3.233      6.504
REMARK  4 active torsions:
REMARK  status: ('A' for Active; 'I' for Inactive)
REMARK    1  A    between atoms: C_4  and  C_5 
REMARK    2  A    between atoms: C_5  and  C_6 
REMARK    3  A    between atoms: C_6  and  N_7 
REMARK       I    between atoms: N_7  and  C_8 
REMARK       I    between atoms: C_8  and  N_10 
REMARK    4  A    between atoms: C_13  and  O_14 
ROOT
HETATM    1  N   UNL     1     -40.193 -49.248  12.264  1.00  0.00    -0.343 N 
HETATM    2  C   UNL     1     -40.110 -47.895  12.069  1.00  0.00     0.318 C 
HETATM    3  O   UNL     1     -39.396 -47.185  12.774  1.00  0.00    -0.247 OA
HETATM    4  N   UNL     1     -40.895 -47.398  11.040  1.00  0.00    -0.334 N 
HETATM    5  C   UNL     1     -40.760 -45.988  10.679  1.00  0.00     0.130 C 
HETATM    6  C   UNL     1     -42.114 -45.284  10.604  1.00  0.00     0.051 C 
HETATM    7  C   UNL     1     -43.121 -46.056   9.753  1.00  0.00     0.121 C 
HETATM    8  C   UNL     1     -43.206 -47.517  10.181  1.00  0.00     0.051 C 
HETATM    9  C   UNL     1     -41.833 -48.177  10.227  1.00  0.00     0.130 C 
HETATM   10  H   UNL     1     -40.289 -49.793  11.423  1.00  0.00     0.164 HD
ENDROOT
BRANCH   1  11
HETATM   11  C   UNL     1     -39.460 -49.878  13.348  1.00  0.00     0.129 C 
BRANCH  11  12
HETATM   12  C   UNL     1     -40.361 -50.699  14.275  1.00  0.00     0.061 C 
BRANCH  12  13
HETATM   13  C   UNL     1     -41.193 -51.715  13.566  1.00  0.00    -0.023 A 
HETATM   14  C   UNL     1     -42.567 -51.841  13.553  1.00  0.00     0.118 A 
HETATM   15  N   UNL     1     -42.849 -52.918  12.765  1.00  0.00    -0.308 N 
HETATM   16  C   UNL     1     -44.154 -53.440  12.443  1.00  0.00     0.177 C 
HETATM   17  N   UNL     1     -41.751 -53.515  12.268  1.00  0.00    -0.310 N 
HETATM   18  C   UNL     1     -40.747 -52.787  12.760  1.00  0.00     0.115 A 
ATOM     19  HN  UNL     1     -41.698 -54.332  11.659  1.00  0.00     0.186 HD
ENDBRANCH  12  13
ENDBRANCH  11  12
ENDBRANCH   1  11
BRANCH   7  20
HETATM   20  O   UNL     1     -42.798 -45.961   8.366  1.00  0.00    -0.395 OA
HETATM   21  H   UNL     1     -42.784 -46.851   7.977  1.00  0.00     0.210 HD
ENDBRANCH   7  20
TORSDOF 4
ENDMDL
MODEL 9
REMARK VINA RESULT:      -5.1      2.972      7.288
REMARK  4 active torsions:
REMARK  status: ('A' for Active; 'I' for Inactive)
REMARK    1  A    between atoms: C_4  and  C_5 
REMARK    2  A    between atoms: C_5  and  C_6 
REMARK    3  A    between atoms: C_6  and  N_7 
REMARK       I    between atoms: N_7  and  C_8 
REMARK       I    between atoms: C_8  and  N_10 
REMARK    4  A    between atoms: C_13  and  O_14 
ROOT
HETATM    1  N   UNL     1     -41.531 -50.689  11.558  1.00  0.00    -0.343 N 
HETATM    2  C   UNL     1     -40.660 -49.696  11.921  1.00  0.00     0.318 C 
HETATM    3  O   UNL     1     -39.797 -49.877  12.777  1.00  0.00    -0.247 OA
HETATM    4  N   UNL     1     -40.840 -48.486  11.269  1.00  0.00    -0.334 N 
HETATM    5  C   UNL     1     -39.869 -47.418  11.500  1.00  0.00     0.130 C 
HETATM    6  C   UNL     1     -40.545 -46.096  11.855  1.00  0.00     0.051 C 
HETATM    7  C   UNL     1     -41.656 -45.731  10.873  1.00  0.00     0.121 C 
HETATM    8  C   UNL     1     -42.628 -46.890  10.677  1.00  0.00     0.051 C 
HETATM    9  C   UNL     1     -41.906 -48.181  10.311  1.00  0.00     0.130 C 
HETATM   10  H   UNL     1     -41.781 -50.698  10.583  1.00  0.00     0.164 HD
ENDROOT
BRANCH   1  11
HETATM   11  C   UNL     1     -41.478 -51.985  12.212  1.00  0.00     0.129 C 
BRANCH  11  12
HETATM   12  C   UNL     1     -42.800 -52.751  12.119  1.00  0.00     0.061 C 
BRANCH  12  13
HETATM   13  C   UNL     1     -43.041 -53.683  13.260  1.00  0.00    -0.023 A 
HETATM   14  C   UNL     1     -42.127 -54.197  14.157  1.00  0.00     0.118 A 
HETATM   15  N   UNL     1     -42.830 -54.996  15.010  1.00  0.00    -0.308 N 
HETATM   16  C   UNL     1     -42.308 -55.747  16.125  1.00  0.00     0.177 C 
HETATM   17  N   UNL     1     -44.144 -55.051  14.726  1.00  0.00    -0.310 N 
HETATM   18  C   UNL     1     -44.269 -54.257  13.661  1.00  0.00     0.115 A 
ATOM     19  HN  UNL     1     -44.873 -55.574  15.212  1.00  0.00     0.186 HD
ENDBRANCH  12  13
ENDBRANCH  11  12
ENDBRANCH   1  11
BRANCH   7  20
HETATM   20  O   UNL     1     -41.115 -45.318   9.619  1.00  0.00    -0.395 OA
HETATM   21  H   UNL     1     -40.242 -45.724   9.494  1.00  0.00     0.210 HD
ENDBRANCH   7  20
TORSDOF 4
ENDMDL
