MODEL 1
REMARK VINA RESULT:      -7.1      0.000      0.000
REMARK  5 active torsions:
REMARK  status: ('A' for Active; 'I' for Inactive)
REMARK    1  A    between atoms: C_2  and  C_4 
REMARK       I    between atoms: C_4  and  N_6 
REMARK    2  A    between atoms: C_10  and  C_12 
REMARK       I    between atoms: C_12  and  N_14 
REMARK    3  A    between atoms: N_14  and  C_15 
REMARK    4  A    between atoms: C_15  and  C_16 
REMARK    5  A    between atoms: C_16  and  C_17 
ROOT
HETATM    1  C   UNL     1     -40.945 -51.377  12.429  1.00  0.00     0.223 C 
HETATM    2  O   UNL     1     -39.748 -51.607  12.296  1.00  0.00    -0.273 OA
HETATM    3  N   UNL     1     -41.590 -50.362  11.749  1.00  0.00    -0.360 N 
HETATM    4  H   UNL     1     -42.602 -50.398  11.698  1.00  0.00     0.162 HD
ENDROOT
BRANCH   1   5
HETATM    5  C   UNL     1     -41.855 -52.177  13.352  1.00  0.00     0.096 C 
HETATM    6  C   UNL     1     -41.178 -53.479  13.807  1.00  0.00     0.017 C 
HETATM    7  C   UNL     1     -42.143 -54.380  14.579  1.00  0.00     0.021 C 
HETATM    8  C   UNL     1     -43.437 -54.617  13.804  1.00  0.00     0.126 C 
HETATM    9  N   UNL     1     -44.040 -53.337  13.442  1.00  0.00    -0.351 N 
HETATM   10  C   UNL     1     -45.404 -53.159  13.642  1.00  0.00     0.223 C 
HETATM   11  C   UNL     1     -43.176 -52.471  12.635  1.00  0.00     0.139 C 
HETATM   12  O   UNL     1     -46.122 -54.071  14.059  1.00  0.00    -0.273 OA
BRANCH  10  13
HETATM   13  C   UNL     1     -45.976 -51.748  13.464  1.00  0.00     0.070 C 
HETATM   14  C   UNL     1     -46.809 -51.641  12.188  1.00  0.00     0.019 C 
HETATM   15  C   UNL     1     -46.828 -51.408  14.687  1.00  0.00     0.019 C 
ENDBRANCH  10  13
ENDBRANCH   1   5
BRANCH   3  16
HETATM   16  C   UNL     1     -40.878 -49.552  10.772  1.00  0.00     0.128 C 
BRANCH  16  17
HETATM   17  C   UNL     1     -41.345 -48.102  10.804  1.00  0.00     0.076 C 
BRANCH  17  18
HETATM   18  C   UNL     1     -42.607 -47.888  10.015  1.00  0.00     0.010 A 
HETATM   19  C   UNL     1     -43.811 -47.618  10.664  1.00  0.00     0.025 A 
HETATM   20  C   UNL     1     -44.965 -47.465   9.901  1.00  0.00     0.003 A 
HETATM   21  C   UNL     1     -44.889 -47.575   8.519  1.00  0.00     0.017 A 
HETATM   22  C   UNL     1     -43.651 -47.828   7.953  1.00  0.00     0.088 A 
HETATM   23  N   UNL     1     -42.514 -47.985   8.668  1.00  0.00    -0.369 N 
ATOM     24  HN  UNL     1     -41.621 -48.169   8.210  1.00  0.00     0.165 HD
ENDBRANCH  17  18
ENDBRANCH  16  17
ENDBRANCH   3  16
TORSDOF 5
ENDMDL
MODEL 2
REMARK VINA RESULT:      -6.8      2.220      6.527
REMARK  5 active torsions:
REMARK  status: ('A' for Active; 'I' for Inactive)
REMARK    1  A    between atoms: C_2  and  C_4 
REMARK       I    between atoms: C_4  and  N_6 
REMARK    2  A    between atoms: C_10  and  C_12 
REMARK       I    between atoms: C_12  and  N_14 
REMARK    3  A    between atoms: N_14  and  C_15 
REMARK    4  A    between atoms: C_15  and  C_16 
REMARK    5  A    between atoms: C_16  and  C_17 
ROOT
HETATM    1  C   UNL     1     -41.696 -50.181  12.453  1.00  0.00     0.223 C 
HETATM    2  O   UNL     1     -41.713 -50.080  13.675  1.00  0.00    -0.273 OA
HETATM    3  N   UNL     1     -41.883 -51.385  11.801  1.00  0.00    -0.360 N 
HETATM    4  H   UNL     1     -42.121 -51.356  10.817  1.00  0.00     0.162 HD
ENDROOT
BRANCH   1   5
HETATM    5  C   UNL     1     -41.470 -49.001  11.517  1.00  0.00     0.096 C 
HETATM    6  C   UNL     1     -40.264 -48.161  11.964  1.00  0.00     0.017 C 
HETATM    7  C   UNL     1     -40.137 -46.873  11.149  1.00  0.00     0.021 C 
HETATM    8  C   UNL     1     -41.443 -46.084  11.132  1.00  0.00     0.126 C 
HETATM    9  N   UNL     1     -42.531 -46.936  10.660  1.00  0.00    -0.351 N 
HETATM   10  C   UNL     1     -43.414 -46.431   9.712  1.00  0.00     0.223 C 
HETATM   11  C   UNL     1     -42.739 -48.146  11.459  1.00  0.00     0.139 C 
HETATM   12  O   UNL     1     -43.336 -45.268   9.308  1.00  0.00    -0.273 OA
BRANCH  10  13
HETATM   13  C   UNL     1     -44.409 -47.404   9.071  1.00  0.00     0.070 C 
HETATM   14  C   UNL     1     -45.777 -46.751   8.871  1.00  0.00     0.019 C 
HETATM   15  C   UNL     1     -43.841 -47.871   7.731  1.00  0.00     0.019 C 
ENDBRANCH  10  13
ENDBRANCH   1   5
BRANCH   3  16
HETATM   16  C   UNL     1     -42.185 -52.596  12.549  1.00  0.00     0.128 C 
BRANCH  16  17
HETATM   17  C   UNL     1     -43.641 -53.012  12.373  1.00  0.00     0.076 C 
BRANCH  17  18
HETATM   18  C   UNL     1     -44.545 -52.378  13.394  1.00  0.00     0.010 A 
HETATM   19  C   UNL     1     -45.886 -52.138  13.102  1.00  0.00     0.025 A 
HETATM   20  C   UNL     1     -46.681 -51.514  14.059  1.00  0.00     0.003 A 
HETATM   21  C   UNL     1     -46.124 -51.156  15.280  1.00  0.00     0.017 A 
HETATM   22  C   UNL     1     -44.788 -51.446  15.496  1.00  0.00     0.088 A 
HETATM   23  N   UNL     1     -43.990 -52.047  14.584  1.00  0.00    -0.369 N 
ATOM     24  HN  UNL     1     -43.010 -52.244  14.785  1.00  0.00     0.165 HD
ENDBRANCH  17  18
ENDBRANCH  16  17
ENDBRANCH   3  16
TORSDOF 5
ENDMDL
MODEL 3
REMARK VINA RESULT:      -6.5      2.528      7.269
REMARK  5 active torsions:
REMARK  status: ('A' for Active; 'I' for Inactive)
REMARK    1  A    between atoms: C_2  and  C_4 
REMARK       I    between atoms: C_4  and  N_6 
REMARK    2  A    between atoms: C_10  and  C_12 
REMARK       I    between atoms: C_12  and  N_14 
REMARK    3  A    between atoms: N_14  and  C_15 
REMARK    4  A    between atoms: C_15  and  C_16 
REMARK    5  A    between atoms: C_16  and  C_17 
ROOT
HETATM    1  C   UNL     1     -40.760 -49.617  12.034  1.00  0.00     0.223 C 
HETATM    2  O   UNL     1     -40.594 -49.553  13.247  1.00  0.00    -0.273 OA
HETATM    3  N   UNL     1     -40.870 -50.817  11.358  1.00  0.00    -0.360 N 
HETATM    4  H   UNL     1     -41.265 -50.798  10.426  1.00  0.00     0.162 HD
ENDROOT
BRANCH   1   5
HETATM    5  C   UNL     1     -40.864 -48.391  11.136  1.00  0.00     0.096 C 
HETATM    6  C   UNL     1     -39.810 -47.338  11.510  1.00  0.00     0.017 C 
HETATM    7  C   UNL     1     -40.021 -46.030  10.746  1.00  0.00     0.021 C 
HETATM    8  C   UNL     1     -41.452 -45.520  10.883  1.00  0.00     0.126 C 
HETATM    9  N   UNL     1     -42.391 -46.560  10.473  1.00  0.00    -0.351 N 
HETATM   10  C   UNL     1     -43.445 -46.218   9.633  1.00  0.00     0.223 C 
HETATM   11  C   UNL     1     -42.277 -47.808  11.232  1.00  0.00     0.139 C 
HETATM   12  O   UNL     1     -43.638 -45.053   9.277  1.00  0.00    -0.273 OA
BRANCH  10  13
HETATM   13  C   UNL     1     -44.286 -47.354   9.040  1.00  0.00     0.070 C 
HETATM   14  C   UNL     1     -45.737 -46.923   8.832  1.00  0.00     0.019 C 
HETATM   15  C   UNL     1     -43.661 -47.783   7.712  1.00  0.00     0.019 C 
ENDBRANCH  10  13
ENDBRANCH   1   5
BRANCH   3  16
HETATM   16  C   UNL     1     -40.866 -52.080  12.080  1.00  0.00     0.128 C 
BRANCH  16  17
HETATM   17  C   UNL     1     -42.275 -52.637  12.239  1.00  0.00     0.076 C 
BRANCH  17  18
HETATM   18  C   UNL     1     -42.390 -53.583  13.403  1.00  0.00     0.010 A 
HETATM   19  C   UNL     1     -43.604 -54.201  13.698  1.00  0.00     0.025 A 
HETATM   20  C   UNL     1     -43.679 -55.039  14.806  1.00  0.00     0.003 A 
HETATM   21  C   UNL     1     -42.546 -55.247  15.582  1.00  0.00     0.017 A 
HETATM   22  C   UNL     1     -41.376 -54.609  15.210  1.00  0.00     0.088 A 
HETATM   23  N   UNL     1     -41.273 -53.786  14.142  1.00  0.00    -0.369 N 
ATOM     24  HN  UNL     1     -40.390 -53.336  13.902  1.00  0.00     0.165 HD
ENDBRANCH  17  18
ENDBRANCH  16  17
ENDBRANCH   3  16
TORSDOF 5
ENDMDL
MODEL 4
REMARK VINA RESULT:      -6.4      1.765      2.577
REMARK  5 active torsions:
REMARK  status: ('A' for Active; 'I' for Inactive)
REMARK    1  A    between atoms: C_2  and  C_4 
REMARK       I    between atoms: C_4  and  N_6 
REMARK    2  A    between atoms: C_10  and  C_12 
REMARK       I    between atoms: C_12  and  N_14 
REMARK    3  A    between atoms: N_14  and  C_15 
REMARK    4  A    between atoms: C_15  and  C_16 
REMARK    5  A    between atoms: C_16  and  C_17 
ROOT
HETATM    1  C   UNL     1     -40.884 -51.727  12.741  1.00  0.00     0.223 C 
HETATM    2  O   UNL     1     -39.765 -52.160  12.486  1.00  0.00    -0.273 OA
HETATM    3  N   UNL     1     -41.361 -50.539  12.223  1.00  0.00    -0.360 N 
HETATM    4  H   UNL     1     -42.361 -50.379  12.254  1.00  0.00     0.162 HD
ENDROOT
BRANCH   1   5
HETATM    5  C   UNL     1     -41.873 -52.445  13.651  1.00  0.00     0.096 C 
HETATM    6  C   UNL     1     -41.281 -53.757  14.189  1.00  0.00     0.017 C 
HETATM    7  C   UNL     1     -42.323 -54.579  14.950  1.00  0.00     0.021 C 
HETATM    8  C   UNL     1     -43.589 -54.787  14.125  1.00  0.00     0.126 C 
HETATM    9  N   UNL     1     -44.113 -53.498  13.684  1.00  0.00    -0.351 N 
HETATM   10  C   UNL     1     -45.474 -53.248  13.812  1.00  0.00     0.223 C 
HETATM   11  C   UNL     1     -43.173 -52.707  12.885  1.00  0.00     0.139 C 
HETATM   12  O   UNL     1     -46.254 -54.108  14.230  1.00  0.00    -0.273 OA
BRANCH  10  13
HETATM   13  C   UNL     1     -45.969 -51.821  13.551  1.00  0.00     0.070 C 
HETATM   14  C   UNL     1     -46.767 -51.736  12.251  1.00  0.00     0.019 C 
HETATM   15  C   UNL     1     -46.829 -51.377  14.734  1.00  0.00     0.019 C 
ENDBRANCH  10  13
ENDBRANCH   1   5
BRANCH   3  16
HETATM   16  C   UNL     1     -40.568 -49.769  11.277  1.00  0.00     0.128 C 
BRANCH  16  17
HETATM   17  C   UNL     1     -41.336 -48.558  10.761  1.00  0.00     0.076 C 
BRANCH  17  18
HETATM   18  C   UNL     1     -40.687 -47.258  11.153  1.00  0.00     0.010 A 
HETATM   19  C   UNL     1     -40.203 -47.069  12.446  1.00  0.00     0.025 A 
HETATM   20  C   UNL     1     -39.645 -45.839  12.780  1.00  0.00     0.003 A 
HETATM   21  C   UNL     1     -39.574 -44.838  11.819  1.00  0.00     0.017 A 
HETATM   22  C   UNL     1     -40.062 -45.115  10.554  1.00  0.00     0.088 A 
HETATM   23  N   UNL     1     -40.614 -46.298  10.201  1.00  0.00    -0.369 N 
ATOM     24  HN  UNL     1     -40.960 -46.460   9.255  1.00  0.00     0.165 HD
ENDBRANCH  17  18
ENDBRANCH  16  17
ENDBRANCH   3  16
TORSDOF 5
ENDMDL
MODEL 5
REMARK VINA RESULT:      -6.1      3.657      6.761
REMARK  5 active torsions:
REMARK  status: ('A' for Active; 'I' for Inactive)
REMARK    1  A    between atoms: C_2  and  C_4 
REMARK       I    between atoms: C_4  and  N_6 
REMARK    2  A    between atoms: C_10  and  C_12 
REMARK       I    between atoms: C_12  and  N_14 
REMARK    3  A    between atoms: N_14  and  C_15 
REMARK    4  A    between atoms: C_15  and  C_16 
REMARK    5  A    between atoms: C_16  and  C_17 
ROOT
HETATM    1  C   UNL     1     -42.741 -52.933  12.761  1.00  0.00     0.223 C 
HETATM    2  O   UNL     1     -43.349 -51.876  12.627  1.00  0.00    -0.273 OA
HETATM    3  N   UNL     1     -43.372 -54.161  12.777  1.00  0.00    -0.360 N 
HETATM    4  H   UNL     1     -42.803 -54.985  12.622  1.00  0.00     0.162 HD
ENDROOT
BRANCH   1   5
HETATM    5  C   UNL     1     -41.228 -53.014  12.921  1.00  0.00     0.096 C 
HETATM    6  C   UNL     1     -40.835 -54.096  13.939  1.00  0.00     0.017 C 
HETATM    7  C   UNL     1     -39.338 -54.064  14.251  1.00  0.00     0.021 C 
HETATM    8  C   UNL     1     -38.876 -52.667  14.655  1.00  0.00     0.126 C 
HETATM    9  N   UNL     1     -39.249 -51.703  13.623  1.00  0.00    -0.351 N 
HETATM   10  C   UNL     1     -38.306 -50.772  13.203  1.00  0.00     0.223 C 
HETATM   11  C   UNL     1     -40.687 -51.645  13.345  1.00  0.00     0.139 C 
HETATM   12  O   UNL     1     -37.188 -50.703  13.721  1.00  0.00    -0.273 OA
BRANCH  10  13
HETATM   13  C   UNL     1     -38.641 -49.917  11.976  1.00  0.00     0.070 C 
HETATM   14  C   UNL     1     -39.070 -48.507  12.378  1.00  0.00     0.019 C 
HETATM   15  C   UNL     1     -37.411 -49.862  11.069  1.00  0.00     0.019 C 
ENDBRANCH  10  13
ENDBRANCH   1   5
BRANCH   3  16
HETATM   16  C   UNL     1     -44.807 -54.263  12.561  1.00  0.00     0.128 C 
BRANCH  16  17
HETATM   17  C   UNL     1     -45.537 -54.663  13.837  1.00  0.00     0.076 C 
BRANCH  17  18
HETATM   18  C   UNL     1     -46.006 -53.472  14.627  1.00  0.00     0.010 A 
HETATM   19  C   UNL     1     -46.088 -53.531  16.017  1.00  0.00     0.025 A 
HETATM   20  C   UNL     1     -46.563 -52.421  16.710  1.00  0.00     0.003 A 
HETATM   21  C   UNL     1     -46.934 -51.284  16.003  1.00  0.00     0.017 A 
HETATM   22  C   UNL     1     -46.805 -51.303  14.625  1.00  0.00     0.088 A 
HETATM   23  N   UNL     1     -46.351 -52.367  13.925  1.00  0.00    -0.369 N 
ATOM     24  HN  UNL     1     -46.270 -52.338  12.908  1.00  0.00     0.165 HD
ENDBRANCH  17  18
ENDBRANCH  16  17
ENDBRANCH   3  16
TORSDOF 5
ENDMDL
MODEL 6
REMARK VINA RESULT:      -5.9      2.578      6.382
REMARK  5 active torsions:
REMARK  status: ('A' for Active; 'I' for Inactive)
REMARK    1  A    between atoms: C_2  and  C_4 
REMARK       I    between atoms: C_4  and  N_6 
REMARK    2  A    between atoms: C_10  and  C_12 
REMARK       I    between atoms: C_12  and  N_14 
REMARK    3  A    between atoms: N_14  and  C_15 
REMARK    4  A    between atoms: C_15  and  C_16 
REMARK    5  A    between atoms: C_16  and  C_17 
ROOT
HETATM    1  C   UNL     1     -40.596 -52.342  12.623  1.00  0.00     0.223 C 
HETATM    2  O   UNL     1     -40.012 -53.394  12.857  1.00  0.00    -0.273 OA
HETATM    3  N   UNL     1     -41.974 -52.241  12.607  1.00  0.00    -0.360 N 
HETATM    4  H   UNL     1     -42.379 -51.315  12.674  1.00  0.00     0.162 HD
ENDROOT
BRANCH   1   5
HETATM    5  C   UNL     1     -39.878 -51.031  12.328  1.00  0.00     0.096 C 
HETATM    6  C   UNL     1     -38.426 -51.069  12.829  1.00  0.00     0.017 C 
HETATM    7  C   UNL     1     -37.750 -49.702  12.710  1.00  0.00     0.021 C 
HETATM    8  C   UNL     1     -38.581 -48.602  13.364  1.00  0.00     0.126 C 
HETATM    9  N   UNL     1     -39.932 -48.604  12.809  1.00  0.00    -0.351 N 
HETATM   10  C   UNL     1     -40.506 -47.393  12.438  1.00  0.00     0.223 C 
HETATM   11  C   UNL     1     -40.647 -49.873  12.969  1.00  0.00     0.139 C 
HETATM   12  O   UNL     1     -39.929 -46.319  12.622  1.00  0.00    -0.273 OA
BRANCH  10  13
HETATM   13  C   UNL     1     -41.826 -47.435  11.661  1.00  0.00     0.070 C 
HETATM   14  C   UNL     1     -43.011 -47.070  12.554  1.00  0.00     0.019 C 
HETATM   15  C   UNL     1     -41.730 -46.466  10.482  1.00  0.00     0.019 C 
ENDBRANCH  10  13
ENDBRANCH   1   5
BRANCH   3  16
HETATM   16  C   UNL     1     -42.807 -53.385  12.942  1.00  0.00     0.128 C 
BRANCH  16  17
HETATM   17  C   UNL     1     -44.186 -53.279  12.301  1.00  0.00     0.076 C 
BRANCH  17  18
HETATM   18  C   UNL     1     -45.255 -52.925  13.297  1.00  0.00     0.010 A 
HETATM   19  C   UNL     1     -45.485 -51.596  13.648  1.00  0.00     0.025 A 
HETATM   20  C   UNL     1     -46.457 -51.311  14.602  1.00  0.00     0.003 A 
HETATM   21  C   UNL     1     -47.179 -52.353  15.172  1.00  0.00     0.017 A 
HETATM   22  C   UNL     1     -46.900 -53.643  14.755  1.00  0.00     0.088 A 
HETATM   23  N   UNL     1     -45.959 -53.950  13.833  1.00  0.00    -0.369 N 
ATOM     24  HN  UNL     1     -45.786 -54.916  13.553  1.00  0.00     0.165 HD
ENDBRANCH  17  18
ENDBRANCH  16  17
ENDBRANCH   3  16
TORSDOF 5
ENDMDL
MODEL 7
REMARK VINA RESULT:      -5.8      2.586      6.892
REMARK  5 active torsions:
REMARK  status: ('A' for Active; 'I' for Inactive)
REMARK    1  A    between atoms: C_2  and  C_4 
REMARK       I    between atoms: C_4  and  N_6 
REMARK    2  A    between atoms: C_10  and  C_12 
REMARK       I    between atoms: C_12  and  N_14 
REMARK    3  A    between atoms: N_14  and  C_15 
REMARK    4  A    between atoms: C_15  and  C_16 
REMARK    5  A    between atoms: C_16  and  C_17 
ROOT
HETATM    1  C   UNL     1     -42.287 -52.566  14.267  1.00  0.00     0.223 C 
HETATM    2  O   UNL     1     -41.750 -53.203  15.167  1.00  0.00    -0.273 OA
HETATM    3  N   UNL     1     -43.212 -53.124  13.406  1.00  0.00    -0.360 N 
HETATM    4  H   UNL     1     -43.802 -52.494  12.875  1.00  0.00     0.162 HD
ENDROOT
BRANCH   1   5
HETATM    5  C   UNL     1     -42.000 -51.095  13.995  1.00  0.00     0.096 C 
HETATM    6  C   UNL     1     -43.302 -50.294  13.842  1.00  0.00     0.017 C 
HETATM    7  C   UNL     1     -43.034 -48.859  13.385  1.00  0.00     0.021 C 
HETATM    8  C   UNL     1     -42.157 -48.819  12.137  1.00  0.00     0.126 C 
HETATM    9  N   UNL     1     -40.925 -49.566  12.372  1.00  0.00    -0.351 N 
HETATM   10  C   UNL     1     -39.715 -49.002  11.985  1.00  0.00     0.223 C 
HETATM   11  C   UNL     1     -41.132 -50.969  12.739  1.00  0.00     0.139 C 
HETATM   12  O   UNL     1     -39.664 -47.918  11.397  1.00  0.00    -0.273 OA
BRANCH  10  13
HETATM   13  C   UNL     1     -38.425 -49.696  12.434  1.00  0.00     0.070 C 
HETATM   14  C   UNL     1     -37.453 -49.876  11.268  1.00  0.00     0.019 C 
HETATM   15  C   UNL     1     -37.780 -48.861  13.541  1.00  0.00     0.019 C 
ENDBRANCH  10  13
ENDBRANCH   1   5
BRANCH   3  16
HETATM   16  C   UNL     1     -43.652 -54.500  13.578  1.00  0.00     0.128 C 
BRANCH  16  17
HETATM   17  C   UNL     1     -45.173 -54.604  13.581  1.00  0.00     0.076 C 
BRANCH  17  18
HETATM   18  C   UNL     1     -45.822 -53.488  14.354  1.00  0.00     0.010 A 
HETATM   19  C   UNL     1     -46.371 -52.392  13.690  1.00  0.00     0.025 A 
HETATM   20  C   UNL     1     -46.927 -51.361  14.442  1.00  0.00     0.003 A 
HETATM   21  C   UNL     1     -46.931 -51.454  15.828  1.00  0.00     0.017 A 
HETATM   22  C   UNL     1     -46.380 -52.584  16.407  1.00  0.00     0.088 A 
HETATM   23  N   UNL     1     -45.829 -53.599  15.703  1.00  0.00    -0.369 N 
ATOM     24  HN  UNL     1     -45.435 -54.415  16.171  1.00  0.00     0.165 HD
ENDBRANCH  17  18
ENDBRANCH  16  17
ENDBRANCH   3  16
TORSDOF 5
ENDMDL
MODEL 8
REMARK VINA RESULT:      -5.7      2.997      7.022
REMARK  5 active torsions:
REMARK  status: ('A' for Active; 'I' for Inactive)
REMARK    1  A    between atoms: C_2  and  C_4 
REMARK       I    between atoms: C_4  and  N_6 
REMARK    2  A    between atoms: C_10  and  C_12 
REMARK       I    between atoms: C_12  and  N_14 
REMARK    3  A    between atoms: N_14  and  C_15 
REMARK    4  A    between atoms: C_15  and  C_16 
REMARK    5  A    between atoms: C_16  and  C_17 
ROOT
HETATM    1  C   UNL     1     -40.047 -51.577  12.632  1.00  0.00     0.223 C 
HETATM    2  O   UNL     1     -40.956 -51.711  11.820  1.00  0.00    -0.273 OA
HETATM    3  N   UNL     1     -39.628 -52.602  13.459  1.00  0.00    -0.360 N 
HETATM    4  H   UNL     1     -38.721 -52.509  13.901  1.00  0.00     0.162 HD
ENDROOT
BRANCH   1   5
HETATM    5  C   UNL     1     -39.277 -50.277  12.822  1.00  0.00     0.096 C 
HETATM    6  C   UNL     1     -38.291 -50.382  13.996  1.00  0.00     0.017 C 
HETATM    7  C   UNL     1     -37.648 -49.032  14.318  1.00  0.00     0.021 C 
HETATM    8  C   UNL     1     -38.695 -47.939  14.512  1.00  0.00     0.126 C 
HETATM    9  N   UNL     1     -39.567 -47.874  13.342  1.00  0.00    -0.351 N 
HETATM   10  C   UNL     1     -39.866 -46.631  12.798  1.00  0.00     0.223 C 
HETATM   11  C   UNL     1     -40.265 -49.127  13.040  1.00  0.00     0.139 C 
HETATM   12  O   UNL     1     -39.464 -45.584  13.313  1.00  0.00    -0.273 OA
BRANCH  10  13
HETATM   13  C   UNL     1     -40.597 -46.595  11.451  1.00  0.00     0.070 C 
HETATM   14  C   UNL     1     -42.065 -46.208  11.623  1.00  0.00     0.019 C 
HETATM   15  C   UNL     1     -39.886 -45.599  10.535  1.00  0.00     0.019 C 
ENDBRANCH  10  13
ENDBRANCH   1   5
BRANCH   3  16
HETATM   16  C   UNL     1     -40.212 -53.930  13.350  1.00  0.00     0.128 C 
BRANCH  16  17
HETATM   17  C   UNL     1     -41.151 -54.224  14.514  1.00  0.00     0.076 C 
BRANCH  17  18
HETATM   18  C   UNL     1     -42.595 -54.242  14.094  1.00  0.00     0.010 A 
HETATM   19  C   UNL     1     -43.570 -54.779  14.933  1.00  0.00     0.025 A 
HETATM   20  C   UNL     1     -44.890 -54.813  14.492  1.00  0.00     0.003 A 
HETATM   21  C   UNL     1     -45.204 -54.306  13.237  1.00  0.00     0.017 A 
HETATM   22  C   UNL     1     -44.178 -53.776  12.475  1.00  0.00     0.088 A 
HETATM   23  N   UNL     1     -42.886 -53.732  12.874  1.00  0.00    -0.369 N 
ATOM     24  HN  UNL     1     -42.161 -53.330  12.280  1.00  0.00     0.165 HD
ENDBRANCH  17  18
ENDBRANCH  16  17
ENDBRANCH   3  16
TORSDOF 5
ENDMDL
MODEL 9
REMARK VINA RESULT:      -5.4      3.453      7.039
REMARK  5 active torsions:
REMARK  status: ('A' for Active; 'I' for Inactive)
REMARK    1  A    between atoms: C_2  and  C_4 
REMARK       I    between atoms: C_4  and  N_6 
REMARK    2  A    between atoms: C_10  and  C_12 
REMARK       I    between atoms: C_12  and  N_14 
REMARK    3  A    between atoms: N_14  and  C_15 
REMARK    4  A    between atoms: C_15  and  C_16 
REMARK    5  A    between atoms: C_16  and  C_17 
ROOT
HETATM    1  C   UNL     1     -40.873 -52.473  12.942  1.00  0.00     0.223 C 
HETATM    2  O   UNL     1     -40.462 -53.268  12.104  1.00  0.00    -0.273 OA
HETATM    3  N   UNL     1     -41.945 -52.748  13.769  1.00  0.00    -0.360 N 
HETATM    4  H   UNL     1     -42.059 -52.177  14.598  1.00  0.00     0.162 HD
ENDROOT
BRANCH   1   5
HETATM    5  C   UNL     1     -40.254 -51.100  13.170  1.00  0.00     0.096 C 
HETATM    6  C   UNL     1     -40.229 -50.281  11.870  1.00  0.00     0.017 C 
HETATM    7  C   UNL     1     -39.445 -48.978  12.037  1.00  0.00     0.021 C 
HETATM    8  C   UNL     1     -38.055 -49.226  12.616  1.00  0.00     0.126 C 
HETATM    9  N   UNL     1     -38.163 -49.974  13.866  1.00  0.00    -0.351 N 
HETATM   10  C   UNL     1     -37.418 -49.557  14.963  1.00  0.00     0.223 C 
HETATM   11  C   UNL     1     -38.842 -51.266  13.738  1.00  0.00     0.139 C 
HETATM   12  O   UNL     1     -36.627 -48.613  14.888  1.00  0.00    -0.273 OA
BRANCH  10  13
HETATM   13  C   UNL     1     -37.708 -50.213  16.317  1.00  0.00     0.070 C 
HETATM   14  C   UNL     1     -36.445 -50.314  17.170  1.00  0.00     0.019 C 
HETATM   15  C   UNL     1     -38.775 -49.391  17.040  1.00  0.00     0.019 C 
ENDBRANCH  10  13
ENDBRANCH   1   5
BRANCH   3  16
HETATM   16  C   UNL     1     -42.602 -54.046  13.729  1.00  0.00     0.128 C 
BRANCH  16  17
HETATM   17  C   UNL     1     -43.890 -53.996  12.917  1.00  0.00     0.076 C 
BRANCH  17  18
HETATM   18  C   UNL     1     -44.942 -53.137  13.563  1.00  0.00     0.010 A 
HETATM   19  C   UNL     1     -45.702 -52.252  12.801  1.00  0.00     0.025 A 
HETATM   20  C   UNL     1     -46.639 -51.447  13.442  1.00  0.00     0.003 A 
HETATM   21  C   UNL     1     -46.800 -51.551  14.818  1.00  0.00     0.017 A 
HETATM   22  C   UNL     1     -46.017 -52.467  15.497  1.00  0.00     0.088 A 
HETATM   23  N   UNL     1     -45.096 -53.260  14.903  1.00  0.00    -0.369 N 
ATOM     24  HN  UNL     1     -44.540 -53.924  15.442  1.00  0.00     0.165 HD
ENDBRANCH  17  18
ENDBRANCH  16  17
ENDBRANCH   3  16
TORSDOF 5
ENDMDL
