MODEL 1
REMARK VINA RESULT:      -6.3      0.000      0.000
REMARK  7 active torsions:
REMARK  status: ('A' for Active; 'I' for Inactive)
REMARK    1  A    between atoms: C_2  and  O_3 
REMARK    2  A    between atoms: C_2  and  C_8 
REMARK    3  A    between atoms: O_3  and  C_4 
REMARK    4  A    between atoms: C_4  and  C_5 
REMARK    5  A    between atoms: C_5  and  C_6 
REMARK       I    between atoms: C_8  and  N_10 
REMARK    6  A    between atoms: N_10  and  C_11 
REMARK    7  A    between atoms: C_17  and  N_18 
ROOT
HETATM    1  C   UNL     1     -42.269 -51.970  12.408  1.00  0.00     0.077 A 
HETATM    2  C   UNL     1     -41.066 -52.457  11.876  1.00  0.00     0.119 A 
HETATM    3  N   UNL     1     -40.528 -53.663  12.157  1.00  0.00    -0.373 N 
ATOM      4  HN  UNL     1     -39.663 -53.986  11.725  1.00  0.00     0.164 HD
HETATM    5  C   UNL     1     -41.208 -54.405  13.041  1.00  0.00     0.090 A 
HETATM    6  C   UNL     1     -42.426 -54.031  13.604  1.00  0.00     0.048 A 
HETATM    7  C   UNL     1     -43.026 -52.799  13.263  1.00  0.00     0.060 A 
ENDROOT
BRANCH   1   8
HETATM    8  N   UNL     1     -42.718 -50.674  12.055  1.00  0.00    -0.322 N 
HETATM    9  C   UNL     1     -42.222 -49.542  12.685  1.00  0.00     0.251 C 
HETATM   10  O   UNL     1     -41.251 -49.556  13.445  1.00  0.00    -0.270 OA
HETATM   11  H   UNL     1     -43.637 -50.649  11.638  1.00  0.00     0.169 HD
BRANCH   9  12
HETATM   12  C   UNL     1     -43.014 -48.221  12.493  1.00  0.00     0.209 C 
HETATM   13  C   UNL     1     -42.143 -46.971  12.510  1.00  0.00     0.050 C 
BRANCH  12  14
HETATM   14  O   UNL     1     -43.805 -48.168  11.300  1.00  0.00    -0.377 OA
BRANCH  14  15
HETATM   15  C   UNL     1     -43.196 -47.380  10.267  1.00  0.00     0.172 C 
BRANCH  15  16
HETATM   16  C   UNL     1     -43.999 -47.495   8.962  1.00  0.00     0.052 C 
BRANCH  16  17
HETATM   17  C   UNL     1     -45.468 -47.255   9.189  1.00  0.00    -0.035 C 
HETATM   18  C   UNL     1     -46.433 -48.151   8.933  1.00  0.00     0.007 C 
ENDBRANCH  16  17
ENDBRANCH  15  16
ENDBRANCH  14  15
ENDBRANCH  12  14
ENDBRANCH   9  12
ENDBRANCH   1   8
BRANCH   7  19
HETATM   19  N   UNL     1     -44.305 -52.482  13.735  1.00  0.00    -0.379 N 
HETATM   20  C   UNL     1     -45.487 -52.806  12.914  1.00  0.00     0.123 C 
HETATM   21  C   UNL     1     -46.476 -51.646  13.009  1.00  0.00     0.020 C 
HETATM   22  C   UNL     1     -46.834 -51.331  14.459  1.00  0.00     0.003 C 
HETATM   23  C   UNL     1     -45.577 -51.157  15.315  1.00  0.00     0.020 C 
HETATM   24  C   UNL     1     -44.635 -52.360  15.163  1.00  0.00     0.123 C 
ENDBRANCH   7  19
TORSDOF 7
ENDMDL
MODEL 2
REMARK VINA RESULT:      -6.1      2.744      6.267
REMARK  7 active torsions:
REMARK  status: ('A' for Active; 'I' for Inactive)
REMARK    1  A    between atoms: C_2  and  O_3 
REMARK    2  A    between atoms: C_2  and  C_8 
REMARK    3  A    between atoms: O_3  and  C_4 
REMARK    4  A    between atoms: C_4  and  C_5 
REMARK    5  A    between atoms: C_5  and  C_6 
REMARK       I    between atoms: C_8  and  N_10 
REMARK    6  A    between atoms: N_10  and  C_11 
REMARK    7  A    between atoms: C_17  and  N_18 
ROOT
HETATM    1  C   UNL     1     -41.308 -48.864  11.155  1.00  0.00     0.077 A 
HETATM    2  C   UNL     1     -42.109 -48.086  10.306  1.00  0.00     0.119 A 
HETATM    3  N   UNL     1     -41.884 -46.790  10.003  1.00  0.00    -0.373 N 
ATOM      4  HN  UNL     1     -42.479 -46.271   9.358  1.00  0.00     0.164 HD
HETATM    5  C   UNL     1     -40.826 -46.233  10.606  1.00  0.00     0.090 A 
HETATM    6  C   UNL     1     -39.948 -46.922  11.441  1.00  0.00     0.048 A 
HETATM    7  C   UNL     1     -40.143 -48.295  11.709  1.00  0.00     0.060 A 
ENDROOT
BRANCH   1   8
HETATM    8  N   UNL     1     -41.665 -50.210  11.416  1.00  0.00    -0.322 N 
HETATM    9  C   UNL     1     -42.405 -50.556  12.537  1.00  0.00     0.251 C 
HETATM   10  O   UNL     1     -42.953 -49.731  13.273  1.00  0.00    -0.270 OA
HETATM   11  H   UNL     1     -41.056 -50.893  10.992  1.00  0.00     0.169 HD
BRANCH   9  12
HETATM   12  C   UNL     1     -42.440 -52.058  12.926  1.00  0.00     0.209 C 
HETATM   13  C   UNL     1     -42.614 -52.305  14.420  1.00  0.00     0.050 C 
BRANCH  12  14
HETATM   14  O   UNL     1     -43.444 -52.826  12.251  1.00  0.00    -0.377 OA
BRANCH  14  15
HETATM   15  C   UNL     1     -44.558 -53.144  13.097  1.00  0.00     0.172 C 
BRANCH  15  16
HETATM   16  C   UNL     1     -45.863 -52.614  12.484  1.00  0.00     0.052 C 
BRANCH  16  17
HETATM   17  C   UNL     1     -46.426 -51.466  13.279  1.00  0.00    -0.035 C 
HETATM   18  C   UNL     1     -46.511 -51.438  14.617  1.00  0.00     0.007 C 
ENDBRANCH  16  17
ENDBRANCH  15  16
ENDBRANCH  14  15
ENDBRANCH  12  14
ENDBRANCH   9  12
ENDBRANCH   1   8
BRANCH   7  19
HETATM   19  N   UNL     1     -39.193 -49.011  12.447  1.00  0.00    -0.379 N 
HETATM   20  C   UNL     1     -37.879 -49.312  11.850  1.00  0.00     0.123 C 
HETATM   21  C   UNL     1     -37.485 -50.737  12.234  1.00  0.00     0.020 C 
HETATM   22  C   UNL     1     -37.504 -50.935  13.747  1.00  0.00     0.003 C 
HETATM   23  C   UNL     1     -38.829 -50.463  14.353  1.00  0.00     0.020 C 
HETATM   24  C   UNL     1     -39.154 -49.027  13.918  1.00  0.00     0.123 C 
ENDBRANCH   7  19
TORSDOF 7
ENDMDL
MODEL 3
REMARK VINA RESULT:      -5.8      2.949      5.476
REMARK  7 active torsions:
REMARK  status: ('A' for Active; 'I' for Inactive)
REMARK    1  A    between atoms: C_2  and  O_3 
REMARK    2  A    between atoms: C_2  and  C_8 
REMARK    3  A    between atoms: O_3  and  C_4 
REMARK    4  A    between atoms: C_4  and  C_5 
REMARK    5  A    between atoms: C_5  and  C_6 
REMARK       I    between atoms: C_8  and  N_10 
REMARK    6  A    between atoms: N_10  and  C_11 
REMARK    7  A    between atoms: C_17  and  N_18 
ROOT
HETATM    1  C   UNL     1     -40.554 -51.021  12.091  1.00  0.00     0.077 A 
HETATM    2  C   UNL     1     -40.366 -50.012  11.136  1.00  0.00     0.119 A 
HETATM    3  N   UNL     1     -39.500 -48.983  11.258  1.00  0.00    -0.373 N 
ATOM      4  HN  UNL     1     -39.376 -48.285  10.524  1.00  0.00     0.164 HD
HETATM    5  C   UNL     1     -38.814 -48.940  12.407  1.00  0.00     0.090 A 
HETATM    6  C   UNL     1     -38.902 -49.907  13.407  1.00  0.00     0.048 A 
HETATM    7  C   UNL     1     -39.758 -51.020  13.255  1.00  0.00     0.060 A 
ENDROOT
BRANCH   1   8
HETATM    8  N   UNL     1     -41.514 -52.036  11.857  1.00  0.00    -0.322 N 
HETATM    9  C   UNL     1     -42.725 -52.053  12.533  1.00  0.00     0.251 C 
HETATM   10  O   UNL     1     -43.130 -51.118  13.229  1.00  0.00    -0.270 OA
HETATM   11  H   UNL     1     -41.131 -52.899  11.501  1.00  0.00     0.169 HD
BRANCH   9  12
HETATM   12  C   UNL     1     -43.545 -53.370  12.484  1.00  0.00     0.209 C 
HETATM   13  C   UNL     1     -43.547 -54.146  13.795  1.00  0.00     0.050 C 
BRANCH  12  14
HETATM   14  O   UNL     1     -44.912 -53.207  12.088  1.00  0.00    -0.377 OA
BRANCH  14  15
HETATM   15  C   UNL     1     -45.812 -53.179  13.205  1.00  0.00     0.172 C 
BRANCH  15  16
HETATM   16  C   UNL     1     -46.571 -51.844  13.246  1.00  0.00     0.052 C 
BRANCH  16  17
HETATM   17  C   UNL     1     -46.751 -51.347  14.656  1.00  0.00    -0.035 C 
HETATM   18  C   UNL     1     -45.784 -51.332  15.585  1.00  0.00     0.007 C 
ENDBRANCH  16  17
ENDBRANCH  15  16
ENDBRANCH  14  15
ENDBRANCH  12  14
ENDBRANCH   9  12
ENDBRANCH   1   8
BRANCH   7  19
HETATM   19  N   UNL     1     -39.752 -52.049  14.204  1.00  0.00    -0.379 N 
HETATM   20  C   UNL     1     -38.899 -53.233  13.992  1.00  0.00     0.123 C 
HETATM   21  C   UNL     1     -39.679 -54.476  14.418  1.00  0.00     0.020 C 
HETATM   22  C   UNL     1     -40.180 -54.359  15.855  1.00  0.00     0.003 C 
HETATM   23  C   UNL     1     -40.926 -53.041  16.078  1.00  0.00     0.020 C 
HETATM   24  C   UNL     1     -40.078 -51.843  15.624  1.00  0.00     0.123 C 
ENDBRANCH   7  19
TORSDOF 7
ENDMDL
MODEL 4
REMARK VINA RESULT:      -5.8      2.746      6.865
REMARK  7 active torsions:
REMARK  status: ('A' for Active; 'I' for Inactive)
REMARK    1  A    between atoms: C_2  and  O_3 
REMARK    2  A    between atoms: C_2  and  C_8 
REMARK    3  A    between atoms: O_3  and  C_4 
REMARK    4  A    between atoms: C_4  and  C_5 
REMARK    5  A    between atoms: C_5  and  C_6 
REMARK       I    between atoms: C_8  and  N_10 
REMARK    6  A    between atoms: N_10  and  C_11 
REMARK    7  A    between atoms: C_17  and  N_18 
ROOT
HETATM    1  C   UNL     1     -41.441 -48.418  11.115  1.00  0.00     0.077 A 
HETATM    2  C   UNL     1     -42.156 -47.555  10.272  1.00  0.00     0.119 A 
HETATM    3  N   UNL     1     -41.774 -46.302   9.945  1.00  0.00    -0.373 N 
ATOM      4  HN  UNL     1     -42.313 -45.718   9.305  1.00  0.00     0.164 HD
HETATM    5  C   UNL     1     -40.640 -45.877  10.517  1.00  0.00     0.090 A 
HETATM    6  C   UNL     1     -39.838 -46.662  11.343  1.00  0.00     0.048 A 
HETATM    7  C   UNL     1     -40.200 -47.996  11.636  1.00  0.00     0.060 A 
ENDROOT
BRANCH   1   8
HETATM    8  N   UNL     1     -41.960 -49.704  11.404  1.00  0.00    -0.322 N 
HETATM    9  C   UNL     1     -42.630 -49.963  12.590  1.00  0.00     0.251 C 
HETATM   10  O   UNL     1     -42.980 -49.082  13.381  1.00  0.00    -0.270 OA
HETATM   11  H   UNL     1     -41.499 -50.459  10.919  1.00  0.00     0.169 HD
BRANCH   9  12
HETATM   12  C   UNL     1     -42.842 -51.452  12.974  1.00  0.00     0.209 C 
HETATM   13  C   UNL     1     -44.291 -51.811  13.278  1.00  0.00     0.050 C 
BRANCH  12  14
HETATM   14  O   UNL     1     -42.369 -52.391  12.000  1.00  0.00    -0.377 OA
BRANCH  14  15
HETATM   15  C   UNL     1     -41.069 -52.908  12.316  1.00  0.00     0.172 C 
BRANCH  15  16
HETATM   16  C   UNL     1     -41.190 -54.141  13.225  1.00  0.00     0.052 C 
BRANCH  16  17
HETATM   17  C   UNL     1     -40.282 -54.044  14.422  1.00  0.00    -0.035 C 
HETATM   18  C   UNL     1     -39.029 -54.519  14.465  1.00  0.00     0.007 C 
ENDBRANCH  16  17
ENDBRANCH  15  16
ENDBRANCH  14  15
ENDBRANCH  12  14
ENDBRANCH   9  12
ENDBRANCH   1   8
BRANCH   7  19
HETATM   19  N   UNL     1     -39.332 -48.819  12.364  1.00  0.00    -0.379 N 
HETATM   20  C   UNL     1     -38.055 -49.246  11.764  1.00  0.00     0.123 C 
HETATM   21  C   UNL     1     -37.814 -50.710  12.127  1.00  0.00     0.020 C 
HETATM   22  C   UNL     1     -37.858 -50.928  13.636  1.00  0.00     0.003 C 
HETATM   23  C   UNL     1     -39.128 -50.330  14.247  1.00  0.00     0.020 C 
HETATM   24  C   UNL     1     -39.299 -48.861  13.835  1.00  0.00     0.123 C 
ENDBRANCH   7  19
TORSDOF 7
ENDMDL
MODEL 5
REMARK VINA RESULT:      -5.6      2.012      2.500
REMARK  7 active torsions:
REMARK  status: ('A' for Active; 'I' for Inactive)
REMARK    1  A    between atoms: C_2  and  O_3 
REMARK    2  A    between atoms: C_2  and  C_8 
REMARK    3  A    between atoms: O_3  and  C_4 
REMARK    4  A    between atoms: C_4  and  C_5 
REMARK    5  A    between atoms: C_5  and  C_6 
REMARK       I    between atoms: C_8  and  N_10 
REMARK    6  A    between atoms: N_10  and  C_11 
REMARK    7  A    between atoms: C_17  and  N_18 
ROOT
HETATM    1  C   UNL     1     -42.257 -51.771  12.478  1.00  0.00     0.077 A 
HETATM    2  C   UNL     1     -41.082 -52.212  11.853  1.00  0.00     0.119 A 
HETATM    3  N   UNL     1     -40.591 -53.468  11.927  1.00  0.00    -0.373 N 
ATOM      4  HN  UNL     1     -39.746 -53.751  11.433  1.00  0.00     0.164 HD
HETATM    5  C   UNL     1     -41.290 -54.315  12.693  1.00  0.00     0.090 A 
HETATM    6  C   UNL     1     -42.485 -53.990  13.332  1.00  0.00     0.048 A 
HETATM    7  C   UNL     1     -43.037 -52.696  13.204  1.00  0.00     0.060 A 
ENDROOT
BRANCH   1   8
HETATM    8  N   UNL     1     -42.656 -50.418  12.346  1.00  0.00    -0.322 N 
HETATM    9  C   UNL     1     -42.163 -49.434  13.190  1.00  0.00     0.251 C 
HETATM   10  O   UNL     1     -41.230 -49.617  13.976  1.00  0.00    -0.270 OA
HETATM   11  H   UNL     1     -43.553 -50.289  11.902  1.00  0.00     0.169 HD
BRANCH   9  12
HETATM   12  C   UNL     1     -42.912 -48.075  13.206  1.00  0.00     0.209 C 
HETATM   13  C   UNL     1     -42.977 -47.422  14.582  1.00  0.00     0.050 C 
BRANCH  12  14
HETATM   14  O   UNL     1     -42.390 -47.096  12.299  1.00  0.00    -0.377 OA
BRANCH  14  15
HETATM   15  C   UNL     1     -41.442 -46.216  12.920  1.00  0.00     0.172 C 
BRANCH  15  16
HETATM   16  C   UNL     1     -40.026 -46.498  12.394  1.00  0.00     0.052 C 
BRANCH  16  17
HETATM   17  C   UNL     1     -39.914 -46.223  10.918  1.00  0.00    -0.035 C 
HETATM   18  C   UNL     1     -40.130 -45.027  10.350  1.00  0.00     0.007 C 
ENDBRANCH  16  17
ENDBRANCH  15  16
ENDBRANCH  14  15
ENDBRANCH  12  14
ENDBRANCH   9  12
ENDBRANCH   1   8
BRANCH   7  19
HETATM   19  N   UNL     1     -44.296 -52.410  13.744  1.00  0.00    -0.379 N 
HETATM   20  C   UNL     1     -45.513 -52.767  12.991  1.00  0.00     0.123 C 
HETATM   21  C   UNL     1     -46.525 -51.632  13.137  1.00  0.00     0.020 C 
HETATM   22  C   UNL     1     -46.810 -51.319  14.602  1.00  0.00     0.003 C 
HETATM   23  C   UNL     1     -45.512 -51.109  15.388  1.00  0.00     0.020 C 
HETATM   24  C   UNL     1     -44.549 -52.289  15.189  1.00  0.00     0.123 C 
ENDBRANCH   7  19
TORSDOF 7
ENDMDL
MODEL 6
REMARK VINA RESULT:      -5.6      2.479      4.315
REMARK  7 active torsions:
REMARK  status: ('A' for Active; 'I' for Inactive)
REMARK    1  A    between atoms: C_2  and  O_3 
REMARK    2  A    between atoms: C_2  and  C_8 
REMARK    3  A    between atoms: O_3  and  C_4 
REMARK    4  A    between atoms: C_4  and  C_5 
REMARK    5  A    between atoms: C_5  and  C_6 
REMARK       I    between atoms: C_8  and  N_10 
REMARK    6  A    between atoms: N_10  and  C_11 
REMARK    7  A    between atoms: C_17  and  N_18 
ROOT
HETATM    1  C   UNL     1     -41.177 -51.596  12.197  1.00  0.00     0.077 A 
HETATM    2  C   UNL     1     -42.246 -52.472  11.961  1.00  0.00     0.119 A 
HETATM    3  N   UNL     1     -42.379 -53.698  12.513  1.00  0.00    -0.373 N 
ATOM      4  HN  UNL     1     -43.188 -54.291  12.333  1.00  0.00     0.164 HD
HETATM    5  C   UNL     1     -41.375 -54.081  13.312  1.00  0.00     0.090 A 
HETATM    6  C   UNL     1     -40.284 -53.278  13.639  1.00  0.00     0.048 A 
HETATM    7  C   UNL     1     -40.174 -51.970  13.115  1.00  0.00     0.060 A 
ENDROOT
BRANCH   1   8
HETATM    8  N   UNL     1     -41.139 -50.344  11.537  1.00  0.00    -0.322 N 
HETATM    9  C   UNL     1     -41.698 -49.210  12.107  1.00  0.00     0.251 C 
HETATM   10  O   UNL     1     -42.094 -49.159  13.274  1.00  0.00    -0.270 OA
HETATM   11  H   UNL     1     -41.050 -50.404  10.533  1.00  0.00     0.169 HD
BRANCH   9  12
HETATM   12  C   UNL     1     -41.927 -47.989  11.176  1.00  0.00     0.209 C 
HETATM   13  C   UNL     1     -40.768 -46.999  11.160  1.00  0.00     0.050 C 
BRANCH  12  14
HETATM   14  O   UNL     1     -42.214 -48.324   9.813  1.00  0.00    -0.377 OA
BRANCH  14  15
HETATM   15  C   UNL     1     -43.172 -47.438   9.216  1.00  0.00     0.172 C 
BRANCH  15  16
HETATM   16  C   UNL     1     -44.504 -47.498   9.979  1.00  0.00     0.052 C 
BRANCH  16  17
HETATM   17  C   UNL     1     -45.684 -47.370   9.053  1.00  0.00    -0.035 C 
HETATM   18  C   UNL     1     -46.632 -48.306   8.897  1.00  0.00     0.007 C 
ENDBRANCH  16  17
ENDBRANCH  15  16
ENDBRANCH  14  15
ENDBRANCH  12  14
ENDBRANCH   9  12
ENDBRANCH   1   8
BRANCH   7  19
HETATM   19  N   UNL     1     -39.142 -51.125  13.541  1.00  0.00    -0.379 N 
HETATM   20  C   UNL     1     -38.832 -51.018  14.978  1.00  0.00     0.123 C 
HETATM   21  C   UNL     1     -38.539 -49.554  15.304  1.00  0.00     0.020 C 
HETATM   22  C   UNL     1     -37.430 -48.993  14.419  1.00  0.00     0.003 C 
HETATM   23  C   UNL     1     -37.712 -49.264  12.938  1.00  0.00     0.020 C 
HETATM   24  C   UNL     1     -37.998 -50.753  12.694  1.00  0.00     0.123 C 
ENDBRANCH   7  19
TORSDOF 7
ENDMDL
MODEL 7
REMARK VINA RESULT:      -5.5      2.722      4.041
REMARK  7 active torsions:
REMARK  status: ('A' for Active; 'I' for Inactive)
REMARK    1  A    between atoms: C_2  and  O_3 
REMARK    2  A    between atoms: C_2  and  C_8 
REMARK    3  A    between atoms: O_3  and  C_4 
REMARK    4  A    between atoms: C_4  and  C_5 
REMARK    5  A    between atoms: C_5  and  C_6 
REMARK       I    between atoms: C_8  and  N_10 
REMARK    6  A    between atoms: N_10  and  C_11 
REMARK    7  A    between atoms: C_17  and  N_18 
ROOT
HETATM    1  C   UNL     1     -42.067 -52.902  14.577  1.00  0.00     0.077 A 
HETATM    2  C   UNL     1     -40.869 -53.560  14.891  1.00  0.00     0.119 A 
HETATM    3  N   UNL     1     -40.784 -54.773  15.478  1.00  0.00    -0.373 N 
ATOM      4  HN  UNL     1     -39.889 -55.225  15.664  1.00  0.00     0.164 HD
HETATM    5  C   UNL     1     -41.953 -55.340  15.800  1.00  0.00     0.090 A 
HETATM    6  C   UNL     1     -43.198 -54.789  15.505  1.00  0.00     0.048 A 
HETATM    7  C   UNL     1     -43.293 -53.550  14.832  1.00  0.00     0.060 A 
ENDROOT
BRANCH   1   8
HETATM    8  N   UNL     1     -42.025 -51.616  13.982  1.00  0.00    -0.322 N 
HETATM    9  C   UNL     1     -41.843 -51.459  12.616  1.00  0.00     0.251 C 
HETATM   10  O   UNL     1     -41.888 -52.392  11.811  1.00  0.00    -0.270 OA
HETATM   11  H   UNL     1     -41.751 -50.875  14.609  1.00  0.00     0.169 HD
BRANCH   9  12
HETATM   12  C   UNL     1     -41.455 -50.042  12.113  1.00  0.00     0.209 C 
HETATM   13  C   UNL     1     -41.152 -49.052  13.231  1.00  0.00     0.050 C 
BRANCH  12  14
HETATM   14  O   UNL     1     -40.341 -50.014  11.212  1.00  0.00    -0.377 OA
BRANCH  14  15
HETATM   15  C   UNL     1     -39.220 -49.292  11.740  1.00  0.00     0.172 C 
BRANCH  15  16
HETATM   16  C   UNL     1     -37.914 -50.048  11.452  1.00  0.00     0.052 C 
BRANCH  16  17
HETATM   17  C   UNL     1     -37.401 -50.762  12.675  1.00  0.00    -0.035 C 
HETATM   18  C   UNL     1     -38.176 -51.414  13.554  1.00  0.00     0.007 C 
ENDBRANCH  16  17
ENDBRANCH  15  16
ENDBRANCH  14  15
ENDBRANCH  12  14
ENDBRANCH   9  12
ENDBRANCH   1   8
BRANCH   7  19
HETATM   19  N   UNL     1     -44.541 -53.060  14.430  1.00  0.00    -0.379 N 
HETATM   20  C   UNL     1     -45.142 -53.536  13.170  1.00  0.00     0.123 C 
HETATM   21  C   UNL     1     -45.791 -52.349  12.462  1.00  0.00     0.020 C 
HETATM   22  C   UNL     1     -46.798 -51.640  13.364  1.00  0.00     0.003 C 
HETATM   23  C   UNL     1     -46.182 -51.301  14.725  1.00  0.00     0.020 C 
HETATM   24  C   UNL     1     -45.550 -52.544  15.369  1.00  0.00     0.123 C 
ENDBRANCH   7  19
TORSDOF 7
ENDMDL
MODEL 8
REMARK VINA RESULT:      -5.5      2.702      4.941
REMARK  7 active torsions:
REMARK  status: ('A' for Active; 'I' for Inactive)
REMARK    1  A    between atoms: C_2  and  O_3 
REMARK    2  A    between atoms: C_2  and  C_8 
REMARK    3  A    between atoms: O_3  and  C_4 
REMARK    4  A    between atoms: C_4  and  C_5 
REMARK    5  A    between atoms: C_5  and  C_6 
REMARK       I    between atoms: C_8  and  N_10 
REMARK    6  A    between atoms: N_10  and  C_11 
REMARK    7  A    between atoms: C_17  and  N_18 
ROOT
HETATM    1  C   UNL     1     -41.343 -51.729  12.162  1.00  0.00     0.077 A 
HETATM    2  C   UNL     1     -42.356 -52.695  12.078  1.00  0.00     0.119 A 
HETATM    3  N   UNL     1     -42.358 -53.874  12.737  1.00  0.00    -0.373 N 
ATOM      4  HN  UNL     1     -43.131 -54.536  12.665  1.00  0.00     0.164 HD
HETATM    5  C   UNL     1     -41.277 -54.114  13.489  1.00  0.00     0.090 A 
HETATM    6  C   UNL     1     -40.231 -53.212  13.668  1.00  0.00     0.048 A 
HETATM    7  C   UNL     1     -40.256 -51.951  13.032  1.00  0.00     0.060 A 
ENDROOT
BRANCH   1   8
HETATM    8  N   UNL     1     -41.444 -50.540  11.400  1.00  0.00    -0.322 N 
HETATM    9  C   UNL     1     -42.009 -49.389  11.929  1.00  0.00     0.251 C 
HETATM   10  O   UNL     1     -42.290 -49.255  13.123  1.00  0.00    -0.270 OA
HETATM   11  H   UNL     1     -41.452 -50.683  10.401  1.00  0.00     0.169 HD
BRANCH   9  12
HETATM   12  C   UNL     1     -42.400 -48.268  10.929  1.00  0.00     0.209 C 
HETATM   13  C   UNL     1     -43.383 -47.250  11.496  1.00  0.00     0.050 C 
BRANCH  12  14
HETATM   14  O   UNL     1     -41.292 -47.533  10.395  1.00  0.00    -0.377 OA
BRANCH  14  15
HETATM   15  C   UNL     1     -41.359 -46.133  10.699  1.00  0.00     0.172 C 
BRANCH  15  16
HETATM   16  C   UNL     1     -39.968 -45.600  11.074  1.00  0.00     0.052 C 
BRANCH  16  17
HETATM   17  C   UNL     1     -39.661 -45.817  12.532  1.00  0.00    -0.035 C 
HETATM   18  C   UNL     1     -40.588 -45.925  13.495  1.00  0.00     0.007 C 
ENDBRANCH  16  17
ENDBRANCH  15  16
ENDBRANCH  14  15
ENDBRANCH  12  14
ENDBRANCH   9  12
ENDBRANCH   1   8
BRANCH   7  19
HETATM   19  N   UNL     1     -39.265 -51.001  13.311  1.00  0.00    -0.379 N 
HETATM   20  C   UNL     1     -39.071 -50.533  14.695  1.00  0.00     0.123 C 
HETATM   21  C   UNL     1     -38.812 -49.027  14.667  1.00  0.00     0.020 C 
HETATM   22  C   UNL     1     -37.639 -48.677  13.757  1.00  0.00     0.003 C 
HETATM   23  C   UNL     1     -37.800 -49.314  12.373  1.00  0.00     0.020 C 
HETATM   24  C   UNL     1     -38.059 -50.824  12.488  1.00  0.00     0.123 C 
ENDBRANCH   7  19
TORSDOF 7
ENDMDL
MODEL 9
REMARK VINA RESULT:      -5.4      2.574      5.020
REMARK  7 active torsions:
REMARK  status: ('A' for Active; 'I' for Inactive)
REMARK    1  A    between atoms: C_2  and  O_3 
REMARK    2  A    between atoms: C_2  and  C_8 
REMARK    3  A    between atoms: O_3  and  C_4 
REMARK    4  A    between atoms: C_4  and  C_5 
REMARK    5  A    between atoms: C_5  and  C_6 
REMARK       I    between atoms: C_8  and  N_10 
REMARK    6  A    between atoms: N_10  and  C_11 
REMARK    7  A    between atoms: C_17  and  N_18 
ROOT
HETATM    1  C   UNL     1     -43.854 -52.923  12.935  1.00  0.00     0.077 A 
HETATM    2  C   UNL     1     -45.243 -52.812  12.779  1.00  0.00     0.119 A 
HETATM    3  N   UNL     1     -46.151 -53.659  13.308  1.00  0.00    -0.373 N 
ATOM      4  HN  UNL     1     -47.155 -53.524  13.191  1.00  0.00     0.164 HD
HETATM    5  C   UNL     1     -45.644 -54.690  13.997  1.00  0.00     0.090 A 
HETATM    6  C   UNL     1     -44.285 -54.877  14.238  1.00  0.00     0.048 A 
HETATM    7  C   UNL     1     -43.335 -53.956  13.742  1.00  0.00     0.060 A 
ENDROOT
BRANCH   1   8
HETATM    8  N   UNL     1     -43.001 -51.982  12.307  1.00  0.00    -0.322 N 
HETATM    9  C   UNL     1     -42.627 -50.809  12.945  1.00  0.00     0.251 C 
HETATM   10  O   UNL     1     -42.845 -50.583  14.139  1.00  0.00    -0.270 OA
HETATM   11  H   UNL     1     -43.010 -52.018  11.299  1.00  0.00     0.169 HD
BRANCH   9  12
HETATM   12  C   UNL     1     -42.001 -49.693  12.066  1.00  0.00     0.209 C 
HETATM   13  C   UNL     1     -42.175 -48.289  12.634  1.00  0.00     0.050 C 
BRANCH  12  14
HETATM   14  O   UNL     1     -40.607 -49.866  11.787  1.00  0.00    -0.377 OA
BRANCH  14  15
HETATM   15  C   UNL     1     -39.798 -48.814  12.333  1.00  0.00     0.172 C 
BRANCH  15  16
HETATM   16  C   UNL     1     -38.531 -49.395  12.981  1.00  0.00     0.052 C 
BRANCH  16  17
HETATM   17  C   UNL     1     -37.831 -50.364  12.066  1.00  0.00    -0.035 C 
HETATM   18  C   UNL     1     -37.195 -50.018  10.937  1.00  0.00     0.007 C 
ENDBRANCH  16  17
ENDBRANCH  15  16
ENDBRANCH  14  15
ENDBRANCH  12  14
ENDBRANCH   9  12
ENDBRANCH   1   8
BRANCH   7  19
HETATM   19  N   UNL     1     -41.984 -54.080  14.089  1.00  0.00    -0.379 N 
HETATM   20  C   UNL     1     -41.616 -54.686  15.382  1.00  0.00     0.123 C 
HETATM   21  C   UNL     1     -40.453 -53.893  15.976  1.00  0.00     0.020 C 
HETATM   22  C   UNL     1     -39.277 -53.810  15.007  1.00  0.00     0.003 C 
HETATM   23  C   UNL     1     -39.729 -53.326  13.626  1.00  0.00     0.020 C 
HETATM   24  C   UNL     1     -40.899 -54.170  13.100  1.00  0.00     0.123 C 
ENDBRANCH   7  19
TORSDOF 7
ENDMDL
