MODEL 1
REMARK VINA RESULT:      -5.7      0.000      0.000
REMARK  5 active torsions:
REMARK  status: ('A' for Active; 'I' for Inactive)
REMARK    1  A    between atoms: C_2  and  C_3 
REMARK    2  A    between atoms: C_2  and  N_10 
REMARK    3  A    between atoms: C_3  and  N_4 
REMARK       I    between atoms: N_10  and  C_11 
REMARK       I    between atoms: C_11  and  N_13 
REMARK    4  A    between atoms: N_13  and  C_14 
REMARK    5  A    between atoms: C_14  and  C_16 
ROOT
HETATM    1  N   UNL     1     -42.052 -47.777  10.060  1.00  0.00    -0.337 N 
HETATM    2  C   UNL     1     -41.823 -48.430  11.240  1.00  0.00     0.316 C 
HETATM    3  O   UNL     1     -42.119 -47.961  12.331  1.00  0.00    -0.247 OA
HETATM    4  N   UNL     1     -41.243 -49.654  11.063  1.00  0.00    -0.336 N 
HETATM    5  H   UNL     1     -41.862 -48.266   9.198  1.00  0.00     0.164 HD
HETATM    6  H   UNL     1     -40.942 -49.951  10.146  1.00  0.00     0.164 HD
ENDROOT
BRANCH   1   7
HETATM    7  C   UNL     1     -42.750 -46.488  10.022  1.00  0.00     0.100 C 
HETATM    8  C   UNL     1     -41.738 -45.362  10.217  1.00  0.00     0.034 C 
BRANCH   7   9
HETATM    9  C   UNL     1     -43.560 -46.328   8.717  1.00  0.00     0.153 C 
BRANCH   9  10
HETATM   10  N   UNL     1     -44.732 -47.176   8.622  1.00  0.00    -0.350 N 
HETATM   11  C   UNL     1     -45.880 -47.061   9.355  1.00  0.00     0.108 A 
HETATM   12  C   UNL     1     -46.715 -48.043   8.869  1.00  0.00     0.106 A 
HETATM   13  N   UNL     1     -46.101 -48.747   7.868  1.00  0.00    -0.361 N 
HETATM   14  C   UNL     1     -44.918 -48.192   7.727  1.00  0.00     0.182 A 
ATOM     15  HN  UNL     1     -46.481 -49.534   7.343  1.00  0.00     0.166 HD
ENDBRANCH   9  10
ENDBRANCH   7   9
ENDBRANCH   1   7
BRANCH   4  16
HETATM   16  C   UNL     1     -40.877 -50.519  12.184  1.00  0.00     0.111 C 
HETATM   17  C   UNL     1     -41.156 -51.976  11.809  1.00  0.00     0.035 C 
BRANCH  16  18
HETATM   18  C   UNL     1     -39.406 -50.331  12.599  1.00  0.00     0.143 C 
HETATM   19  C   UNL     1     -38.587 -49.405  11.709  1.00  0.00     0.036 C 
HETATM   20  C   UNL     1     -37.186 -49.986  11.745  1.00  0.00     0.029 C 
HETATM   21  C   UNL     1     -37.299 -51.215  12.621  1.00  0.00     0.168 C 
HETATM   22  O   UNL     1     -38.685 -51.580  12.595  1.00  0.00    -0.384 OA
ENDBRANCH  16  18
ENDBRANCH   4  16
TORSDOF 5
ENDMDL
MODEL 2
REMARK VINA RESULT:      -5.7      1.937      2.599
REMARK  5 active torsions:
REMARK  status: ('A' for Active; 'I' for Inactive)
REMARK    1  A    between atoms: C_2  and  C_3 
REMARK    2  A    between atoms: C_2  and  N_10 
REMARK    3  A    between atoms: C_3  and  N_4 
REMARK       I    between atoms: N_10  and  C_11 
REMARK       I    between atoms: C_11  and  N_13 
REMARK    4  A    between atoms: N_13  and  C_14 
REMARK    5  A    between atoms: C_14  and  C_16 
ROOT
HETATM    1  N   UNL     1     -41.912 -48.965  10.921  1.00  0.00    -0.337 N 
HETATM    2  C   UNL     1     -42.056 -49.735  12.042  1.00  0.00     0.316 C 
HETATM    3  O   UNL     1     -42.114 -49.265  13.171  1.00  0.00    -0.247 OA
HETATM    4  N   UNL     1     -42.140 -51.068  11.760  1.00  0.00    -0.336 N 
HETATM    5  H   UNL     1     -41.962 -49.417  10.021  1.00  0.00     0.164 HD
HETATM    6  H   UNL     1     -41.999 -51.403  10.818  1.00  0.00     0.164 HD
ENDROOT
BRANCH   1   7
HETATM    7  C   UNL     1     -41.894 -47.500  10.995  1.00  0.00     0.100 C 
HETATM    8  C   UNL     1     -40.495 -47.032  11.385  1.00  0.00     0.034 C 
BRANCH   7   9
HETATM    9  C   UNL     1     -42.377 -46.866   9.672  1.00  0.00     0.153 C 
BRANCH   9  10
HETATM   10  N   UNL     1     -43.633 -47.390   9.170  1.00  0.00    -0.350 N 
HETATM   11  C   UNL     1     -44.838 -47.367   9.815  1.00  0.00     0.108 A 
HETATM   12  C   UNL     1     -45.731 -47.920   8.923  1.00  0.00     0.106 A 
HETATM   13  N   UNL     1     -45.097 -48.278   7.764  1.00  0.00    -0.361 N 
HETATM   14  C   UNL     1     -43.840 -47.931   7.933  1.00  0.00     0.182 A 
ATOM     15  HN  UNL     1     -45.511 -48.721   6.944  1.00  0.00     0.166 HD
ENDBRANCH   9  10
ENDBRANCH   7   9
ENDBRANCH   1   7
BRANCH   4  16
HETATM   16  C   UNL     1     -42.267 -52.085  12.804  1.00  0.00     0.111 C 
HETATM   17  C   UNL     1     -43.450 -52.998  12.476  1.00  0.00     0.035 C 
BRANCH  16  18
HETATM   18  C   UNL     1     -40.973 -52.902  12.972  1.00  0.00     0.143 C 
HETATM   19  C   UNL     1     -41.127 -54.235  13.693  1.00  0.00     0.036 C 
HETATM   20  C   UNL     1     -39.819 -54.415  14.440  1.00  0.00     0.029 C 
HETATM   21  C   UNL     1     -39.018 -53.170  14.124  1.00  0.00     0.168 C 
HETATM   22  O   UNL     1     -39.980 -52.183  13.732  1.00  0.00    -0.384 OA
ENDBRANCH  16  18
ENDBRANCH   4  16
TORSDOF 5
ENDMDL
MODEL 3
REMARK VINA RESULT:      -5.6      3.034      4.134
REMARK  5 active torsions:
REMARK  status: ('A' for Active; 'I' for Inactive)
REMARK    1  A    between atoms: C_2  and  C_3 
REMARK    2  A    between atoms: C_2  and  N_10 
REMARK    3  A    between atoms: C_3  and  N_4 
REMARK       I    between atoms: N_10  and  C_11 
REMARK       I    between atoms: C_11  and  N_13 
REMARK    4  A    between atoms: N_13  and  C_14 
REMARK    5  A    between atoms: C_14  and  C_16 
ROOT
HETATM    1  N   UNL     1     -43.229 -48.929  11.619  1.00  0.00    -0.337 N 
HETATM    2  C   UNL     1     -43.386 -49.554  12.826  1.00  0.00     0.316 C 
HETATM    3  O   UNL     1     -42.844 -49.166  13.852  1.00  0.00    -0.247 OA
HETATM    4  N   UNL     1     -44.214 -50.638  12.756  1.00  0.00    -0.336 N 
HETATM    5  H   UNL     1     -43.779 -49.255  10.838  1.00  0.00     0.164 HD
HETATM    6  H   UNL     1     -44.563 -50.961  11.866  1.00  0.00     0.164 HD
ENDROOT
BRANCH   1   7
HETATM    7  C   UNL     1     -42.453 -47.692  11.492  1.00  0.00     0.100 C 
HETATM    8  C   UNL     1     -41.037 -48.030  11.034  1.00  0.00     0.034 C 
BRANCH   7   9
HETATM    9  C   UNL     1     -43.151 -46.687  10.548  1.00  0.00     0.153 C 
BRANCH   9  10
HETATM   10  N   UNL     1     -43.979 -47.292   9.523  1.00  0.00    -0.350 N 
HETATM   11  C   UNL     1     -45.327 -47.511   9.593  1.00  0.00     0.108 A 
HETATM   12  C   UNL     1     -45.666 -48.043   8.368  1.00  0.00     0.106 A 
HETATM   13  N   UNL     1     -44.561 -48.155   7.567  1.00  0.00    -0.361 N 
HETATM   14  C   UNL     1     -43.565 -47.678   8.280  1.00  0.00     0.182 A 
ATOM     15  HN  UNL     1     -44.520 -48.529   6.620  1.00  0.00     0.166 HD
ENDBRANCH   9  10
ENDBRANCH   7   9
ENDBRANCH   1   7
BRANCH   4  16
HETATM   16  C   UNL     1     -44.504 -51.478  13.918  1.00  0.00     0.111 C 
HETATM   17  C   UNL     1     -46.012 -51.477  14.177  1.00  0.00     0.035 C 
BRANCH  16  18
HETATM   18  C   UNL     1     -43.981 -52.915  13.733  1.00  0.00     0.143 C 
HETATM   19  C   UNL     1     -44.614 -53.965  14.637  1.00  0.00     0.036 C 
HETATM   20  C   UNL     1     -43.500 -54.962  14.897  1.00  0.00     0.029 C 
HETATM   21  C   UNL     1     -42.302 -54.406  14.156  1.00  0.00     0.168 C 
HETATM   22  O   UNL     1     -42.566 -53.007  13.994  1.00  0.00    -0.384 OA
ENDBRANCH  16  18
ENDBRANCH   4  16
TORSDOF 5
ENDMDL
MODEL 4
REMARK VINA RESULT:      -5.5      2.407      6.655
REMARK  5 active torsions:
REMARK  status: ('A' for Active; 'I' for Inactive)
REMARK    1  A    between atoms: C_2  and  C_3 
REMARK    2  A    between atoms: C_2  and  N_10 
REMARK    3  A    between atoms: C_3  and  N_4 
REMARK       I    between atoms: N_10  and  C_11 
REMARK       I    between atoms: C_11  and  N_13 
REMARK    4  A    between atoms: N_13  and  C_14 
REMARK    5  A    between atoms: C_14  and  C_16 
ROOT
HETATM    1  N   UNL     1     -39.595 -49.608  10.952  1.00  0.00    -0.337 N 
HETATM    2  C   UNL     1     -39.990 -48.425  11.513  1.00  0.00     0.316 C 
HETATM    3  O   UNL     1     -39.821 -48.159  12.696  1.00  0.00    -0.247 OA
HETATM    4  N   UNL     1     -40.577 -47.583  10.612  1.00  0.00    -0.336 N 
HETATM    5  H   UNL     1     -39.688 -49.718   9.953  1.00  0.00     0.164 HD
HETATM    6  H   UNL     1     -40.767 -47.891   9.670  1.00  0.00     0.164 HD
ENDROOT
BRANCH   1   7
HETATM    7  C   UNL     1     -38.863 -50.616  11.726  1.00  0.00     0.100 C 
HETATM    8  C   UNL     1     -37.466 -50.089  12.046  1.00  0.00     0.034 C 
BRANCH   7   9
HETATM    9  C   UNL     1     -39.642 -51.023  12.996  1.00  0.00     0.153 C 
BRANCH   9  10
HETATM   10  N   UNL     1     -40.466 -52.206  12.849  1.00  0.00    -0.350 N 
HETATM   11  C   UNL     1     -40.317 -53.389  13.520  1.00  0.00     0.108 A 
HETATM   12  C   UNL     1     -41.362 -54.177  13.092  1.00  0.00     0.106 A 
HETATM   13  N   UNL     1     -42.133 -53.505  12.181  1.00  0.00    -0.361 N 
HETATM   14  C   UNL     1     -41.583 -52.316  12.069  1.00  0.00     0.182 A 
ATOM     15  HN  UNL     1     -42.958 -53.852  11.694  1.00  0.00     0.166 HD
ENDBRANCH   9  10
ENDBRANCH   7   9
ENDBRANCH   1   7
BRANCH   4  16
HETATM   16  C   UNL     1     -41.105 -46.273  10.992  1.00  0.00     0.111 C 
HETATM   17  C   UNL     1     -40.244 -45.179  10.357  1.00  0.00     0.035 C 
BRANCH  16  18
HETATM   18  C   UNL     1     -42.583 -46.110  10.588  1.00  0.00     0.143 C 
HETATM   19  C   UNL     1     -43.427 -47.376  10.668  1.00  0.00     0.036 C 
HETATM   20  C   UNL     1     -44.435 -47.231   9.544  1.00  0.00     0.029 C 
HETATM   21  C   UNL     1     -44.087 -45.916   8.879  1.00  0.00     0.168 C 
HETATM   22  O   UNL     1     -42.719 -45.661   9.225  1.00  0.00    -0.384 OA
ENDBRANCH  16  18
ENDBRANCH   4  16
TORSDOF 5
ENDMDL
MODEL 5
REMARK VINA RESULT:      -5.5      3.569      5.461
REMARK  5 active torsions:
REMARK  status: ('A' for Active; 'I' for Inactive)
REMARK    1  A    between atoms: C_2  and  C_3 
REMARK    2  A    between atoms: C_2  and  N_10 
REMARK    3  A    between atoms: C_3  and  N_4 
REMARK       I    between atoms: N_10  and  C_11 
REMARK       I    between atoms: C_11  and  N_13 
REMARK    4  A    between atoms: N_13  and  C_14 
REMARK    5  A    between atoms: C_14  and  C_16 
ROOT
HETATM    1  N   UNL     1     -42.149 -50.642  12.010  1.00  0.00    -0.337 N 
HETATM    2  C   UNL     1     -43.193 -50.615  12.894  1.00  0.00     0.316 C 
HETATM    3  O   UNL     1     -43.226 -49.870  13.863  1.00  0.00    -0.247 OA
HETATM    4  N   UNL     1     -44.184 -51.496  12.566  1.00  0.00    -0.336 N 
HETATM    5  H   UNL     1     -42.234 -51.219  11.187  1.00  0.00     0.164 HD
HETATM    6  H   UNL     1     -44.062 -52.146  11.804  1.00  0.00     0.164 HD
ENDROOT
BRANCH   1   7
HETATM    7  C   UNL     1     -41.022 -49.710  12.127  1.00  0.00     0.100 C 
HETATM    8  C   UNL     1     -39.744 -50.498  12.405  1.00  0.00     0.034 C 
BRANCH   7   9
HETATM    9  C   UNL     1     -40.900 -48.818  10.873  1.00  0.00     0.153 C 
BRANCH   9  10
HETATM   10  N   UNL     1     -42.011 -47.911  10.663  1.00  0.00    -0.350 N 
HETATM   11  C   UNL     1     -42.746 -47.779   9.517  1.00  0.00     0.108 A 
HETATM   12  C   UNL     1     -43.717 -46.849   9.821  1.00  0.00     0.106 A 
HETATM   13  N   UNL     1     -43.584 -46.416  11.112  1.00  0.00    -0.361 N 
HETATM   14  C   UNL     1     -42.563 -47.085  11.601  1.00  0.00     0.182 A 
ATOM     15  HN  UNL     1     -44.155 -45.722  11.594  1.00  0.00     0.166 HD
ENDBRANCH   9  10
ENDBRANCH   7   9
ENDBRANCH   1   7
BRANCH   4  16
HETATM   16  C   UNL     1     -45.386 -51.663  13.384  1.00  0.00     0.111 C 
HETATM   17  C   UNL     1     -46.623 -51.453  12.509  1.00  0.00     0.035 C 
BRANCH  16  18
HETATM   18  C   UNL     1     -45.426 -53.040  14.071  1.00  0.00     0.143 C 
HETATM   19  C   UNL     1     -44.151 -53.449  14.797  1.00  0.00     0.036 C 
HETATM   20  C   UNL     1     -44.091 -54.957  14.639  1.00  0.00     0.029 C 
HETATM   21  C   UNL     1     -45.311 -55.308  13.813  1.00  0.00     0.168 C 
HETATM   22  O   UNL     1     -45.670 -54.103  13.126  1.00  0.00    -0.384 OA
ENDBRANCH  16  18
ENDBRANCH   4  16
TORSDOF 5
ENDMDL
MODEL 6
REMARK VINA RESULT:      -5.5      2.800      4.373
REMARK  5 active torsions:
REMARK  status: ('A' for Active; 'I' for Inactive)
REMARK    1  A    between atoms: C_2  and  C_3 
REMARK    2  A    between atoms: C_2  and  N_10 
REMARK    3  A    between atoms: C_3  and  N_4 
REMARK       I    between atoms: N_10  and  C_11 
REMARK       I    between atoms: C_11  and  N_13 
REMARK    4  A    between atoms: N_13  and  C_14 
REMARK    5  A    between atoms: C_14  and  C_16 
ROOT
HETATM    1  N   UNL     1     -41.378 -50.161  11.171  1.00  0.00    -0.337 N 
HETATM    2  C   UNL     1     -41.672 -51.162  12.057  1.00  0.00     0.316 C 
HETATM    3  O   UNL     1     -42.121 -50.951  13.175  1.00  0.00    -0.247 OA
HETATM    4  N   UNL     1     -41.420 -52.405  11.551  1.00  0.00    -0.336 N 
HETATM    5  H   UNL     1     -41.095 -50.417  10.237  1.00  0.00     0.164 HD
HETATM    6  H   UNL     1     -40.968 -52.513  10.654  1.00  0.00     0.164 HD
ENDROOT
BRANCH   1   7
HETATM    7  C   UNL     1     -41.660 -48.756  11.482  1.00  0.00     0.100 C 
HETATM    8  C   UNL     1     -40.594 -48.228  12.440  1.00  0.00     0.034 C 
BRANCH   7   9
HETATM    9  C   UNL     1     -41.764 -47.908  10.196  1.00  0.00     0.153 C 
BRANCH   9  10
HETATM   10  N   UNL     1     -43.108 -47.766   9.670  1.00  0.00    -0.350 N 
HETATM   11  C   UNL     1     -44.250 -47.581  10.397  1.00  0.00     0.108 A 
HETATM   12  C   UNL     1     -45.252 -47.443   9.462  1.00  0.00     0.106 A 
HETATM   13  N   UNL     1     -44.745 -47.544   8.194  1.00  0.00    -0.361 N 
HETATM   14  C   UNL     1     -43.452 -47.719   8.348  1.00  0.00     0.182 A 
ATOM     15  HN  UNL     1     -45.262 -47.495   7.316  1.00  0.00     0.166 HD
ENDBRANCH   9  10
ENDBRANCH   7   9
ENDBRANCH   1   7
BRANCH   4  16
HETATM   16  C   UNL     1     -41.630 -53.626  12.329  1.00  0.00     0.111 C 
HETATM   17  C   UNL     1     -40.451 -53.824  13.284  1.00  0.00     0.035 C 
BRANCH  16  18
HETATM   18  C   UNL     1     -42.962 -53.592  13.102  1.00  0.00     0.143 C 
HETATM   19  C   UNL     1     -43.000 -54.419  14.381  1.00  0.00     0.036 C 
HETATM   20  C   UNL     1     -44.433 -54.906  14.475  1.00  0.00     0.029 C 
HETATM   21  C   UNL     1     -45.111 -54.356  13.238  1.00  0.00     0.168 C 
HETATM   22  O   UNL     1     -44.055 -54.094  12.306  1.00  0.00    -0.384 OA
ENDBRANCH  16  18
ENDBRANCH   4  16
TORSDOF 5
ENDMDL
MODEL 7
REMARK VINA RESULT:      -5.3      3.101      6.997
REMARK  5 active torsions:
REMARK  status: ('A' for Active; 'I' for Inactive)
REMARK    1  A    between atoms: C_2  and  C_3 
REMARK    2  A    between atoms: C_2  and  N_10 
REMARK    3  A    between atoms: C_3  and  N_4 
REMARK       I    between atoms: N_10  and  C_11 
REMARK       I    between atoms: C_11  and  N_13 
REMARK    4  A    between atoms: N_13  and  C_14 
REMARK    5  A    between atoms: C_14  and  C_16 
ROOT
HETATM    1  N   UNL     1     -43.886 -50.966  12.966  1.00  0.00    -0.337 N 
HETATM    2  C   UNL     1     -43.359 -49.704  12.914  1.00  0.00     0.316 C 
HETATM    3  O   UNL     1     -43.285 -48.972  13.892  1.00  0.00    -0.247 OA
HETATM    4  N   UNL     1     -42.922 -49.365  11.665  1.00  0.00    -0.336 N 
HETATM    5  H   UNL     1     -43.831 -51.541  12.139  1.00  0.00     0.164 HD
HETATM    6  H   UNL     1     -43.089 -49.977  10.880  1.00  0.00     0.164 HD
ENDROOT
BRANCH   1   7
HETATM    7  C   UNL     1     -44.330 -51.559  14.232  1.00  0.00     0.100 C 
HETATM    8  C   UNL     1     -45.842 -51.396  14.361  1.00  0.00     0.034 C 
BRANCH   7   9
HETATM    9  C   UNL     1     -43.886 -53.034  14.345  1.00  0.00     0.153 C 
BRANCH   9  10
HETATM   10  N   UNL     1     -42.469 -53.260  14.140  1.00  0.00    -0.350 N 
HETATM   11  C   UNL     1     -41.448 -52.750  14.892  1.00  0.00     0.108 A 
HETATM   12  C   UNL     1     -40.301 -53.290  14.352  1.00  0.00     0.106 A 
HETATM   13  N   UNL     1     -40.603 -54.105  13.295  1.00  0.00    -0.361 N 
HETATM   14  C   UNL     1     -41.914 -54.084  13.202  1.00  0.00     0.182 A 
ATOM     15  HN  UNL     1     -39.950 -54.619  12.704  1.00  0.00     0.166 HD
ENDBRANCH   9  10
ENDBRANCH   7   9
ENDBRANCH   1   7
BRANCH   4  16
HETATM   16  C   UNL     1     -42.349 -48.053  11.364  1.00  0.00     0.111 C 
HETATM   17  C   UNL     1     -40.842 -48.200  11.146  1.00  0.00     0.035 C 
BRANCH  16  18
HETATM   18  C   UNL     1     -43.020 -47.401  10.141  1.00  0.00     0.143 C 
HETATM   19  C   UNL     1     -44.543 -47.455  10.121  1.00  0.00     0.036 C 
HETATM   20  C   UNL     1     -44.898 -47.564   8.650  1.00  0.00     0.029 C 
HETATM   21  C   UNL     1     -43.566 -47.595   7.931  1.00  0.00     0.168 C 
HETATM   22  O   UNL     1     -42.612 -48.028   8.908  1.00  0.00    -0.384 OA
ENDBRANCH  16  18
ENDBRANCH   4  16
TORSDOF 5
ENDMDL
MODEL 8
REMARK VINA RESULT:      -5.2      3.661      6.942
REMARK  5 active torsions:
REMARK  status: ('A' for Active; 'I' for Inactive)
REMARK    1  A    between atoms: C_2  and  C_3 
REMARK    2  A    between atoms: C_2  and  N_10 
REMARK    3  A    between atoms: C_3  and  N_4 
REMARK       I    between atoms: N_10  and  C_11 
REMARK       I    between atoms: C_11  and  N_13 
REMARK    4  A    between atoms: N_13  and  C_14 
REMARK    5  A    between atoms: C_14  and  C_16 
ROOT
HETATM    1  N   UNL     1     -42.224 -50.143  11.926  1.00  0.00    -0.337 N 
HETATM    2  C   UNL     1     -42.152 -51.503  12.050  1.00  0.00     0.316 C 
HETATM    3  O   UNL     1     -41.226 -52.165  11.600  1.00  0.00    -0.247 OA
HETATM    4  N   UNL     1     -43.211 -52.028  12.734  1.00  0.00    -0.336 N 
HETATM    5  H   UNL     1     -42.971 -49.659  12.401  1.00  0.00     0.164 HD
HETATM    6  H   UNL     1     -43.987 -51.443  13.007  1.00  0.00     0.164 HD
ENDROOT
BRANCH   1   7
HETATM    7  C   UNL     1     -41.142 -49.372  11.305  1.00  0.00     0.100 C 
HETATM    8  C   UNL     1     -41.741 -48.218  10.505  1.00  0.00     0.034 C 
BRANCH   7   9
HETATM    9  C   UNL     1     -40.122 -48.888  12.358  1.00  0.00     0.153 C 
BRANCH   9  10
HETATM   10  N   UNL     1     -38.973 -49.754  12.534  1.00  0.00    -0.350 N 
HETATM   11  C   UNL     1     -38.677 -50.497  13.644  1.00  0.00     0.108 A 
HETATM   12  C   UNL     1     -37.535 -51.193  13.314  1.00  0.00     0.106 A 
HETATM   13  N   UNL     1     -37.134 -50.887  12.042  1.00  0.00    -0.361 N 
HETATM   14  C   UNL     1     -38.027 -50.036  11.589  1.00  0.00     0.182 A 
ATOM     15  HN  UNL     1     -36.316 -51.245  11.549  1.00  0.00     0.166 HD
ENDBRANCH   9  10
ENDBRANCH   7   9
ENDBRANCH   1   7
BRANCH   4  16
HETATM   16  C   UNL     1     -43.362 -53.465  12.963  1.00  0.00     0.111 C 
HETATM   17  C   UNL     1     -42.449 -53.891  14.115  1.00  0.00     0.035 C 
BRANCH  16  18
HETATM   18  C   UNL     1     -44.825 -53.850  13.251  1.00  0.00     0.143 C 
HETATM   19  C   UNL     1     -45.800 -52.684  13.364  1.00  0.00     0.036 C 
HETATM   20  C   UNL     1     -46.822 -53.142  14.388  1.00  0.00     0.029 C 
HETATM   21  C   UNL     1     -46.353 -54.518  14.814  1.00  0.00     0.168 C 
HETATM   22  O   UNL     1     -44.956 -54.562  14.498  1.00  0.00    -0.384 OA
ENDBRANCH  16  18
ENDBRANCH   4  16
TORSDOF 5
ENDMDL
MODEL 9
REMARK VINA RESULT:      -5.1      3.209      5.673
REMARK  5 active torsions:
REMARK  status: ('A' for Active; 'I' for Inactive)
REMARK    1  A    between atoms: C_2  and  C_3 
REMARK    2  A    between atoms: C_2  and  N_10 
REMARK    3  A    between atoms: C_3  and  N_4 
REMARK       I    between atoms: N_10  and  C_11 
REMARK       I    between atoms: C_11  and  N_13 
REMARK    4  A    between atoms: N_13  and  C_14 
REMARK    5  A    between atoms: C_14  and  C_16 
ROOT
HETATM    1  N   UNL     1     -40.636 -51.151  11.577  1.00  0.00    -0.337 N 
HETATM    2  C   UNL     1     -41.644 -51.643  12.360  1.00  0.00     0.316 C 
HETATM    3  O   UNL     1     -41.839 -51.269  13.509  1.00  0.00    -0.247 OA
HETATM    4  N   UNL     1     -42.405 -52.577  11.717  1.00  0.00    -0.336 N 
HETATM    5  H   UNL     1     -40.595 -51.442  10.612  1.00  0.00     0.164 HD
HETATM    6  H   UNL     1     -42.144 -52.908  10.799  1.00  0.00     0.164 HD
ENDROOT
BRANCH   1   7
HETATM    7  C   UNL     1     -39.760 -50.072  12.046  1.00  0.00     0.100 C 
HETATM    8  C   UNL     1     -38.311 -50.550  12.013  1.00  0.00     0.034 C 
BRANCH   7   9
HETATM    9  C   UNL     1     -39.970 -48.782  11.223  1.00  0.00     0.153 C 
BRANCH   9  10
HETATM   10  N   UNL     1     -41.301 -48.213  11.315  1.00  0.00    -0.350 N 
HETATM   11  C   UNL     1     -42.189 -48.053  10.288  1.00  0.00     0.108 A 
HETATM   12  C   UNL     1     -43.323 -47.534  10.873  1.00  0.00     0.106 A 
HETATM   13  N   UNL     1     -43.141 -47.374  12.220  1.00  0.00    -0.361 N 
HETATM   14  C   UNL     1     -41.924 -47.808  12.462  1.00  0.00     0.182 A 
ATOM     15  HN  UNL     1     -43.808 -46.998  12.894  1.00  0.00     0.166 HD
ENDBRANCH   9  10
ENDBRANCH   7   9
ENDBRANCH   1   7
BRANCH   4  16
HETATM   16  C   UNL     1     -43.521 -53.263  12.367  1.00  0.00     0.111 C 
HETATM   17  C   UNL     1     -43.008 -53.994  13.609  1.00  0.00     0.035 C 
BRANCH  16  18
HETATM   18  C   UNL     1     -44.658 -52.291  12.733  1.00  0.00     0.143 C 
HETATM   19  C   UNL     1     -45.030 -52.242  14.210  1.00  0.00     0.036 C 
HETATM   20  C   UNL     1     -46.522 -51.967  14.216  1.00  0.00     0.029 C 
HETATM   21  C   UNL     1     -46.911 -51.906  12.754  1.00  0.00     0.168 C 
HETATM   22  O   UNL     1     -45.886 -52.624  12.054  1.00  0.00    -0.384 OA
ENDBRANCH  16  18
ENDBRANCH   4  16
TORSDOF 5
ENDMDL
