MODEL 1
REMARK VINA RESULT:      -6.2      0.000      0.000
REMARK  6 active torsions:
REMARK  status: ('A' for Active; 'I' for Inactive)
REMARK    1  A    between atoms: C_2  and  C_4 
REMARK    2  A    between atoms: C_4  and  C_5 
REMARK    3  A    between atoms: C_5  and  N_6 
REMARK    4  A    between atoms: C_10  and  C_11 
REMARK    5  A    between atoms: C_11  and  N_12 
REMARK    6  A    between atoms: N_12  and  C_13 
ROOT
HETATM    1  N   UNL     1     -42.776 -53.024  12.905  1.00  0.00     0.093 N 
HETATM    2  C   UNL     1     -41.967 -54.193  13.326  1.00  0.00     0.298 C 
HETATM    3  C   UNL     1     -40.591 -53.856  13.940  1.00  0.00     0.198 C 
HETATM    4  O   UNL     1     -39.840 -52.933  13.138  1.00  0.00    -0.381 OA
HETATM    5  C   UNL     1     -40.619 -51.741  12.889  1.00  0.00     0.163 C 
HETATM    6  C   UNL     1     -41.898 -52.123  12.124  1.00  0.00     0.305 C 
ENDROOT
BRANCH   5   7
HETATM    7  C   UNL     1     -39.769 -50.741  12.092  1.00  0.00     0.127 C 
BRANCH   7   8
HETATM    8  N   UNL     1     -40.543 -50.314  10.922  1.00  0.00    -0.275 NA
HETATM    9  H   UNL     1     -41.448 -50.787  10.917  1.00  0.00     0.129 HD
BRANCH   8  10
HETATM   10  C   UNL     1     -40.736 -48.929  10.824  1.00  0.00     0.094 A 
HETATM   11  C   UNL     1     -40.000 -48.109  11.670  1.00  0.00     0.045 A 
HETATM   12  C   UNL     1     -40.180 -46.730  11.613  1.00  0.00     0.022 A 
HETATM   13  C   UNL     1     -41.095 -46.235  10.710  1.00  0.00     0.107 A 
HETATM   14  N   UNL     1     -41.816 -47.034   9.904  1.00  0.00    -0.311 N 
HETATM   15  N   UNL     1     -41.638 -48.390   9.975  1.00  0.00    -0.290 N 
ATOM     16  HN  UNL     1     -42.486 -46.635   9.247  1.00  0.00     0.186 HD
ATOM     17  HN  UNL     1     -42.195 -49.003   9.379  1.00  0.00     0.188 HD
ENDBRANCH   8  10
ENDBRANCH   7   8
ENDBRANCH   5   7
BRANCH   1  18
HETATM   18  C   UNL     1     -43.414 -52.363  14.058  1.00  0.00     0.273 C 
BRANCH  18  19
HETATM   19  C   UNL     1     -44.538 -51.373  13.695  1.00  0.00     0.034 C 
BRANCH  19  20
HETATM   20  C   UNL     1     -45.963 -51.965  13.690  1.00  0.00    -0.021 C 
HETATM   21  C   UNL     1     -46.811 -51.415  14.837  1.00  0.00     0.009 C 
HETATM   22  C   UNL     1     -46.651 -51.662  12.355  1.00  0.00     0.009 C 
ENDBRANCH  19  20
ENDBRANCH  18  19
ENDBRANCH   1  18
TORSDOF 6
ENDMDL
MODEL 2
REMARK VINA RESULT:      -5.9      1.949      2.990
REMARK  6 active torsions:
REMARK  status: ('A' for Active; 'I' for Inactive)
REMARK    1  A    between atoms: C_2  and  C_4 
REMARK    2  A    between atoms: C_4  and  C_5 
REMARK    3  A    between atoms: C_5  and  N_6 
REMARK    4  A    between atoms: C_10  and  C_11 
REMARK    5  A    between atoms: C_11  and  N_12 
REMARK    6  A    between atoms: N_12  and  C_13 
ROOT
HETATM    1  N   UNL     1     -45.190 -53.114  12.900  1.00  0.00     0.093 N 
HETATM    2  C   UNL     1     -45.345 -54.265  13.823  1.00  0.00     0.298 C 
HETATM    3  C   UNL     1     -44.142 -54.528  14.754  1.00  0.00     0.198 C 
HETATM    4  O   UNL     1     -42.893 -54.558  14.048  1.00  0.00    -0.381 OA
HETATM    5  C   UNL     1     -42.721 -53.341  13.287  1.00  0.00     0.163 C 
HETATM    6  C   UNL     1     -43.860 -53.222  12.259  1.00  0.00     0.305 C 
ENDROOT
BRANCH   5   7
HETATM    7  C   UNL     1     -41.349 -53.366  12.600  1.00  0.00     0.127 C 
BRANCH   7   8
HETATM    8  N   UNL     1     -41.388 -52.437  11.467  1.00  0.00    -0.275 NA
HETATM    9  H   UNL     1     -42.354 -52.173  11.271  1.00  0.00     0.129 HD
BRANCH   8  10
HETATM   10  C   UNL     1     -40.610 -51.282  11.633  1.00  0.00     0.094 A 
HETATM   11  C   UNL     1     -39.932 -51.122  12.834  1.00  0.00     0.045 A 
HETATM   12  C   UNL     1     -39.166 -49.979  13.040  1.00  0.00     0.022 A 
HETATM   13  C   UNL     1     -39.117 -49.044  12.031  1.00  0.00     0.107 A 
HETATM   14  N   UNL     1     -39.787 -49.196  10.875  1.00  0.00    -0.311 N 
HETATM   15  N   UNL     1     -40.547 -50.320  10.686  1.00  0.00    -0.290 N 
ATOM     16  HN  UNL     1     -39.731 -48.483  10.147  1.00  0.00     0.186 HD
ATOM     17  HN  UNL     1     -41.072 -50.432   9.819  1.00  0.00     0.188 HD
ENDBRANCH   8  10
ENDBRANCH   7   8
ENDBRANCH   5   7
BRANCH   1  18
HETATM   18  C   UNL     1     -45.403 -51.831  13.593  1.00  0.00     0.273 C 
BRANCH  18  19
HETATM   19  C   UNL     1     -46.709 -51.744  14.407  1.00  0.00     0.034 C 
BRANCH  19  20
HETATM   20  C   UNL     1     -46.530 -51.656  15.936  1.00  0.00    -0.021 C 
HETATM   21  C   UNL     1     -45.410 -50.692  16.325  1.00  0.00     0.009 C 
HETATM   22  C   UNL     1     -47.841 -51.208  16.591  1.00  0.00     0.009 C 
ENDBRANCH  19  20
ENDBRANCH  18  19
ENDBRANCH   1  18
TORSDOF 6
ENDMDL
MODEL 3
REMARK VINA RESULT:      -5.9      1.262      1.520
REMARK  6 active torsions:
REMARK  status: ('A' for Active; 'I' for Inactive)
REMARK    1  A    between atoms: C_2  and  C_4 
REMARK    2  A    between atoms: C_4  and  C_5 
REMARK    3  A    between atoms: C_5  and  N_6 
REMARK    4  A    between atoms: C_10  and  C_11 
REMARK    5  A    between atoms: C_11  and  N_12 
REMARK    6  A    between atoms: N_12  and  C_13 
ROOT
HETATM    1  N   UNL     1     -41.654 -53.259  13.075  1.00  0.00     0.093 N 
HETATM    2  C   UNL     1     -40.532 -54.093  13.572  1.00  0.00     0.298 C 
HETATM    3  C   UNL     1     -39.292 -53.310  14.055  1.00  0.00     0.198 C 
HETATM    4  O   UNL     1     -38.861 -52.321  13.109  1.00  0.00    -0.381 OA
HETATM    5  C   UNL     1     -39.955 -51.436  12.779  1.00  0.00     0.163 C 
HETATM    6  C   UNL     1     -41.093 -52.253  12.144  1.00  0.00     0.305 C 
ENDROOT
BRANCH   5   7
HETATM    7  C   UNL     1     -39.450 -50.346  11.822  1.00  0.00     0.127 C 
BRANCH   7   8
HETATM    8  N   UNL     1     -40.493 -50.096  10.822  1.00  0.00    -0.275 NA
HETATM    9  H   UNL     1     -41.309 -50.676  11.024  1.00  0.00     0.129 HD
BRANCH   8  10
HETATM   10  C   UNL     1     -40.885 -48.755  10.713  1.00  0.00     0.094 A 
HETATM   11  C   UNL     1     -40.394 -47.854  11.649  1.00  0.00     0.045 A 
HETATM   12  C   UNL     1     -40.779 -46.519  11.581  1.00  0.00     0.022 A 
HETATM   13  C   UNL     1     -41.643 -46.146  10.576  1.00  0.00     0.107 A 
HETATM   14  N   UNL     1     -42.128 -47.024   9.680  1.00  0.00    -0.311 N 
HETATM   15  N   UNL     1     -41.751 -48.338   9.762  1.00  0.00    -0.290 N 
ATOM     16  HN  UNL     1     -42.768 -46.715   8.948  1.00  0.00     0.186 HD
ATOM     17  HN  UNL     1     -42.130 -49.012   9.097  1.00  0.00     0.188 HD
ENDBRANCH   8  10
ENDBRANCH   7   8
ENDBRANCH   5   7
BRANCH   1  18
HETATM   18  C   UNL     1     -42.420 -52.664  14.185  1.00  0.00     0.273 C 
BRANCH  18  19
HETATM   19  C   UNL     1     -43.737 -53.389  14.522  1.00  0.00     0.034 C 
BRANCH  19  20
HETATM   20  C   UNL     1     -44.453 -54.049  13.326  1.00  0.00    -0.021 C 
HETATM   21  C   UNL     1     -45.394 -55.168  13.771  1.00  0.00     0.009 C 
HETATM   22  C   UNL     1     -45.245 -52.995  12.545  1.00  0.00     0.009 C 
ENDBRANCH  19  20
ENDBRANCH  18  19
ENDBRANCH   1  18
TORSDOF 6
ENDMDL
MODEL 4
REMARK VINA RESULT:      -5.8      3.247      6.195
REMARK  6 active torsions:
REMARK  status: ('A' for Active; 'I' for Inactive)
REMARK    1  A    between atoms: C_2  and  C_4 
REMARK    2  A    between atoms: C_4  and  C_5 
REMARK    3  A    between atoms: C_5  and  N_6 
REMARK    4  A    between atoms: C_10  and  C_11 
REMARK    5  A    between atoms: C_11  and  N_12 
REMARK    6  A    between atoms: N_12  and  C_13 
ROOT
HETATM    1  N   UNL     1     -42.683 -46.222  11.257  1.00  0.00     0.093 N 
HETATM    2  C   UNL     1     -41.894 -45.134  11.886  1.00  0.00     0.298 C 
HETATM    3  C   UNL     1     -40.362 -45.265  11.747  1.00  0.00     0.198 C 
HETATM    4  O   UNL     1     -39.885 -46.568  12.113  1.00  0.00    -0.381 OA
HETATM    5  C   UNL     1     -40.578 -47.584  11.354  1.00  0.00     0.163 C 
HETATM    6  C   UNL     1     -42.082 -47.512  11.668  1.00  0.00     0.305 C 
ENDROOT
BRANCH   5   7
HETATM    7  C   UNL     1     -39.999 -48.961  11.710  1.00  0.00     0.127 C 
BRANCH   7   8
HETATM    8  N   UNL     1     -40.906 -49.988  11.186  1.00  0.00    -0.275 NA
HETATM    9  H   UNL     1     -40.756 -50.099  10.182  1.00  0.00     0.129 HD
BRANCH   8  10
HETATM   10  C   UNL     1     -40.801 -51.235  11.817  1.00  0.00     0.094 A 
HETATM   11  C   UNL     1     -40.308 -51.268  13.115  1.00  0.00     0.045 A 
HETATM   12  C   UNL     1     -40.174 -52.491  13.765  1.00  0.00     0.022 A 
HETATM   13  C   UNL     1     -40.538 -53.629  13.081  1.00  0.00     0.107 A 
HETATM   14  N   UNL     1     -41.001 -53.594  11.819  1.00  0.00    -0.311 N 
HETATM   15  N   UNL     1     -41.120 -52.386  11.185  1.00  0.00    -0.290 N 
ATOM     16  HN  UNL     1     -41.260 -54.457  11.340  1.00  0.00     0.186 HD
ATOM     17  HN  UNL     1     -41.453 -52.355  10.221  1.00  0.00     0.188 HD
ENDBRANCH   8  10
ENDBRANCH   7   8
ENDBRANCH   5   7
BRANCH   1  18
HETATM   18  C   UNL     1     -42.767 -46.054   9.796  1.00  0.00     0.273 C 
BRANCH  18  19
HETATM   19  C   UNL     1     -44.160 -46.326   9.194  1.00  0.00     0.034 C 
BRANCH  19  20
HETATM   20  C   UNL     1     -44.403 -47.772   8.717  1.00  0.00    -0.021 C 
HETATM   21  C   UNL     1     -45.877 -48.030   8.405  1.00  0.00     0.009 C 
HETATM   22  C   UNL     1     -43.559 -48.061   7.471  1.00  0.00     0.009 C 
ENDBRANCH  19  20
ENDBRANCH  18  19
ENDBRANCH   1  18
TORSDOF 6
ENDMDL
MODEL 5
REMARK VINA RESULT:      -5.5      1.684      2.015
REMARK  6 active torsions:
REMARK  status: ('A' for Active; 'I' for Inactive)
REMARK    1  A    between atoms: C_2  and  C_4 
REMARK    2  A    between atoms: C_4  and  C_5 
REMARK    3  A    between atoms: C_5  and  N_6 
REMARK    4  A    between atoms: C_10  and  C_11 
REMARK    5  A    between atoms: C_11  and  N_12 
REMARK    6  A    between atoms: N_12  and  C_13 
ROOT
HETATM    1  N   UNL     1     -43.682 -54.206  14.471  1.00  0.00     0.093 N 
HETATM    2  C   UNL     1     -42.567 -55.026  15.003  1.00  0.00     0.298 C 
HETATM    3  C   UNL     1     -41.209 -54.300  15.113  1.00  0.00     0.198 C 
HETATM    4  O   UNL     1     -40.852 -53.610  13.906  1.00  0.00    -0.381 OA
HETATM    5  C   UNL     1     -41.911 -52.705  13.518  1.00  0.00     0.163 C 
HETATM    6  C   UNL     1     -43.195 -53.511  13.257  1.00  0.00     0.305 C 
ENDROOT
BRANCH   5   7
HETATM    7  C   UNL     1     -41.476 -51.928  12.267  1.00  0.00     0.127 C 
BRANCH   7   8
HETATM    8  N   UNL     1     -41.194 -50.545  12.664  1.00  0.00    -0.275 NA
HETATM    9  H   UNL     1     -40.189 -50.420  12.789  1.00  0.00     0.129 HD
BRANCH   8  10
HETATM   10  C   UNL     1     -41.681 -49.574  11.776  1.00  0.00     0.094 A 
HETATM   11  C   UNL     1     -42.832 -48.884  12.135  1.00  0.00     0.045 A 
HETATM   12  C   UNL     1     -43.352 -47.927  11.269  1.00  0.00     0.022 A 
HETATM   13  C   UNL     1     -42.696 -47.707  10.079  1.00  0.00     0.107 A 
HETATM   14  N   UNL     1     -41.590 -48.388   9.730  1.00  0.00    -0.311 N 
HETATM   15  N   UNL     1     -41.091 -49.335  10.584  1.00  0.00    -0.290 N 
ATOM     16  HN  UNL     1     -41.129 -48.201   8.839  1.00  0.00     0.186 HD
ATOM     17  HN  UNL     1     -40.264 -49.868  10.317  1.00  0.00     0.188 HD
ENDBRANCH   8  10
ENDBRANCH   7   8
ENDBRANCH   5   7
BRANCH   1  18
HETATM   18  C   UNL     1     -44.217 -53.290  15.494  1.00  0.00     0.273 C 
BRANCH  18  19
HETATM   19  C   UNL     1     -45.699 -52.910  15.310  1.00  0.00     0.034 C 
BRANCH  19  20
HETATM   20  C   UNL     1     -45.956 -51.477  14.802  1.00  0.00    -0.021 C 
HETATM   21  C   UNL     1     -44.694 -50.615  14.865  1.00  0.00     0.009 C 
HETATM   22  C   UNL     1     -46.475 -51.518  13.360  1.00  0.00     0.009 C 
ENDBRANCH  19  20
ENDBRANCH  18  19
ENDBRANCH   1  18
TORSDOF 6
ENDMDL
MODEL 6
REMARK VINA RESULT:      -5.4      2.740      6.222
REMARK  6 active torsions:
REMARK  status: ('A' for Active; 'I' for Inactive)
REMARK    1  A    between atoms: C_2  and  C_4 
REMARK    2  A    between atoms: C_4  and  C_5 
REMARK    3  A    between atoms: C_5  and  N_6 
REMARK    4  A    between atoms: C_10  and  C_11 
REMARK    5  A    between atoms: C_11  and  N_12 
REMARK    6  A    between atoms: N_12  and  C_13 
ROOT
HETATM    1  N   UNL     1     -41.648 -48.476  12.181  1.00  0.00     0.093 N 
HETATM    2  C   UNL     1     -40.186 -48.267  12.318  1.00  0.00     0.298 C 
HETATM    3  C   UNL     1     -39.302 -49.388  11.730  1.00  0.00     0.198 C 
HETATM    4  O   UNL     1     -39.711 -50.695  12.161  1.00  0.00    -0.381 OA
HETATM    5  C   UNL     1     -41.109 -50.905  11.859  1.00  0.00     0.163 C 
HETATM    6  C   UNL     1     -41.951 -49.860  12.611  1.00  0.00     0.305 C 
ENDROOT
BRANCH   5   7
HETATM    7  C   UNL     1     -41.502 -52.334  12.262  1.00  0.00     0.127 C 
BRANCH   7   8
HETATM    8  N   UNL     1     -40.292 -53.162  12.247  1.00  0.00    -0.275 NA
HETATM    9  H   UNL     1     -39.478 -52.580  12.046  1.00  0.00     0.129 HD
BRANCH   8  10
HETATM   10  C   UNL     1     -40.070 -53.891  13.424  1.00  0.00     0.094 A 
HETATM   11  C   UNL     1     -41.102 -53.959  14.351  1.00  0.00     0.045 A 
HETATM   12  C   UNL     1     -40.909 -54.658  15.539  1.00  0.00     0.022 A 
HETATM   13  C   UNL     1     -39.686 -55.255  15.745  1.00  0.00     0.107 A 
HETATM   14  N   UNL     1     -38.684 -55.174  14.851  1.00  0.00    -0.311 N 
HETATM   15  N   UNL     1     -38.881 -54.475  13.690  1.00  0.00    -0.290 N 
ATOM     16  HN  UNL     1     -37.789 -55.628  15.035  1.00  0.00     0.186 HD
ATOM     17  HN  UNL     1     -38.120 -54.395  13.016  1.00  0.00     0.188 HD
ENDBRANCH   8  10
ENDBRANCH   7   8
ENDBRANCH   5   7
BRANCH   1  18
HETATM   18  C   UNL     1     -42.113 -48.173  10.815  1.00  0.00     0.273 C 
BRANCH  18  19
HETATM   19  C   UNL     1     -43.610 -47.826  10.704  1.00  0.00     0.034 C 
BRANCH  19  20
HETATM   20  C   UNL     1     -44.113 -47.521   9.279  1.00  0.00    -0.021 C 
HETATM   21  C   UNL     1     -45.618 -47.249   9.251  1.00  0.00     0.009 C 
HETATM   22  C   UNL     1     -43.365 -46.311   8.708  1.00  0.00     0.009 C 
ENDBRANCH  19  20
ENDBRANCH  18  19
ENDBRANCH   1  18
TORSDOF 6
ENDMDL
MODEL 7
REMARK VINA RESULT:      -5.3      2.215      5.868
REMARK  6 active torsions:
REMARK  status: ('A' for Active; 'I' for Inactive)
REMARK    1  A    between atoms: C_2  and  C_4 
REMARK    2  A    between atoms: C_4  and  C_5 
REMARK    3  A    between atoms: C_5  and  N_6 
REMARK    4  A    between atoms: C_10  and  C_11 
REMARK    5  A    between atoms: C_11  and  N_12 
REMARK    6  A    between atoms: N_12  and  C_13 
ROOT
HETATM    1  N   UNL     1     -40.130 -49.071  13.230  1.00  0.00     0.093 N 
HETATM    2  C   UNL     1     -38.669 -49.328  13.200  1.00  0.00     0.298 C 
HETATM    3  C   UNL     1     -38.218 -50.459  12.251  1.00  0.00     0.198 C 
HETATM    4  O   UNL     1     -38.981 -51.662  12.426  1.00  0.00    -0.381 OA
HETATM    5  C   UNL     1     -40.392 -51.382  12.288  1.00  0.00     0.163 C 
HETATM    6  C   UNL     1     -40.816 -50.375  13.372  1.00  0.00     0.305 C 
ENDROOT
BRANCH   5   7
HETATM    7  C   UNL     1     -41.180 -52.694  12.406  1.00  0.00     0.127 C 
BRANCH   7   8
HETATM    8  N   UNL     1     -42.510 -52.483  11.825  1.00  0.00    -0.275 NA
HETATM    9  H   UNL     1     -42.513 -52.791  10.852  1.00  0.00     0.129 HD
BRANCH   8  10
HETATM   10  C   UNL     1     -43.555 -53.109  12.520  1.00  0.00     0.094 A 
HETATM   11  C   UNL     1     -43.224 -54.068  13.468  1.00  0.00     0.045 A 
HETATM   12  C   UNL     1     -44.237 -54.722  14.162  1.00  0.00     0.022 A 
HETATM   13  C   UNL     1     -45.540 -54.386  13.871  1.00  0.00     0.107 A 
HETATM   14  N   UNL     1     -45.857 -53.467  12.941  1.00  0.00    -0.311 N 
HETATM   15  N   UNL     1     -44.852 -52.837  12.256  1.00  0.00    -0.290 N 
ATOM     16  HN  UNL     1     -46.833 -53.243  12.749  1.00  0.00     0.186 HD
ATOM     17  HN  UNL     1     -45.086 -52.152  11.537  1.00  0.00     0.188 HD
ENDBRANCH   8  10
ENDBRANCH   7   8
ENDBRANCH   5   7
BRANCH   1  18
HETATM   18  C   UNL     1     -40.569 -48.304  12.051  1.00  0.00     0.273 C 
BRANCH  18  19
HETATM   19  C   UNL     1     -42.080 -48.380  11.757  1.00  0.00     0.034 C 
BRANCH  19  20
HETATM   20  C   UNL     1     -42.711 -47.086  11.204  1.00  0.00    -0.021 C 
HETATM   21  C   UNL     1     -41.705 -46.256  10.406  1.00  0.00     0.009 C 
HETATM   22  C   UNL     1     -43.912 -47.428  10.315  1.00  0.00     0.009 C 
ENDBRANCH  19  20
ENDBRANCH  18  19
ENDBRANCH   1  18
TORSDOF 6
ENDMDL
MODEL 8
REMARK VINA RESULT:      -5.2      2.047      3.846
REMARK  6 active torsions:
REMARK  status: ('A' for Active; 'I' for Inactive)
REMARK    1  A    between atoms: C_2  and  C_4 
REMARK    2  A    between atoms: C_4  and  C_5 
REMARK    3  A    between atoms: C_5  and  N_6 
REMARK    4  A    between atoms: C_10  and  C_11 
REMARK    5  A    between atoms: C_11  and  N_12 
REMARK    6  A    between atoms: N_12  and  C_13 
ROOT
HETATM    1  N   UNL     1     -42.877 -53.377  14.892  1.00  0.00     0.093 N 
HETATM    2  C   UNL     1     -44.056 -53.288  13.995  1.00  0.00     0.298 C 
HETATM    3  C   UNL     1     -43.741 -53.349  12.485  1.00  0.00     0.198 C 
HETATM    4  O   UNL     1     -42.695 -52.443  12.103  1.00  0.00    -0.381 OA
HETATM    5  C   UNL     1     -41.515 -52.680  12.903  1.00  0.00     0.163 C 
HETATM    6  C   UNL     1     -41.851 -52.437  14.385  1.00  0.00     0.305 C 
ENDROOT
BRANCH   5   7
HETATM    7  C   UNL     1     -40.389 -51.750  12.427  1.00  0.00     0.127 C 
BRANCH   7   8
HETATM    8  N   UNL     1     -40.843 -51.069  11.210  1.00  0.00    -0.275 NA
HETATM    9  H   UNL     1     -41.830 -51.271  11.050  1.00  0.00     0.129 HD
BRANCH   8  10
HETATM   10  C   UNL     1     -40.641 -49.681  11.210  1.00  0.00     0.094 A 
HETATM   11  C   UNL     1     -39.805 -49.145  12.180  1.00  0.00     0.045 A 
HETATM   12  C   UNL     1     -39.598 -47.770  12.219  1.00  0.00     0.022 A 
HETATM   13  C   UNL     1     -40.243 -46.992  11.285  1.00  0.00     0.107 A 
HETATM   14  N   UNL     1     -41.064 -47.514  10.356  1.00  0.00    -0.311 N 
HETATM   15  N   UNL     1     -41.269 -48.868  10.332  1.00  0.00    -0.290 N 
ATOM     16  HN  UNL     1     -41.529 -46.909   9.679  1.00  0.00     0.186 HD
ATOM     17  HN  UNL     1     -41.905 -49.268   9.642  1.00  0.00     0.188 HD
ENDBRANCH   8  10
ENDBRANCH   7   8
ENDBRANCH   5   7
BRANCH   1  18
HETATM   18  C   UNL     1     -42.392 -54.763  15.013  1.00  0.00     0.273 C 
BRANCH  18  19
HETATM   19  C   UNL     1     -42.221 -55.263  16.461  1.00  0.00     0.034 C 
BRANCH  19  20
HETATM   20  C   UNL     1     -40.777 -55.622  16.869  1.00  0.00    -0.021 C 
HETATM   21  C   UNL     1     -40.600 -57.127  17.072  1.00  0.00     0.009 C 
HETATM   22  C   UNL     1     -39.794 -55.130  15.802  1.00  0.00     0.009 C 
ENDBRANCH  19  20
ENDBRANCH  18  19
ENDBRANCH   1  18
TORSDOF 6
ENDMDL
MODEL 9
REMARK VINA RESULT:      -5.2      2.978      6.936
REMARK  6 active torsions:
REMARK  status: ('A' for Active; 'I' for Inactive)
REMARK    1  A    between atoms: C_2  and  C_4 
REMARK    2  A    between atoms: C_4  and  C_5 
REMARK    3  A    between atoms: C_5  and  N_6 
REMARK    4  A    between atoms: C_10  and  C_11 
REMARK    5  A    between atoms: C_11  and  N_12 
REMARK    6  A    between atoms: N_12  and  C_13 
ROOT
HETATM    1  N   UNL     1     -38.384 -50.054  13.045  1.00  0.00     0.093 N 
HETATM    2  C   UNL     1     -38.757 -49.128  11.948  1.00  0.00     0.298 C 
HETATM    3  C   UNL     1     -40.255 -49.122  11.571  1.00  0.00     0.198 C 
HETATM    4  O   UNL     1     -40.779 -50.443  11.372  1.00  0.00    -0.381 OA
HETATM    5  C   UNL     1     -40.526 -51.260  12.538  1.00  0.00     0.163 C 
HETATM    6  C   UNL     1     -39.007 -51.367  12.760  1.00  0.00     0.305 C 
ENDROOT
BRANCH   5   7
HETATM    7  C   UNL     1     -41.158 -52.643  12.330  1.00  0.00     0.127 C 
BRANCH   7   8
HETATM    8  N   UNL     1     -42.501 -52.453  11.772  1.00  0.00    -0.275 NA
HETATM    9  H   UNL     1     -42.520 -52.774  10.803  1.00  0.00     0.129 HD
BRANCH   8  10
HETATM   10  C   UNL     1     -43.526 -53.081  12.494  1.00  0.00     0.094 A 
HETATM   11  C   UNL     1     -43.167 -54.031  13.442  1.00  0.00     0.045 A 
HETATM   12  C   UNL     1     -44.160 -54.686  14.163  1.00  0.00     0.022 A 
HETATM   13  C   UNL     1     -45.472 -54.362  13.898  1.00  0.00     0.107 A 
HETATM   14  N   UNL     1     -45.816 -53.452  12.969  1.00  0.00    -0.311 N 
HETATM   15  N   UNL     1     -44.831 -52.820  12.257  1.00  0.00    -0.290 N 
ATOM     16  HN  UNL     1     -46.798 -53.236  12.796  1.00  0.00     0.186 HD
ATOM     17  HN  UNL     1     -45.086 -52.142  11.539  1.00  0.00     0.188 HD
ENDBRANCH   8  10
ENDBRANCH   7   8
ENDBRANCH   5   7
BRANCH   1  18
HETATM   18  C   UNL     1     -38.749 -49.507  14.363  1.00  0.00     0.273 C 
BRANCH  18  19
HETATM   19  C   UNL     1     -37.966 -50.103  15.550  1.00  0.00     0.034 C 
BRANCH  19  20
HETATM   20  C   UNL     1     -36.905 -49.174  16.174  1.00  0.00    -0.021 C 
HETATM   21  C   UNL     1     -35.548 -49.866  16.304  1.00  0.00     0.009 C 
HETATM   22  C   UNL     1     -36.754 -47.908  15.325  1.00  0.00     0.009 C 
ENDBRANCH  19  20
ENDBRANCH  18  19
ENDBRANCH   1  18
TORSDOF 6
ENDMDL
