MODEL 1
REMARK VINA RESULT:      -6.2      0.000      0.000
REMARK  8 active torsions:
REMARK  status: ('A' for Active; 'I' for Inactive)
REMARK    1  A    between atoms: C_2  and  C_3 
REMARK    2  A    between atoms: C_2  and  N_10 
REMARK    3  A    between atoms: C_3  and  N_4 
REMARK    4  A    between atoms: N_10  and  C_11 
REMARK    5  A    between atoms: C_11  and  C_12 
REMARK    6  A    between atoms: C_12  and  O_13 
REMARK    7  A    between atoms: C_12  and  C_14 
REMARK    8  A    between atoms: C_14  and  N_15 
ROOT
HETATM    1  C   UNL     1     -40.371 -51.214  11.987  1.00  0.00     0.303 C 
ENDROOT
BRANCH   1   2
HETATM    2  N   UNL     1     -40.606 -50.156  11.002  1.00  0.00     0.091 N 
HETATM    3  H   UNL     1     -39.703 -49.750  10.740  1.00  0.00     0.316 HD
BRANCH   2   4
HETATM    4  C   UNL     1     -41.535 -49.103  11.467  1.00  0.00     0.236 C 
HETATM    5  C   UNL     1     -41.280 -48.933  12.969  1.00  0.00     0.044 C 
BRANCH   4   6
HETATM    6  C   UNL     1     -41.331 -47.780  10.700  1.00  0.00     0.183 C 
BRANCH   6   7
HETATM    7  N   UNL     1     -42.426 -47.395   9.829  1.00  0.00    -0.302 N 
HETATM    8  C   UNL     1     -43.144 -46.237   9.901  1.00  0.00     0.111 A 
HETATM    9  C   UNL     1     -43.999 -46.254   8.826  1.00  0.00     0.037 A 
HETATM   10  C   UNL     1     -43.714 -47.461   8.164  1.00  0.00     0.108 A 
HETATM   11  N   UNL     1     -42.750 -48.156   8.767  1.00  0.00    -0.310 N 
ATOM     12  HN  UNL     1     -42.351 -49.052   8.488  1.00  0.00     0.186 HD
ENDBRANCH   6   7
ENDBRANCH   4   6
ENDBRANCH   2   4
ENDBRANCH   1   2
BRANCH   1  13
HETATM   13  C   UNL     1     -41.340 -52.407  11.779  1.00  0.00     0.174 C 
BRANCH  13  14
HETATM   14  O   UNL     1     -40.561 -53.586  11.535  1.00  0.00    -0.392 OA
HETATM   15  H   UNL     1     -41.063 -54.159  10.930  1.00  0.00     0.210 HD
ENDBRANCH  13  14
BRANCH  13  16
HETATM   16  C   UNL     1     -42.203 -52.555  13.058  1.00  0.00     0.305 C 
BRANCH  16  17
HETATM   17  N   UNL     1     -43.214 -53.625  13.098  1.00  0.00     0.096 N 
HETATM   18  C   UNL     1     -44.493 -53.141  12.522  1.00  0.00     0.303 C 
HETATM   19  C   UNL     1     -45.235 -52.151  13.448  1.00  0.00     0.146 C 
HETATM   20  C   UNL     1     -46.533 -51.668  12.817  1.00  0.00     0.041 C 
HETATM   21  O   UNL     1     -45.539 -52.782  14.700  1.00  0.00    -0.378 OA
HETATM   22  C   UNL     1     -44.338 -53.233  15.354  1.00  0.00     0.146 C 
HETATM   23  C   UNL     1     -44.766 -53.960  16.624  1.00  0.00     0.041 C 
HETATM   24  C   UNL     1     -43.507 -54.170  14.440  1.00  0.00     0.303 C 
ENDBRANCH  16  17
ENDBRANCH  13  16
ENDBRANCH   1  13
TORSDOF 8
ENDMDL
MODEL 2
REMARK VINA RESULT:      -6.1      2.666      6.542
REMARK  8 active torsions:
REMARK  status: ('A' for Active; 'I' for Inactive)
REMARK    1  A    between atoms: C_2  and  C_3 
REMARK    2  A    between atoms: C_2  and  N_10 
REMARK    3  A    between atoms: C_3  and  N_4 
REMARK    4  A    between atoms: N_10  and  C_11 
REMARK    5  A    between atoms: C_11  and  C_12 
REMARK    6  A    between atoms: C_12  and  O_13 
REMARK    7  A    between atoms: C_12  and  C_14 
REMARK    8  A    between atoms: C_14  and  N_15 
ROOT
HETATM    1  C   UNL     1     -40.289 -50.893  12.376  1.00  0.00     0.303 C 
ENDROOT
BRANCH   1   2
HETATM    2  N   UNL     1     -41.035 -51.804  11.505  1.00  0.00     0.091 N 
HETATM    3  H   UNL     1     -41.418 -51.265  10.723  1.00  0.00     0.316 HD
BRANCH   2   4
HETATM    4  C   UNL     1     -42.107 -52.551  12.199  1.00  0.00     0.236 C 
HETATM    5  C   UNL     1     -41.428 -53.741  12.888  1.00  0.00     0.044 C 
BRANCH   4   6
HETATM    6  C   UNL     1     -42.863 -51.662  13.208  1.00  0.00     0.183 C 
BRANCH   6   7
HETATM    7  N   UNL     1     -44.305 -51.823  13.213  1.00  0.00    -0.302 N 
HETATM    8  C   UNL     1     -45.178 -51.232  14.079  1.00  0.00     0.111 A 
HETATM    9  C   UNL     1     -46.435 -51.583  13.648  1.00  0.00     0.037 A 
HETATM   10  C   UNL     1     -46.211 -52.380  12.512  1.00  0.00     0.108 A 
HETATM   11  N   UNL     1     -44.914 -52.522  12.238  1.00  0.00    -0.310 N 
ATOM     12  HN  UNL     1     -44.485 -53.039  11.470  1.00  0.00     0.186 HD
ENDBRANCH   6   7
ENDBRANCH   4   6
ENDBRANCH   2   4
ENDBRANCH   1   2
BRANCH   1  13
HETATM   13  C   UNL     1     -39.914 -49.582  11.638  1.00  0.00     0.174 C 
BRANCH  13  14
HETATM   14  O   UNL     1     -38.932 -49.890  10.638  1.00  0.00    -0.392 OA
HETATM   15  H   UNL     1     -38.534 -50.748  10.861  1.00  0.00     0.210 HD
ENDBRANCH  13  14
BRANCH  13  16
HETATM   16  C   UNL     1     -41.204 -49.001  11.003  1.00  0.00     0.305 C 
BRANCH  16  17
HETATM   17  N   UNL     1     -41.864 -47.869  11.675  1.00  0.00     0.096 N 
HETATM   18  C   UNL     1     -43.068 -47.453  10.913  1.00  0.00     0.303 C 
HETATM   19  C   UNL     1     -42.724 -46.714   9.600  1.00  0.00     0.146 C 
HETATM   20  C   UNL     1     -43.982 -46.318   8.842  1.00  0.00     0.041 C 
HETATM   21  O   UNL     1     -41.966 -45.531   9.886  1.00  0.00    -0.378 OA
HETATM   22  C   UNL     1     -40.746 -45.855  10.580  1.00  0.00     0.146 C 
HETATM   23  C   UNL     1     -40.057 -44.536  10.914  1.00  0.00     0.041 C 
HETATM   24  C   UNL     1     -41.023 -46.669  11.870  1.00  0.00     0.303 C 
ENDBRANCH  16  17
ENDBRANCH  13  16
ENDBRANCH   1  13
TORSDOF 8
ENDMDL
MODEL 3
REMARK VINA RESULT:      -6.0      1.886      2.236
REMARK  8 active torsions:
REMARK  status: ('A' for Active; 'I' for Inactive)
REMARK    1  A    between atoms: C_2  and  C_3 
REMARK    2  A    between atoms: C_2  and  N_10 
REMARK    3  A    between atoms: C_3  and  N_4 
REMARK    4  A    between atoms: N_10  and  C_11 
REMARK    5  A    between atoms: C_11  and  C_12 
REMARK    6  A    between atoms: C_12  and  O_13 
REMARK    7  A    between atoms: C_12  and  C_14 
REMARK    8  A    between atoms: C_14  and  N_15 
ROOT
HETATM    1  C   UNL     1     -40.733 -51.090  12.091  1.00  0.00     0.303 C 
ENDROOT
BRANCH   1   2
HETATM    2  N   UNL     1     -40.648 -50.296  10.863  1.00  0.00     0.091 N 
HETATM    3  H   UNL     1     -39.700 -50.380  10.486  1.00  0.00     0.316 HD
BRANCH   2   4
HETATM    4  C   UNL     1     -41.012 -48.873  11.045  1.00  0.00     0.236 C 
HETATM    5  C   UNL     1     -42.300 -48.859  11.879  1.00  0.00     0.044 C 
BRANCH   4   6
HETATM    6  C   UNL     1     -39.882 -48.076  11.727  1.00  0.00     0.183 C 
BRANCH   6   7
HETATM    7  N   UNL     1     -39.907 -46.644  11.493  1.00  0.00    -0.302 N 
HETATM    8  C   UNL     1     -39.870 -45.670  12.447  1.00  0.00     0.111 A 
HETATM    9  C   UNL     1     -39.809 -44.477  11.769  1.00  0.00     0.037 A 
HETATM   10  C   UNL     1     -39.806 -44.840  10.411  1.00  0.00     0.108 A 
HETATM   11  N   UNL     1     -39.857 -46.160  10.237  1.00  0.00    -0.310 N 
ATOM     12  HN  UNL     1     -39.857 -46.681   9.361  1.00  0.00     0.186 HD
ENDBRANCH   6   7
ENDBRANCH   4   6
ENDBRANCH   2   4
ENDBRANCH   1   2
BRANCH   1  13
HETATM   13  C   UNL     1     -41.511 -52.411  11.859  1.00  0.00     0.174 C 
BRANCH  13  14
HETATM   14  O   UNL     1     -40.590 -53.401  11.381  1.00  0.00    -0.392 OA
HETATM   15  H   UNL     1     -39.734 -53.251  11.816  1.00  0.00     0.210 HD
ENDBRANCH  13  14
BRANCH  13  16
HETATM   16  C   UNL     1     -42.149 -52.836  13.206  1.00  0.00     0.305 C 
BRANCH  16  17
HETATM   17  N   UNL     1     -43.239 -53.827  13.180  1.00  0.00     0.096 N 
HETATM   18  C   UNL     1     -44.434 -53.256  12.510  1.00  0.00     0.303 C 
HETATM   19  C   UNL     1     -45.163 -52.202  13.374  1.00  0.00     0.146 C 
HETATM   20  C   UNL     1     -46.372 -51.630  12.649  1.00  0.00     0.041 C 
HETATM   21  O   UNL     1     -45.602 -52.794  14.605  1.00  0.00    -0.378 OA
HETATM   22  C   UNL     1     -44.488 -53.326  15.347  1.00  0.00     0.146 C 
HETATM   23  C   UNL     1     -45.059 -54.004  16.587  1.00  0.00     0.041 C 
HETATM   24  C   UNL     1     -43.667 -54.333  14.501  1.00  0.00     0.303 C 
ENDBRANCH  16  17
ENDBRANCH  13  16
ENDBRANCH   1  13
TORSDOF 8
ENDMDL
MODEL 4
REMARK VINA RESULT:      -5.9      0.650      1.964
REMARK  8 active torsions:
REMARK  status: ('A' for Active; 'I' for Inactive)
REMARK    1  A    between atoms: C_2  and  C_3 
REMARK    2  A    between atoms: C_2  and  N_10 
REMARK    3  A    between atoms: C_3  and  N_4 
REMARK    4  A    between atoms: N_10  and  C_11 
REMARK    5  A    between atoms: C_11  and  C_12 
REMARK    6  A    between atoms: C_12  and  O_13 
REMARK    7  A    between atoms: C_12  and  C_14 
REMARK    8  A    between atoms: C_14  and  N_15 
ROOT
HETATM    1  C   UNL     1     -40.386 -51.259  12.142  1.00  0.00     0.303 C 
ENDROOT
BRANCH   1   2
HETATM    2  N   UNL     1     -40.456 -50.180  11.153  1.00  0.00     0.091 N 
HETATM    3  H   UNL     1     -39.522 -49.774  11.049  1.00  0.00     0.316 HD
BRANCH   2   4
HETATM    4  C   UNL     1     -41.447 -49.132  11.481  1.00  0.00     0.236 C 
HETATM    5  C   UNL     1     -41.307 -48.860  12.984  1.00  0.00     0.044 C 
BRANCH   4   6
HETATM    6  C   UNL     1     -41.225 -47.854  10.647  1.00  0.00     0.183 C 
BRANCH   6   7
HETATM    7  N   UNL     1     -42.355 -47.442   9.835  1.00  0.00    -0.302 N 
HETATM    8  C   UNL     1     -42.993 -46.237   9.893  1.00  0.00     0.111 A 
HETATM    9  C   UNL     1     -43.924 -46.252   8.883  1.00  0.00     0.037 A 
HETATM   10  C   UNL     1     -43.763 -47.507   8.270  1.00  0.00     0.108 A 
HETATM   11  N   UNL     1     -42.802 -48.233   8.842  1.00  0.00    -0.310 N 
ATOM     12  HN  UNL     1     -42.481 -49.166   8.586  1.00  0.00     0.186 HD
ENDBRANCH   6   7
ENDBRANCH   4   6
ENDBRANCH   2   4
ENDBRANCH   1   2
BRANCH   1  13
HETATM   13  C   UNL     1     -41.379 -52.400  11.807  1.00  0.00     0.174 C 
BRANCH  13  14
HETATM   14  O   UNL     1     -40.644 -53.483  11.219  1.00  0.00    -0.392 OA
HETATM   15  H   UNL     1     -41.137 -54.305  11.381  1.00  0.00     0.210 HD
ENDBRANCH  13  14
BRANCH  13  16
HETATM   16  C   UNL     1     -42.073 -52.837  13.122  1.00  0.00     0.305 C 
BRANCH  16  17
HETATM   17  N   UNL     1     -42.811 -51.821  13.893  1.00  0.00     0.096 N 
HETATM   18  C   UNL     1     -43.156 -52.349  15.236  1.00  0.00     0.303 C 
HETATM   19  C   UNL     1     -44.282 -53.407  15.197  1.00  0.00     0.146 C 
HETATM   20  C   UNL     1     -44.596 -53.933  16.589  1.00  0.00     0.041 C 
HETATM   21  O   UNL     1     -45.474 -52.835  14.641  1.00  0.00    -0.378 OA
HETATM   22  C   UNL     1     -45.238 -52.347  13.307  1.00  0.00     0.146 C 
HETATM   23  C   UNL     1     -46.529 -51.686  12.837  1.00  0.00     0.041 C 
HETATM   24  C   UNL     1     -44.061 -51.338  13.269  1.00  0.00     0.303 C 
ENDBRANCH  16  17
ENDBRANCH  13  16
ENDBRANCH   1  13
TORSDOF 8
ENDMDL
MODEL 5
REMARK VINA RESULT:      -5.8      2.138      3.035
REMARK  8 active torsions:
REMARK  status: ('A' for Active; 'I' for Inactive)
REMARK    1  A    between atoms: C_2  and  C_3 
REMARK    2  A    between atoms: C_2  and  N_10 
REMARK    3  A    between atoms: C_3  and  N_4 
REMARK    4  A    between atoms: N_10  and  C_11 
REMARK    5  A    between atoms: C_11  and  C_12 
REMARK    6  A    between atoms: C_12  and  O_13 
REMARK    7  A    between atoms: C_12  and  C_14 
REMARK    8  A    between atoms: C_14  and  N_15 
ROOT
HETATM    1  C   UNL     1     -41.033 -48.604  11.121  1.00  0.00     0.303 C 
ENDROOT
BRANCH   1   2
HETATM    2  N   UNL     1     -41.519 -48.106   9.832  1.00  0.00     0.091 N 
HETATM    3  H   UNL     1     -40.754 -47.610   9.367  1.00  0.00     0.316 HD
BRANCH   2   4
HETATM    4  C   UNL     1     -42.715 -47.241   9.938  1.00  0.00     0.236 C 
HETATM    5  C   UNL     1     -42.218 -45.874  10.425  1.00  0.00     0.044 C 
BRANCH   4   6
HETATM    6  C   UNL     1     -43.462 -47.131   8.593  1.00  0.00     0.183 C 
BRANCH   6   7
HETATM    7  N   UNL     1     -44.784 -47.727   8.570  1.00  0.00    -0.302 N 
HETATM    8  C   UNL     1     -45.799 -47.470   9.445  1.00  0.00     0.111 A 
HETATM    9  C   UNL     1     -46.886 -48.172   8.982  1.00  0.00     0.037 A 
HETATM   10  C   UNL     1     -46.425 -48.813   7.819  1.00  0.00     0.108 A 
HETATM   11  N   UNL     1     -45.147 -48.538   7.558  1.00  0.00    -0.310 N 
ATOM     12  HN  UNL     1     -44.579 -48.864   6.777  1.00  0.00     0.186 HD
ENDBRANCH   6   7
ENDBRANCH   4   6
ENDBRANCH   2   4
ENDBRANCH   1   2
BRANCH   1  13
HETATM   13  C   UNL     1     -40.605 -50.091  11.030  1.00  0.00     0.174 C 
BRANCH  13  14
HETATM   14  O   UNL     1     -39.172 -50.153  11.057  1.00  0.00    -0.392 OA
HETATM   15  H   UNL     1     -38.864 -49.668  11.842  1.00  0.00     0.210 HD
ENDBRANCH  13  14
BRANCH  13  16
HETATM   16  C   UNL     1     -41.225 -50.845  12.234  1.00  0.00     0.305 C 
BRANCH  16  17
HETATM   17  N   UNL     1     -41.542 -52.275  12.075  1.00  0.00     0.096 N 
HETATM   18  C   UNL     1     -42.957 -52.530  12.440  1.00  0.00     0.303 C 
HETATM   19  C   UNL     1     -43.209 -52.453  13.963  1.00  0.00     0.146 C 
HETATM   20  C   UNL     1     -44.672 -52.706  14.296  1.00  0.00     0.041 C 
HETATM   21  O   UNL     1     -42.408 -53.429  14.643  1.00  0.00    -0.378 OA
HETATM   22  C   UNL     1     -41.007 -53.216  14.384  1.00  0.00     0.146 C 
HETATM   23  C   UNL     1     -40.248 -54.344  15.075  1.00  0.00     0.041 C 
HETATM   24  C   UNL     1     -40.703 -53.201  12.864  1.00  0.00     0.303 C 
ENDBRANCH  16  17
ENDBRANCH  13  16
ENDBRANCH   1  13
TORSDOF 8
ENDMDL
MODEL 6
REMARK VINA RESULT:      -5.7      1.959      3.510
REMARK  8 active torsions:
REMARK  status: ('A' for Active; 'I' for Inactive)
REMARK    1  A    between atoms: C_2  and  C_3 
REMARK    2  A    between atoms: C_2  and  N_10 
REMARK    3  A    between atoms: C_3  and  N_4 
REMARK    4  A    between atoms: N_10  and  C_11 
REMARK    5  A    between atoms: C_11  and  C_12 
REMARK    6  A    between atoms: C_12  and  O_13 
REMARK    7  A    between atoms: C_12  and  C_14 
REMARK    8  A    between atoms: C_14  and  N_15 
ROOT
HETATM    1  C   UNL     1     -41.642 -51.131  12.193  1.00  0.00     0.303 C 
ENDROOT
BRANCH   1   2
HETATM    2  N   UNL     1     -40.976 -50.518  11.041  1.00  0.00     0.091 N 
HETATM    3  H   UNL     1     -40.015 -50.867  10.997  1.00  0.00     0.316 HD
BRANCH   2   4
HETATM    4  C   UNL     1     -40.994 -49.038  11.060  1.00  0.00     0.236 C 
HETATM    5  C   UNL     1     -42.276 -48.630  11.795  1.00  0.00     0.044 C 
BRANCH   4   6
HETATM    6  C   UNL     1     -39.736 -48.460  11.741  1.00  0.00     0.183 C 
BRANCH   6   7
HETATM    7  N   UNL     1     -38.633 -49.390  11.894  1.00  0.00    -0.302 N 
HETATM    8  C   UNL     1     -38.261 -50.016  13.048  1.00  0.00     0.111 A 
HETATM    9  C   UNL     1     -37.245 -50.874  12.703  1.00  0.00     0.037 A 
HETATM   10  C   UNL     1     -37.084 -50.695  11.318  1.00  0.00     0.108 A 
HETATM   11  N   UNL     1     -37.934 -49.798  10.819  1.00  0.00    -0.310 N 
ATOM     12  HN  UNL     1     -38.032 -49.493   9.850  1.00  0.00     0.186 HD
ENDBRANCH   6   7
ENDBRANCH   4   6
ENDBRANCH   2   4
ENDBRANCH   1   2
BRANCH   1  13
HETATM   13  C   UNL     1     -41.848 -52.654  11.984  1.00  0.00     0.174 C 
BRANCH  13  14
HETATM   14  O   UNL     1     -40.606 -53.223  11.545  1.00  0.00    -0.392 OA
HETATM   15  H   UNL     1     -40.133 -53.553  12.327  1.00  0.00     0.210 HD
ENDBRANCH  13  14
BRANCH  13  16
HETATM   16  C   UNL     1     -42.305 -53.267  13.331  1.00  0.00     0.305 C 
BRANCH  16  17
HETATM   17  N   UNL     1     -43.504 -54.123  13.338  1.00  0.00     0.096 N 
HETATM   18  C   UNL     1     -44.622 -53.443  12.638  1.00  0.00     0.303 C 
HETATM   19  C   UNL     1     -45.223 -52.276  13.456  1.00  0.00     0.146 C 
HETATM   20  C   UNL     1     -46.355 -51.596  12.700  1.00  0.00     0.041 C 
HETATM   21  O   UNL     1     -45.731 -52.763  14.706  1.00  0.00    -0.378 OA
HETATM   22  C   UNL     1     -44.688 -53.392  15.475  1.00  0.00     0.146 C 
HETATM   23  C   UNL     1     -45.338 -53.949  16.738  1.00  0.00     0.041 C 
HETATM   24  C   UNL     1     -43.991 -54.522  14.675  1.00  0.00     0.303 C 
ENDBRANCH  16  17
ENDBRANCH  13  16
ENDBRANCH   1  13
TORSDOF 8
ENDMDL
MODEL 7
REMARK VINA RESULT:      -5.7      1.280      1.651
REMARK  8 active torsions:
REMARK  status: ('A' for Active; 'I' for Inactive)
REMARK    1  A    between atoms: C_2  and  C_3 
REMARK    2  A    between atoms: C_2  and  N_10 
REMARK    3  A    between atoms: C_3  and  N_4 
REMARK    4  A    between atoms: N_10  and  C_11 
REMARK    5  A    between atoms: C_11  and  C_12 
REMARK    6  A    between atoms: C_12  and  O_13 
REMARK    7  A    between atoms: C_12  and  C_14 
REMARK    8  A    between atoms: C_14  and  N_15 
ROOT
HETATM    1  C   UNL     1     -41.014 -51.185  12.549  1.00  0.00     0.303 C 
ENDROOT
BRANCH   1   2
HETATM    2  N   UNL     1     -40.118 -50.652  11.520  1.00  0.00     0.091 N 
HETATM    3  H   UNL     1     -39.571 -51.426  11.133  1.00  0.00     0.316 HD
BRANCH   2   4
HETATM    4  C   UNL     1     -39.228 -49.574  12.003  1.00  0.00     0.236 C 
HETATM    5  C   UNL     1     -37.808 -49.957  11.565  1.00  0.00     0.044 C 
BRANCH   4   6
HETATM    6  C   UNL     1     -39.644 -48.196  11.449  1.00  0.00     0.183 C 
BRANCH   6   7
HETATM    7  N   UNL     1     -41.066 -48.030  11.212  1.00  0.00    -0.302 N 
HETATM    8  C   UNL     1     -41.989 -47.598  12.119  1.00  0.00     0.111 A 
HETATM    9  C   UNL     1     -43.175 -47.496  11.432  1.00  0.00     0.037 A 
HETATM   10  C   UNL     1     -42.860 -47.881  10.118  1.00  0.00     0.108 A 
HETATM   11  N   UNL     1     -41.573 -48.199   9.976  1.00  0.00    -0.310 N 
ATOM     12  HN  UNL     1     -41.087 -48.500   9.131  1.00  0.00     0.186 HD
ENDBRANCH   6   7
ENDBRANCH   4   6
ENDBRANCH   2   4
ENDBRANCH   1   2
BRANCH   1  13
HETATM   13  C   UNL     1     -41.630 -52.541  12.118  1.00  0.00     0.174 C 
BRANCH  13  14
HETATM   14  O   UNL     1     -40.623 -53.297  11.429  1.00  0.00    -0.392 OA
HETATM   15  H   UNL     1     -40.780 -54.240  11.608  1.00  0.00     0.210 HD
ENDBRANCH  13  14
BRANCH  13  16
HETATM   16  C   UNL     1     -42.115 -53.277  13.393  1.00  0.00     0.305 C 
BRANCH  16  17
HETATM   17  N   UNL     1     -43.325 -54.113  13.299  1.00  0.00     0.096 N 
HETATM   18  C   UNL     1     -44.400 -53.378  12.586  1.00  0.00     0.303 C 
HETATM   19  C   UNL     1     -45.022 -52.247  13.436  1.00  0.00     0.146 C 
HETATM   20  C   UNL     1     -46.108 -51.510  12.667  1.00  0.00     0.041 C 
HETATM   21  O   UNL     1     -45.594 -52.790  14.634  1.00  0.00    -0.378 OA
HETATM   22  C   UNL     1     -44.597 -53.475  15.416  1.00  0.00     0.146 C 
HETATM   23  C   UNL     1     -45.312 -54.086  16.616  1.00  0.00     0.041 C 
HETATM   24  C   UNL     1     -43.879 -54.573  14.589  1.00  0.00     0.303 C 
ENDBRANCH  16  17
ENDBRANCH  13  16
ENDBRANCH   1  13
TORSDOF 8
ENDMDL
MODEL 8
REMARK VINA RESULT:      -5.7      2.355      3.160
REMARK  8 active torsions:
REMARK  status: ('A' for Active; 'I' for Inactive)
REMARK    1  A    between atoms: C_2  and  C_3 
REMARK    2  A    between atoms: C_2  and  N_10 
REMARK    3  A    between atoms: C_3  and  N_4 
REMARK    4  A    between atoms: N_10  and  C_11 
REMARK    5  A    between atoms: C_11  and  C_12 
REMARK    6  A    between atoms: C_12  and  O_13 
REMARK    7  A    between atoms: C_12  and  C_14 
REMARK    8  A    between atoms: C_14  and  N_15 
ROOT
HETATM    1  C   UNL     1     -40.760 -51.150  12.213  1.00  0.00     0.303 C 
ENDROOT
BRANCH   1   2
HETATM    2  N   UNL     1     -40.792 -50.392  10.960  1.00  0.00     0.091 N 
HETATM    3  H   UNL     1     -39.876 -50.468  10.510  1.00  0.00     0.316 HD
BRANCH   2   4
HETATM    4  C   UNL     1     -41.173 -48.972  11.130  1.00  0.00     0.236 C 
HETATM    5  C   UNL     1     -42.372 -48.958  12.086  1.00  0.00     0.044 C 
BRANCH   4   6
HETATM    6  C   UNL     1     -40.001 -48.127  11.671  1.00  0.00     0.183 C 
BRANCH   6   7
HETATM    7  N   UNL     1     -40.116 -46.698  11.448  1.00  0.00    -0.302 N 
HETATM    8  C   UNL     1     -40.455 -45.761  12.380  1.00  0.00     0.111 A 
HETATM    9  C   UNL     1     -40.337 -44.544  11.755  1.00  0.00     0.037 A 
HETATM   10  C   UNL     1     -39.915 -44.854  10.451  1.00  0.00     0.108 A 
HETATM   11  N   UNL     1     -39.770 -46.165  10.261  1.00  0.00    -0.310 N 
ATOM     12  HN  UNL     1     -39.468 -46.650   9.416  1.00  0.00     0.186 HD
ENDBRANCH   6   7
ENDBRANCH   4   6
ENDBRANCH   2   4
ENDBRANCH   1   2
BRANCH   1  13
HETATM   13  C   UNL     1     -41.447 -52.531  12.057  1.00  0.00     0.174 C 
BRANCH  13  14
HETATM   14  O   UNL     1     -40.684 -53.316  11.130  1.00  0.00    -0.392 OA
HETATM   15  H   UNL     1     -40.232 -54.017  11.630  1.00  0.00     0.210 HD
ENDBRANCH  13  14
BRANCH  13  16
HETATM   16  C   UNL     1     -41.502 -53.201  13.454  1.00  0.00     0.305 C 
BRANCH  16  17
HETATM   17  N   UNL     1     -42.604 -52.837  14.361  1.00  0.00     0.096 N 
HETATM   18  C   UNL     1     -42.343 -53.369  15.722  1.00  0.00     0.303 C 
HETATM   19  C   UNL     1     -42.525 -54.901  15.815  1.00  0.00     0.146 C 
HETATM   20  C   UNL     1     -42.235 -55.408  17.220  1.00  0.00     0.041 C 
HETATM   21  O   UNL     1     -43.869 -55.258  15.465  1.00  0.00    -0.378 OA
HETATM   22  C   UNL     1     -44.185 -54.825  14.128  1.00  0.00     0.146 C 
HETATM   23  C   UNL     1     -45.649 -55.172  13.880  1.00  0.00     0.041 C 
HETATM   24  C   UNL     1     -43.944 -53.304  13.949  1.00  0.00     0.303 C 
ENDBRANCH  16  17
ENDBRANCH  13  16
ENDBRANCH   1  13
TORSDOF 8
ENDMDL
MODEL 9
REMARK VINA RESULT:      -5.6      2.535      7.246
REMARK  8 active torsions:
REMARK  status: ('A' for Active; 'I' for Inactive)
REMARK    1  A    between atoms: C_2  and  C_3 
REMARK    2  A    between atoms: C_2  and  N_10 
REMARK    3  A    between atoms: C_3  and  N_4 
REMARK    4  A    between atoms: N_10  and  C_11 
REMARK    5  A    between atoms: C_11  and  C_12 
REMARK    6  A    between atoms: C_12  and  O_13 
REMARK    7  A    between atoms: C_12  and  C_14 
REMARK    8  A    between atoms: C_14  and  N_15 
ROOT
HETATM    1  C   UNL     1     -43.039 -49.934  13.183  1.00  0.00     0.303 C 
ENDROOT
BRANCH   1   2
HETATM    2  N   UNL     1     -44.131 -50.748  12.645  1.00  0.00     0.091 N 
HETATM    3  H   UNL     1     -44.843 -50.122  12.258  1.00  0.00     0.316 HD
BRANCH   2   4
HETATM    4  C   UNL     1     -44.731 -51.672  13.633  1.00  0.00     0.236 C 
HETATM    5  C   UNL     1     -46.245 -51.430  13.588  1.00  0.00     0.044 C 
BRANCH   4   6
HETATM    6  C   UNL     1     -44.378 -53.143  13.328  1.00  0.00     0.183 C 
BRANCH   6   7
HETATM    7  N   UNL     1     -43.003 -53.518  13.600  1.00  0.00    -0.302 N 
HETATM    8  C   UNL     1     -42.416 -53.593  14.830  1.00  0.00     0.111 A 
HETATM    9  C   UNL     1     -41.151 -54.084  14.616  1.00  0.00     0.037 A 
HETATM   10  C   UNL     1     -41.076 -54.279  13.226  1.00  0.00     0.108 A 
HETATM   11  N   UNL     1     -42.206 -53.944  12.603  1.00  0.00    -0.310 N 
ATOM     12  HN  UNL     1     -42.416 -53.998  11.607  1.00  0.00     0.186 HD
ENDBRANCH   6   7
ENDBRANCH   4   6
ENDBRANCH   2   4
ENDBRANCH   1   2
BRANCH   1  13
HETATM   13  C   UNL     1     -41.769 -50.033  12.300  1.00  0.00     0.174 C 
BRANCH  13  14
HETATM   14  O   UNL     1     -41.826 -51.262  11.561  1.00  0.00    -0.392 OA
HETATM   15  H   UNL     1     -42.132 -51.058  10.661  1.00  0.00     0.210 HD
ENDBRANCH  13  14
BRANCH  13  16
HETATM   16  C   UNL     1     -41.742 -48.806  11.354  1.00  0.00     0.305 C 
BRANCH  16  17
HETATM   17  N   UNL     1     -42.168 -47.501  11.891  1.00  0.00     0.096 N 
HETATM   18  C   UNL     1     -43.286 -46.956  11.082  1.00  0.00     0.303 C 
HETATM   19  C   UNL     1     -42.832 -46.446   9.695  1.00  0.00     0.146 C 
HETATM   20  C   UNL     1     -44.007 -45.908   8.891  1.00  0.00     0.041 C 
HETATM   21  O   UNL     1     -41.863 -45.401   9.849  1.00  0.00    -0.378 OA
HETATM   22  C   UNL     1     -40.713 -45.868  10.580  1.00  0.00     0.146 C 
HETATM   23  C   UNL     1     -39.784 -44.673  10.765  1.00  0.00     0.041 C 
HETATM   24  C   UNL     1     -41.114 -46.467  11.952  1.00  0.00     0.303 C 
ENDBRANCH  16  17
ENDBRANCH  13  16
ENDBRANCH   1  13
TORSDOF 8
ENDMDL
