MODEL 1
REMARK VINA RESULT:      -5.7      0.000      0.000
REMARK  4 active torsions:
REMARK  status: ('A' for Active; 'I' for Inactive)
REMARK    1  A    between atoms: C_2  and  S_3 
REMARK    2  A    between atoms: S_3  and  C_4 
REMARK    3  A    between atoms: C_8  and  N_9 
REMARK       I    between atoms: N_9  and  C_10 
REMARK       I    between atoms: C_10  and  N_12 
REMARK    4  A    between atoms: N_12  and  C_13 
ROOT
HETATM    1  N   UNL     1     -42.807 -50.215  12.401  1.00  0.00    -0.337 N 
HETATM    2  C   UNL     1     -43.336 -51.163  13.250  1.00  0.00     0.321 C 
HETATM    3  O   UNL     1     -43.056 -51.236  14.439  1.00  0.00    -0.247 OA
HETATM    4  N   UNL     1     -44.281 -51.923  12.595  1.00  0.00    -0.306 N 
HETATM    5  H   UNL     1     -42.786 -50.439  11.415  1.00  0.00     0.164 HD
HETATM    6  H   UNL     1     -44.753 -51.413  11.854  1.00  0.00     0.171 HD
ENDROOT
BRANCH   1   7
HETATM    7  C   UNL     1     -42.024 -49.085  12.882  1.00  0.00     0.100 C 
HETATM    8  C   UNL     1     -41.977 -47.901  11.893  1.00  0.00     0.070 C 
HETATM    9  C   UNL     1     -40.874 -48.277  10.897  1.00  0.00     0.017 C 
HETATM   10  C   UNL     1     -39.932 -49.220  11.645  1.00  0.00     0.003 C 
HETATM   11  C   UNL     1     -40.545 -49.448  13.024  1.00  0.00     0.026 C 
BRANCH   8  12
HETATM   12  S   UNL     1     -43.516 -47.496  10.989  1.00  0.00    -0.163 SA
BRANCH  12  13
HETATM   13  C   UNL     1     -42.920 -47.650   9.277  1.00  0.00     0.070 C 
HETATM   14  C   UNL     1     -44.102 -47.618   8.322  1.00  0.00     0.016 C 
ENDBRANCH  12  13
ENDBRANCH   8  12
ENDBRANCH   1   7
BRANCH   4  15
HETATM   15  C   UNL     1     -45.059 -52.918  13.227  1.00  0.00     0.077 A 
HETATM   16  C   UNL     1     -44.720 -54.267  13.216  1.00  0.00     0.050 A 
HETATM   17  C   UNL     1     -45.575 -55.158  13.853  1.00  0.00     0.090 A 
HETATM   18  N   UNL     1     -46.703 -54.799  14.507  1.00  0.00    -0.372 N 
HETATM   19  C   UNL     1     -46.999 -53.476  14.507  1.00  0.00     0.132 A 
ATOM     20  HN  UNL     1     -47.298 -55.484  14.972  1.00  0.00     0.164 HD
HETATM   21  C   UNL     1     -46.233 -52.524  13.871  1.00  0.00     0.158 A 
HETATM   22  F   UNL     1     -46.584 -51.229  13.909  1.00  0.00    -0.202 F 
ENDBRANCH   4  15
TORSDOF 4
ENDMDL
MODEL 2
REMARK VINA RESULT:      -5.5      2.942      7.188
REMARK  4 active torsions:
REMARK  status: ('A' for Active; 'I' for Inactive)
REMARK    1  A    between atoms: C_2  and  S_3 
REMARK    2  A    between atoms: S_3  and  C_4 
REMARK    3  A    between atoms: C_8  and  N_9 
REMARK       I    between atoms: N_9  and  C_10 
REMARK       I    between atoms: C_10  and  N_12 
REMARK    4  A    between atoms: N_12  and  C_13 
ROOT
HETATM    1  N   UNL     1     -43.408 -50.898  12.640  1.00  0.00    -0.337 N 
HETATM    2  C   UNL     1     -43.084 -49.564  12.514  1.00  0.00     0.321 C 
HETATM    3  O   UNL     1     -43.355 -48.721  13.359  1.00  0.00    -0.247 OA
HETATM    4  N   UNL     1     -42.337 -49.355  11.375  1.00  0.00    -0.306 N 
HETATM    5  H   UNL     1     -43.492 -51.435  11.788  1.00  0.00     0.164 HD
HETATM    6  H   UNL     1     -41.777 -50.162  11.117  1.00  0.00     0.171 HD
ENDROOT
BRANCH   1   7
HETATM    7  C   UNL     1     -43.918 -51.464  13.881  1.00  0.00     0.100 C 
HETATM    8  C   UNL     1     -43.807 -53.002  13.950  1.00  0.00     0.070 C 
HETATM    9  C   UNL     1     -45.032 -53.510  13.182  1.00  0.00     0.017 C 
HETATM   10  C   UNL     1     -46.081 -52.404  13.279  1.00  0.00     0.003 C 
HETATM   11  C   UNL     1     -45.425 -51.242  14.020  1.00  0.00     0.026 C 
BRANCH   8  12
HETATM   12  S   UNL     1     -42.289 -53.768  13.273  1.00  0.00    -0.163 SA
BRANCH  12  13
HETATM   13  C   UNL     1     -41.619 -54.519  14.789  1.00  0.00     0.070 C 
HETATM   14  C   UNL     1     -42.704 -55.331  15.477  1.00  0.00     0.016 C 
ENDBRANCH  12  13
ENDBRANCH   8  12
ENDBRANCH   1   7
BRANCH   4  15
HETATM   15  C   UNL     1     -41.784 -48.105  11.021  1.00  0.00     0.077 A 
HETATM   16  C   UNL     1     -40.507 -47.704  11.402  1.00  0.00     0.050 A 
HETATM   17  C   UNL     1     -40.079 -46.442  11.012  1.00  0.00     0.090 A 
HETATM   18  N   UNL     1     -40.810 -45.584  10.264  1.00  0.00    -0.372 N 
HETATM   19  C   UNL     1     -42.044 -46.010   9.900  1.00  0.00     0.132 A 
ATOM     20  HN  UNL     1     -40.452 -44.669   9.989  1.00  0.00     0.164 HD
HETATM   21  C   UNL     1     -42.570 -47.228  10.271  1.00  0.00     0.158 A 
HETATM   22  F   UNL     1     -43.801 -47.587   9.878  1.00  0.00    -0.202 F 
ENDBRANCH   4  15
TORSDOF 4
ENDMDL
MODEL 3
REMARK VINA RESULT:      -5.4      2.660      6.714
REMARK  4 active torsions:
REMARK  status: ('A' for Active; 'I' for Inactive)
REMARK    1  A    between atoms: C_2  and  S_3 
REMARK    2  A    between atoms: S_3  and  C_4 
REMARK    3  A    between atoms: C_8  and  N_9 
REMARK       I    between atoms: N_9  and  C_10 
REMARK       I    between atoms: C_10  and  N_12 
REMARK    4  A    between atoms: N_12  and  C_13 
ROOT
HETATM    1  N   UNL     1     -42.781 -51.999  13.141  1.00  0.00    -0.337 N 
HETATM    2  C   UNL     1     -41.953 -51.188  12.396  1.00  0.00     0.321 C 
HETATM    3  O   UNL     1     -41.163 -51.612  11.562  1.00  0.00    -0.247 OA
HETATM    4  N   UNL     1     -42.222 -49.860  12.652  1.00  0.00    -0.306 N 
HETATM    5  H   UNL     1     -43.109 -51.637  14.026  1.00  0.00     0.164 HD
HETATM    6  H   UNL     1     -43.190 -49.697  12.912  1.00  0.00     0.171 HD
ENDROOT
BRANCH   1   7
HETATM    7  C   UNL     1     -42.943 -53.420  12.860  1.00  0.00     0.100 C 
HETATM    8  C   UNL     1     -44.349 -53.960  13.194  1.00  0.00     0.070 C 
HETATM    9  C   UNL     1     -44.306 -54.234  14.702  1.00  0.00     0.017 C 
HETATM   10  C   UNL     1     -42.839 -54.489  15.044  1.00  0.00     0.003 C 
HETATM   11  C   UNL     1     -42.045 -54.273  13.759  1.00  0.00     0.026 C 
BRANCH   8  12
HETATM   12  S   UNL     1     -45.779 -52.888  12.800  1.00  0.00    -0.163 SA
BRANCH  12  13
HETATM   13  C   UNL     1     -46.601 -52.858  14.422  1.00  0.00     0.070 C 
HETATM   14  C   UNL     1     -46.841 -51.418  14.844  1.00  0.00     0.016 C 
ENDBRANCH  12  13
ENDBRANCH   8  12
ENDBRANCH   1   7
BRANCH   4  15
HETATM   15  C   UNL     1     -41.595 -48.791  11.976  1.00  0.00     0.077 A 
HETATM   16  C   UNL     1     -40.247 -48.484  12.127  1.00  0.00     0.050 A 
HETATM   17  C   UNL     1     -39.745 -47.394  11.426  1.00  0.00     0.090 A 
HETATM   18  N   UNL     1     -40.475 -46.624  10.587  1.00  0.00    -0.372 N 
HETATM   19  C   UNL     1     -41.782 -46.957  10.454  1.00  0.00     0.132 A 
ATOM     20  HN  UNL     1     -40.065 -45.839  10.081  1.00  0.00     0.164 HD
HETATM   21  C   UNL     1     -42.377 -47.996  11.136  1.00  0.00     0.158 A 
HETATM   22  F   UNL     1     -43.678 -48.270  10.960  1.00  0.00    -0.202 F 
ENDBRANCH   4  15
TORSDOF 4
ENDMDL
MODEL 4
REMARK VINA RESULT:      -5.4      2.270      2.583
REMARK  4 active torsions:
REMARK  status: ('A' for Active; 'I' for Inactive)
REMARK    1  A    between atoms: C_2  and  S_3 
REMARK    2  A    between atoms: S_3  and  C_4 
REMARK    3  A    between atoms: C_8  and  N_9 
REMARK       I    between atoms: N_9  and  C_10 
REMARK       I    between atoms: C_10  and  N_12 
REMARK    4  A    between atoms: N_12  and  C_13 
ROOT
HETATM    1  N   UNL     1     -40.579 -51.027  12.619  1.00  0.00    -0.337 N 
HETATM    2  C   UNL     1     -41.604 -51.649  13.299  1.00  0.00     0.321 C 
HETATM    3  O   UNL     1     -41.670 -51.702  14.520  1.00  0.00    -0.247 OA
HETATM    4  N   UNL     1     -42.568 -52.092  12.418  1.00  0.00    -0.306 N 
HETATM    5  H   UNL     1     -40.399 -51.336  11.674  1.00  0.00     0.164 HD
HETATM    6  H   UNL     1     -42.627 -51.523  11.579  1.00  0.00     0.171 HD
ENDROOT
BRANCH   1   7
HETATM    7  C   UNL     1     -39.587 -50.198  13.289  1.00  0.00     0.100 C 
HETATM    8  C   UNL     1     -39.163 -48.959  12.472  1.00  0.00     0.070 C 
HETATM    9  C   UNL     1     -38.104 -49.487  11.498  1.00  0.00     0.017 C 
HETATM   10  C   UNL     1     -37.493 -50.720  12.163  1.00  0.00     0.003 C 
HETATM   11  C   UNL     1     -38.262 -50.941  13.463  1.00  0.00     0.026 C 
BRANCH   8  12
HETATM   12  S   UNL     1     -40.469 -48.072  11.546  1.00  0.00    -0.163 SA
BRANCH  12  13
HETATM   13  C   UNL     1     -39.980 -46.354  11.890  1.00  0.00     0.070 C 
HETATM   14  C   UNL     1     -39.854 -45.590  10.582  1.00  0.00     0.016 C 
ENDBRANCH  12  13
ENDBRANCH   8  12
ENDBRANCH   1   7
BRANCH   4  15
HETATM   15  C   UNL     1     -43.780 -52.692  12.822  1.00  0.00     0.077 A 
HETATM   16  C   UNL     1     -43.942 -54.069  12.944  1.00  0.00     0.050 A 
HETATM   17  C   UNL     1     -45.189 -54.545  13.329  1.00  0.00     0.090 A 
HETATM   18  N   UNL     1     -46.251 -53.760  13.618  1.00  0.00    -0.372 N 
HETATM   19  C   UNL     1     -46.056 -52.423  13.499  1.00  0.00     0.132 A 
ATOM     20  HN  UNL     1     -47.148 -54.150  13.909  1.00  0.00     0.164 HD
HETATM   21  C   UNL     1     -44.868 -51.860  13.088  1.00  0.00     0.158 A 
HETATM   22  F   UNL     1     -44.744 -50.528  12.990  1.00  0.00    -0.202 F 
ENDBRANCH   4  15
TORSDOF 4
ENDMDL
MODEL 5
REMARK VINA RESULT:      -5.3      3.667      6.754
REMARK  4 active torsions:
REMARK  status: ('A' for Active; 'I' for Inactive)
REMARK    1  A    between atoms: C_2  and  S_3 
REMARK    2  A    between atoms: S_3  and  C_4 
REMARK    3  A    between atoms: C_8  and  N_9 
REMARK       I    between atoms: N_9  and  C_10 
REMARK       I    between atoms: C_10  and  N_12 
REMARK    4  A    between atoms: N_12  and  C_13 
ROOT
HETATM    1  N   UNL     1     -41.635 -51.377  12.355  1.00  0.00    -0.337 N 
HETATM    2  C   UNL     1     -42.094 -50.087  12.192  1.00  0.00     0.321 C 
HETATM    3  O   UNL     1     -42.811 -49.517  13.003  1.00  0.00    -0.247 OA
HETATM    4  N   UNL     1     -41.547 -49.521  11.060  1.00  0.00    -0.306 N 
HETATM    5  H   UNL     1     -41.383 -51.886  11.519  1.00  0.00     0.164 HD
HETATM    6  H   UNL     1     -40.628 -49.892  10.838  1.00  0.00     0.171 HD
ENDROOT
BRANCH   1   7
HETATM    7  C   UNL     1     -41.792 -52.109  13.604  1.00  0.00     0.100 C 
HETATM    8  C   UNL     1     -40.488 -52.219  14.423  1.00  0.00     0.070 C 
HETATM    9  C   UNL     1     -39.738 -53.398  13.793  1.00  0.00     0.017 C 
HETATM   10  C   UNL     1     -40.806 -54.290  13.161  1.00  0.00     0.003 C 
HETATM   11  C   UNL     1     -42.142 -53.577  13.353  1.00  0.00     0.026 C 
BRANCH   8  12
HETATM   12  S   UNL     1     -39.399 -50.749  14.476  1.00  0.00    -0.163 SA
BRANCH  12  13
HETATM   13  C   UNL     1     -38.064 -51.313  13.377  1.00  0.00     0.070 C 
HETATM   14  C   UNL     1     -37.945 -50.366  12.194  1.00  0.00     0.016 C 
ENDBRANCH  12  13
ENDBRANCH   8  12
ENDBRANCH   1   7
BRANCH   4  15
HETATM   15  C   UNL     1     -41.760 -48.180  10.675  1.00  0.00     0.077 A 
HETATM   16  C   UNL     1     -42.855 -47.771   9.920  1.00  0.00     0.050 A 
HETATM   17  C   UNL     1     -42.947 -46.426   9.583  1.00  0.00     0.090 A 
HETATM   18  N   UNL     1     -42.056 -45.481   9.961  1.00  0.00    -0.372 N 
HETATM   19  C   UNL     1     -41.007 -45.911  10.704  1.00  0.00     0.132 A 
ATOM     20  HN  UNL     1     -42.168 -44.501   9.702  1.00  0.00     0.164 HD
HETATM   21  C   UNL     1     -40.811 -47.229  11.055  1.00  0.00     0.158 A 
HETATM   22  F   UNL     1     -39.749 -47.587  11.792  1.00  0.00    -0.202 F 
ENDBRANCH   4  15
TORSDOF 4
ENDMDL
MODEL 6
REMARK VINA RESULT:      -5.3      3.139      7.054
REMARK  4 active torsions:
REMARK  status: ('A' for Active; 'I' for Inactive)
REMARK    1  A    between atoms: C_2  and  S_3 
REMARK    2  A    between atoms: S_3  and  C_4 
REMARK    3  A    between atoms: C_8  and  N_9 
REMARK       I    between atoms: N_9  and  C_10 
REMARK       I    between atoms: C_10  and  N_12 
REMARK    4  A    between atoms: N_12  and  C_13 
ROOT
HETATM    1  N   UNL     1     -42.988 -51.024  12.401  1.00  0.00    -0.337 N 
HETATM    2  C   UNL     1     -42.783 -49.661  12.405  1.00  0.00     0.321 C 
HETATM    3  O   UNL     1     -43.057 -48.939  13.355  1.00  0.00    -0.247 OA
HETATM    4  N   UNL     1     -42.142 -49.267  11.250  1.00  0.00    -0.306 N 
HETATM    5  H   UNL     1     -43.093 -51.472  11.502  1.00  0.00     0.164 HD
HETATM    6  H   UNL     1     -41.541 -49.990  10.866  1.00  0.00     0.171 HD
ENDROOT
BRANCH   1   7
HETATM    7  C   UNL     1     -43.357 -51.762  13.602  1.00  0.00     0.100 C 
HETATM    8  C   UNL     1     -42.908 -53.238  13.582  1.00  0.00     0.070 C 
HETATM    9  C   UNL     1     -43.993 -53.957  12.773  1.00  0.00     0.017 C 
HETATM   10  C   UNL     1     -45.261 -53.118  12.924  1.00  0.00     0.003 C 
HETATM   11  C   UNL     1     -44.876 -51.886  13.738  1.00  0.00     0.026 C 
BRANCH   8  12
HETATM   12  S   UNL     1     -41.261 -53.609  12.877  1.00  0.00    -0.163 SA
BRANCH  12  13
HETATM   13  C   UNL     1     -40.206 -52.760  14.092  1.00  0.00     0.070 C 
HETATM   14  C   UNL     1     -39.551 -51.552  13.442  1.00  0.00     0.016 C 
ENDBRANCH  12  13
ENDBRANCH   8  12
ENDBRANCH   1   7
BRANCH   4  15
HETATM   15  C   UNL     1     -41.720 -47.943  11.002  1.00  0.00     0.077 A 
HETATM   16  C   UNL     1     -42.534 -46.985  10.406  1.00  0.00     0.050 A 
HETATM   17  C   UNL     1     -42.001 -45.720  10.194  1.00  0.00     0.090 A 
HETATM   18  N   UNL     1     -40.751 -45.347  10.550  1.00  0.00    -0.372 N 
HETATM   19  C   UNL     1     -39.987 -46.301  11.138  1.00  0.00     0.132 A 
ATOM     20  HN  UNL     1     -40.402 -44.403  10.386  1.00  0.00     0.164 HD
HETATM   21  C   UNL     1     -40.415 -47.593  11.355  1.00  0.00     0.158 A 
HETATM   22  F   UNL     1     -39.607 -48.489  11.941  1.00  0.00    -0.202 F 
ENDBRANCH   4  15
TORSDOF 4
ENDMDL
MODEL 7
REMARK VINA RESULT:      -5.3      2.421      3.082
REMARK  4 active torsions:
REMARK  status: ('A' for Active; 'I' for Inactive)
REMARK    1  A    between atoms: C_2  and  S_3 
REMARK    2  A    between atoms: S_3  and  C_4 
REMARK    3  A    between atoms: C_8  and  N_9 
REMARK       I    between atoms: N_9  and  C_10 
REMARK       I    between atoms: C_10  and  N_12 
REMARK    4  A    between atoms: N_12  and  C_13 
ROOT
HETATM    1  N   UNL     1     -40.188 -51.710  13.105  1.00  0.00    -0.337 N 
HETATM    2  C   UNL     1     -41.422 -51.991  13.652  1.00  0.00     0.321 C 
HETATM    3  O   UNL     1     -41.850 -51.454  14.665  1.00  0.00    -0.247 OA
HETATM    4  N   UNL     1     -42.119 -52.865  12.846  1.00  0.00    -0.306 N 
HETATM    5  H   UNL     1     -39.766 -52.424  12.527  1.00  0.00     0.164 HD
HETATM    6  H   UNL     1     -41.875 -52.775  11.864  1.00  0.00     0.171 HD
ENDROOT
BRANCH   1   7
HETATM    7  C   UNL     1     -39.365 -50.598  13.562  1.00  0.00     0.100 C 
HETATM    8  C   UNL     1     -39.146 -49.510  12.490  1.00  0.00     0.070 C 
HETATM    9  C   UNL     1     -37.995 -50.045  11.631  1.00  0.00     0.017 C 
HETATM   10  C   UNL     1     -37.193 -50.983  12.534  1.00  0.00     0.003 C 
HETATM   11  C   UNL     1     -37.935 -51.049  13.866  1.00  0.00     0.026 C 
BRANCH   8  12
HETATM   12  S   UNL     1     -40.568 -49.080  11.422  1.00  0.00    -0.163 SA
BRANCH  12  13
HETATM   13  C   UNL     1     -41.671 -48.333  12.661  1.00  0.00     0.070 C 
HETATM   14  C   UNL     1     -43.077 -48.883  12.488  1.00  0.00     0.016 C 
ENDBRANCH  12  13
ENDBRANCH   8  12
ENDBRANCH   1   7
BRANCH   4  15
HETATM   15  C   UNL     1     -43.447 -53.272  13.098  1.00  0.00     0.077 A 
HETATM   16  C   UNL     1     -44.556 -52.590  12.609  1.00  0.00     0.050 A 
HETATM   17  C   UNL     1     -45.816 -53.073  12.942  1.00  0.00     0.090 A 
HETATM   18  N   UNL     1     -46.037 -54.179  13.689  1.00  0.00    -0.372 N 
HETATM   19  C   UNL     1     -44.935 -54.825  14.141  1.00  0.00     0.132 A 
ATOM     20  HN  UNL     1     -46.980 -54.507  13.901  1.00  0.00     0.164 HD
HETATM   21  C   UNL     1     -43.647 -54.401  13.895  1.00  0.00     0.158 A 
HETATM   22  F   UNL     1     -42.600 -55.088  14.375  1.00  0.00    -0.202 F 
ENDBRANCH   4  15
TORSDOF 4
ENDMDL
MODEL 8
REMARK VINA RESULT:      -5.2      4.538      6.473
REMARK  4 active torsions:
REMARK  status: ('A' for Active; 'I' for Inactive)
REMARK    1  A    between atoms: C_2  and  S_3 
REMARK    2  A    between atoms: S_3  and  C_4 
REMARK    3  A    between atoms: C_8  and  N_9 
REMARK       I    between atoms: N_9  and  C_10 
REMARK       I    between atoms: C_10  and  N_12 
REMARK    4  A    between atoms: N_12  and  C_13 
ROOT
HETATM    1  N   UNL     1     -44.463 -52.987  16.181  1.00  0.00    -0.337 N 
HETATM    2  C   UNL     1     -43.428 -53.889  16.063  1.00  0.00     0.321 C 
HETATM    3  O   UNL     1     -43.580 -55.103  16.110  1.00  0.00    -0.247 OA
HETATM    4  N   UNL     1     -42.248 -53.234  15.783  1.00  0.00    -0.306 N 
HETATM    5  H   UNL     1     -44.231 -52.057  16.499  1.00  0.00     0.164 HD
HETATM    6  H   UNL     1     -42.389 -52.371  15.266  1.00  0.00     0.171 HD
ENDROOT
BRANCH   1   7
HETATM    7  C   UNL     1     -45.861 -53.396  16.168  1.00  0.00     0.100 C 
HETATM    8  C   UNL     1     -46.625 -52.946  14.904  1.00  0.00     0.070 C 
HETATM    9  C   UNL     1     -47.023 -51.495  15.193  1.00  0.00     0.017 C 
HETATM   10  C   UNL     1     -47.095 -51.371  16.714  1.00  0.00     0.003 C 
HETATM   11  C   UNL     1     -46.654 -52.716  17.285  1.00  0.00     0.026 C 
BRANCH   8  12
HETATM   12  S   UNL     1     -45.737 -53.039  13.306  1.00  0.00    -0.163 SA
BRANCH  12  13
HETATM   13  C   UNL     1     -46.286 -51.476  12.555  1.00  0.00     0.070 C 
HETATM   14  C   UNL     1     -47.211 -51.770  11.386  1.00  0.00     0.016 C 
ENDBRANCH  12  13
ENDBRANCH   8  12
ENDBRANCH   1   7
BRANCH   4  15
HETATM   15  C   UNL     1     -41.029 -53.896  15.521  1.00  0.00     0.077 A 
HETATM   16  C   UNL     1     -40.228 -54.436  16.522  1.00  0.00     0.050 A 
HETATM   17  C   UNL     1     -39.038 -55.046  16.145  1.00  0.00     0.090 A 
HETATM   18  N   UNL     1     -38.616 -55.173  14.866  1.00  0.00    -0.372 N 
HETATM   19  C   UNL     1     -39.425 -54.645  13.914  1.00  0.00     0.132 A 
ATOM     20  HN  UNL     1     -37.740 -55.639  14.631  1.00  0.00     0.164 HD
HETATM   21  C   UNL     1     -40.604 -53.989  14.194  1.00  0.00     0.158 A 
HETATM   22  F   UNL     1     -41.357 -53.488  13.204  1.00  0.00    -0.202 F 
ENDBRANCH   4  15
TORSDOF 4
ENDMDL
MODEL 9
REMARK VINA RESULT:      -5.1      1.436      2.811
REMARK  4 active torsions:
REMARK  status: ('A' for Active; 'I' for Inactive)
REMARK    1  A    between atoms: C_2  and  S_3 
REMARK    2  A    between atoms: S_3  and  C_4 
REMARK    3  A    between atoms: C_8  and  N_9 
REMARK       I    between atoms: N_9  and  C_10 
REMARK       I    between atoms: C_10  and  N_12 
REMARK    4  A    between atoms: N_12  and  C_13 
ROOT
HETATM    1  N   UNL     1     -42.527 -50.576  12.109  1.00  0.00    -0.337 N 
HETATM    2  C   UNL     1     -42.974 -51.647  12.853  1.00  0.00     0.321 C 
HETATM    3  O   UNL     1     -42.305 -52.195  13.719  1.00  0.00    -0.247 OA
HETATM    4  N   UNL     1     -44.290 -51.926  12.553  1.00  0.00    -0.306 N 
HETATM    5  H   UNL     1     -42.956 -50.430  11.206  1.00  0.00     0.164 HD
HETATM    6  H   UNL     1     -44.811 -51.105  12.262  1.00  0.00     0.171 HD
ENDROOT
BRANCH   1   7
HETATM    7  C   UNL     1     -41.296 -49.865  12.425  1.00  0.00     0.100 C 
HETATM    8  C   UNL     1     -41.528 -48.513  13.133  1.00  0.00     0.070 C 
HETATM    9  C   UNL     1     -41.835 -47.533  11.996  1.00  0.00     0.017 C 
HETATM   10  C   UNL     1     -41.160 -48.105  10.750  1.00  0.00     0.003 C 
HETATM   11  C   UNL     1     -40.551 -49.444  11.157  1.00  0.00     0.026 C 
BRANCH   8  12
HETATM   12  S   UNL     1     -42.854 -48.438  14.392  1.00  0.00    -0.163 SA
BRANCH  12  13
HETATM   13  C   UNL     1     -41.967 -49.136  15.819  1.00  0.00     0.070 C 
HETATM   14  C   UNL     1     -42.855 -50.146  16.526  1.00  0.00     0.016 C 
ENDBRANCH  12  13
ENDBRANCH   8  12
ENDBRANCH   1   7
BRANCH   4  15
HETATM   15  C   UNL     1     -45.051 -52.914  13.215  1.00  0.00     0.077 A 
HETATM   16  C   UNL     1     -44.764 -54.273  13.134  1.00  0.00     0.050 A 
HETATM   17  C   UNL     1     -45.597 -55.155  13.812  1.00  0.00     0.090 A 
HETATM   18  N   UNL     1     -46.655 -54.779  14.567  1.00  0.00    -0.372 N 
HETATM   19  C   UNL     1     -46.900 -53.448  14.633  1.00  0.00     0.132 A 
ATOM     20  HN  UNL     1     -47.235 -55.459  15.059  1.00  0.00     0.164 HD
HETATM   21  C   UNL     1     -46.153 -52.502  13.965  1.00  0.00     0.158 A 
HETATM   22  F   UNL     1     -46.452 -51.198  14.072  1.00  0.00    -0.202 F 
ENDBRANCH   4  15
TORSDOF 4
ENDMDL
