MODEL 1
REMARK VINA RESULT:      -6.7      0.000      0.000
REMARK  3 active torsions:
REMARK  status: ('A' for Active; 'I' for Inactive)
REMARK       I    between atoms: C_2  and  N_3 
REMARK       I    between atoms: C_2  and  N_18 
REMARK    1  A    between atoms: N_3  and  C_4 
REMARK    2  A    between atoms: C_7  and  C_10 
REMARK       I    between atoms: C_10  and  N_12 
REMARK    3  A    between atoms: N_18  and  C_19 
ROOT
HETATM    1  C   UNL     1     -41.889 -49.098  12.368  1.00  0.00     0.086 C 
HETATM    2  C   UNL     1     -42.038 -47.767  13.107  1.00  0.00     0.026 C 
HETATM    3  C   UNL     1     -42.856 -46.758  12.298  1.00  0.00     0.016 C 
HETATM    4  C   UNL     1     -42.328 -46.523  10.871  1.00  0.00     0.078 C 
HETATM    5  C   UNL     1     -41.993 -47.833  10.145  1.00  0.00     0.016 C 
HETATM    6  C   UNL     1     -41.237 -48.846  11.002  1.00  0.00     0.026 C 
ENDROOT
BRANCH   1   7
HETATM    7  N   UNL     1     -43.194 -49.761  12.301  1.00  0.00    -0.338 N 
HETATM    8  C   UNL     1     -43.409 -50.985  12.904  1.00  0.00     0.321 C 
HETATM    9  O   UNL     1     -42.505 -51.663  13.367  1.00  0.00    -0.247 OA
HETATM   10  N   UNL     1     -44.749 -51.313  12.877  1.00  0.00    -0.309 N 
HETATM   11  H   UNL     1     -45.331 -50.754  12.272  1.00  0.00     0.170 HD
HETATM   12  H   UNL     1     -43.986 -49.140  12.373  1.00  0.00     0.164 HD
BRANCH  10  13
HETATM   13  C   UNL     1     -45.333 -52.470  13.434  1.00  0.00     0.038 A 
HETATM   14  C   UNL     1     -44.877 -53.758  13.168  1.00  0.00     0.046 A 
HETATM   15  C   UNL     1     -45.545 -54.826  13.747  1.00  0.00     0.090 A 
HETATM   16  N   UNL     1     -46.611 -54.694  14.561  1.00  0.00    -0.375 N 
HETATM   17  C   UNL     1     -47.026 -53.438  14.813  1.00  0.00     0.090 A 
ATOM     18  HN  UNL     1     -47.080 -55.504  14.965  1.00  0.00     0.164 HD
HETATM   19  C   UNL     1     -46.421 -52.306  14.291  1.00  0.00     0.046 A 
ENDBRANCH  10  13
ENDBRANCH   1   7
BRANCH   4  20
HETATM   20  C   UNL     1     -41.153 -45.539  10.896  1.00  0.00     0.224 C 
HETATM   21  O   UNL     1     -40.004 -45.936  10.696  1.00  0.00    -0.273 OA
HETATM   22  N   UNL     1     -41.415 -44.202  11.199  1.00  0.00    -0.350 N 
HETATM   23  C   UNL     1     -40.260 -43.305  11.342  1.00  0.00     0.136 C 
HETATM   24  C   UNL     1     -42.718 -43.544  11.008  1.00  0.00     0.136 C 
HETATM   25  C   UNL     1     -40.395 -42.323  12.506  1.00  0.00     0.093 C 
HETATM   26  S   UNL     1     -41.853 -41.248  12.328  1.00  0.00    -0.166 SA
HETATM   27  C   UNL     1     -43.089 -42.565  12.122  1.00  0.00     0.093 C 
ENDBRANCH   4  20
TORSDOF 3
ENDMDL
MODEL 2
REMARK VINA RESULT:      -6.1      4.790      9.571
REMARK  3 active torsions:
REMARK  status: ('A' for Active; 'I' for Inactive)
REMARK       I    between atoms: C_2  and  N_3 
REMARK       I    between atoms: C_2  and  N_18 
REMARK    1  A    between atoms: N_3  and  C_4 
REMARK    2  A    between atoms: C_7  and  C_10 
REMARK       I    between atoms: C_10  and  N_12 
REMARK    3  A    between atoms: N_18  and  C_19 
ROOT
HETATM    1  C   UNL     1     -43.630 -51.785  13.752  1.00  0.00     0.086 C 
HETATM    2  C   UNL     1     -42.605 -51.841  14.885  1.00  0.00     0.026 C 
HETATM    3  C   UNL     1     -41.474 -52.826  14.578  1.00  0.00     0.016 C 
HETATM    4  C   UNL     1     -41.957 -54.244  14.221  1.00  0.00     0.078 C 
HETATM    5  C   UNL     1     -43.115 -54.234  13.213  1.00  0.00     0.016 C 
HETATM    6  C   UNL     1     -44.192 -53.192  13.510  1.00  0.00     0.026 C 
ENDROOT
BRANCH   1   7
HETATM    7  N   UNL     1     -43.013 -51.170  12.574  1.00  0.00    -0.338 N 
HETATM    8  C   UNL     1     -42.837 -49.802  12.487  1.00  0.00     0.321 C 
HETATM    9  O   UNL     1     -43.332 -49.019  13.284  1.00  0.00    -0.247 OA
HETATM   10  N   UNL     1     -42.067 -49.479  11.390  1.00  0.00    -0.309 N 
HETATM   11  H   UNL     1     -41.920 -50.216  10.717  1.00  0.00     0.170 HD
HETATM   12  H   UNL     1     -42.247 -51.693  12.178  1.00  0.00     0.164 HD
BRANCH  10  13
HETATM   13  C   UNL     1     -41.657 -48.182  11.015  1.00  0.00     0.038 A 
HETATM   14  C   UNL     1     -40.436 -47.629  11.388  1.00  0.00     0.046 A 
HETATM   15  C   UNL     1     -40.148 -46.334  10.987  1.00  0.00     0.090 A 
HETATM   16  N   UNL     1     -40.980 -45.574  10.248  1.00  0.00    -0.375 N 
HETATM   17  C   UNL     1     -42.151 -46.134   9.888  1.00  0.00     0.090 A 
ATOM     18  HN  UNL     1     -40.735 -44.622   9.975  1.00  0.00     0.164 HD
HETATM   19  C   UNL     1     -42.526 -47.423  10.230  1.00  0.00     0.046 A 
ENDBRANCH  10  13
ENDBRANCH   1   7
BRANCH   4  20
HETATM   20  C   UNL     1     -42.286 -55.029  15.496  1.00  0.00     0.224 C 
HETATM   21  O   UNL     1     -43.456 -55.276  15.792  1.00  0.00    -0.273 OA
HETATM   22  N   UNL     1     -41.232 -55.408  16.330  1.00  0.00    -0.350 N 
HETATM   23  C   UNL     1     -41.580 -56.047  17.607  1.00  0.00     0.136 C 
HETATM   24  C   UNL     1     -39.838 -55.577  15.888  1.00  0.00     0.136 C 
HETATM   25  C   UNL     1     -40.721 -55.570  18.778  1.00  0.00     0.093 C 
HETATM   26  S   UNL     1     -38.953 -55.905  18.509  1.00  0.00    -0.166 SA
HETATM   27  C   UNL     1     -38.802 -55.080  16.896  1.00  0.00     0.093 C 
ENDBRANCH   4  20
TORSDOF 3
ENDMDL
MODEL 3
REMARK VINA RESULT:      -5.9      1.830      2.191
REMARK  3 active torsions:
REMARK  status: ('A' for Active; 'I' for Inactive)
REMARK       I    between atoms: C_2  and  N_3 
REMARK       I    between atoms: C_2  and  N_18 
REMARK    1  A    between atoms: N_3  and  C_4 
REMARK    2  A    between atoms: C_7  and  C_10 
REMARK       I    between atoms: C_10  and  N_12 
REMARK    3  A    between atoms: N_18  and  C_19 
ROOT
HETATM    1  C   UNL     1     -41.443 -48.923  11.199  1.00  0.00     0.086 C 
HETATM    2  C   UNL     1     -40.833 -47.963  12.221  1.00  0.00     0.026 C 
HETATM    3  C   UNL     1     -41.868 -46.967  12.751  1.00  0.00     0.016 C 
HETATM    4  C   UNL     1     -42.603 -46.182  11.649  1.00  0.00     0.078 C 
HETATM    5  C   UNL     1     -43.083 -47.084  10.504  1.00  0.00     0.016 C 
HETATM    6  C   UNL     1     -42.051 -48.113  10.046  1.00  0.00     0.026 C 
ENDROOT
BRANCH   1   7
HETATM    7  N   UNL     1     -42.390 -49.812  11.877  1.00  0.00    -0.338 N 
HETATM    8  C   UNL     1     -41.994 -51.040  12.370  1.00  0.00     0.321 C 
HETATM    9  O   UNL     1     -40.903 -51.533  12.124  1.00  0.00    -0.247 OA
HETATM   10  N   UNL     1     -42.995 -51.606  13.132  1.00  0.00    -0.309 N 
HETATM   11  H   UNL     1     -43.905 -51.176  13.059  1.00  0.00     0.170 HD
HETATM   12  H   UNL     1     -43.056 -49.343  12.472  1.00  0.00     0.164 HD
BRANCH  10  13
HETATM   13  C   UNL     1     -42.924 -52.836  13.819  1.00  0.00     0.038 A 
HETATM   14  C   UNL     1     -43.916 -53.809  13.746  1.00  0.00     0.046 A 
HETATM   15  C   UNL     1     -43.755 -54.970  14.486  1.00  0.00     0.090 A 
HETATM   16  N   UNL     1     -42.690 -55.219  15.272  1.00  0.00    -0.375 N 
HETATM   17  C   UNL     1     -41.737 -54.269  15.317  1.00  0.00     0.090 A 
ATOM     18  HN  UNL     1     -42.608 -56.085  15.805  1.00  0.00     0.164 HD
HETATM   19  C   UNL     1     -41.800 -53.080  14.608  1.00  0.00     0.046 A 
ENDBRANCH  10  13
ENDBRANCH   1   7
BRANCH   4  20
HETATM   20  C   UNL     1     -41.738 -45.014  11.163  1.00  0.00     0.224 C 
HETATM   21  O   UNL     1     -41.089 -45.110  10.121  1.00  0.00    -0.273 OA
HETATM   22  N   UNL     1     -41.668 -43.867  11.956  1.00  0.00    -0.350 N 
HETATM   23  C   UNL     1     -40.735 -42.813  11.535  1.00  0.00     0.136 C 
HETATM   24  C   UNL     1     -42.698 -43.461  12.927  1.00  0.00     0.136 C 
HETATM   25  C   UNL     1     -39.971 -42.179  12.698  1.00  0.00     0.093 C 
HETATM   26  S   UNL     1     -41.088 -41.412  13.913  1.00  0.00    -0.166 SA
HETATM   27  C   UNL     1     -42.134 -42.867  14.219  1.00  0.00     0.093 C 
ENDBRANCH   4  20
TORSDOF 3
ENDMDL
MODEL 4
REMARK VINA RESULT:      -5.9      1.629      2.088
REMARK  3 active torsions:
REMARK  status: ('A' for Active; 'I' for Inactive)
REMARK       I    between atoms: C_2  and  N_3 
REMARK       I    between atoms: C_2  and  N_18 
REMARK    1  A    between atoms: N_3  and  C_4 
REMARK    2  A    between atoms: C_7  and  C_10 
REMARK       I    between atoms: C_10  and  N_12 
REMARK    3  A    between atoms: N_18  and  C_19 
ROOT
HETATM    1  C   UNL     1     -40.623 -50.080  13.835  1.00  0.00     0.086 C 
HETATM    2  C   UNL     1     -41.248 -48.793  14.374  1.00  0.00     0.026 C 
HETATM    3  C   UNL     1     -41.719 -47.875  13.243  1.00  0.00     0.016 C 
HETATM    4  C   UNL     1     -40.629 -47.548  12.206  1.00  0.00     0.078 C 
HETATM    5  C   UNL     1     -39.848 -48.792  11.762  1.00  0.00     0.016 C 
HETATM    6  C   UNL     1     -39.453 -49.723  12.908  1.00  0.00     0.026 C 
ENDROOT
BRANCH   1   7
HETATM    7  N   UNL     1     -41.664 -50.896  13.205  1.00  0.00    -0.338 N 
HETATM    8  C   UNL     1     -42.548 -51.640  13.962  1.00  0.00     0.321 C 
HETATM    9  O   UNL     1     -42.414 -51.805  15.165  1.00  0.00    -0.247 OA
HETATM   10  N   UNL     1     -43.550 -52.161  13.170  1.00  0.00    -0.309 N 
HETATM   11  H   UNL     1     -43.398 -52.113  12.174  1.00  0.00     0.170 HD
HETATM   12  H   UNL     1     -42.092 -50.479  12.393  1.00  0.00     0.164 HD
BRANCH  10  13
HETATM   13  C   UNL     1     -44.641 -52.938  13.612  1.00  0.00     0.038 A 
HETATM   14  C   UNL     1     -45.752 -52.398  14.253  1.00  0.00     0.046 A 
HETATM   15  C   UNL     1     -46.755 -53.260  14.672  1.00  0.00     0.090 A 
HETATM   16  N   UNL     1     -46.723 -54.595  14.490  1.00  0.00    -0.375 N 
HETATM   17  C   UNL     1     -45.644 -55.092  13.857  1.00  0.00     0.090 A 
ATOM     18  HN  UNL     1     -47.478 -55.197  14.816  1.00  0.00     0.164 HD
HETATM   19  C   UNL     1     -44.596 -54.315  13.392  1.00  0.00     0.046 A 
ENDBRANCH  10  13
ENDBRANCH   1   7
BRANCH   4  20
HETATM   20  C   UNL     1     -39.721 -46.429  12.726  1.00  0.00     0.224 C 
HETATM   21  O   UNL     1     -38.798 -46.685  13.501  1.00  0.00    -0.273 OA
HETATM   22  N   UNL     1     -39.999 -45.117  12.340  1.00  0.00    -0.350 N 
HETATM   23  C   UNL     1     -39.194 -44.050  12.951  1.00  0.00     0.136 C 
HETATM   24  C   UNL     1     -40.736 -44.745  11.121  1.00  0.00     0.136 C 
HETATM   25  C   UNL     1     -40.012 -42.815  13.330  1.00  0.00     0.093 C 
HETATM   26  S   UNL     1     -40.831 -42.069  11.887  1.00  0.00    -0.166 SA
HETATM   27  C   UNL     1     -41.688 -43.563  11.306  1.00  0.00     0.093 C 
ENDBRANCH   4  20
TORSDOF 3
ENDMDL
MODEL 5
REMARK VINA RESULT:      -5.6      4.322      4.814
REMARK  3 active torsions:
REMARK  status: ('A' for Active; 'I' for Inactive)
REMARK       I    between atoms: C_2  and  N_3 
REMARK       I    between atoms: C_2  and  N_18 
REMARK    1  A    between atoms: N_3  and  C_4 
REMARK    2  A    between atoms: C_7  and  C_10 
REMARK       I    between atoms: C_10  and  N_12 
REMARK    3  A    between atoms: N_18  and  C_19 
ROOT
HETATM    1  C   UNL     1     -39.851 -51.289  12.612  1.00  0.00     0.086 C 
HETATM    2  C   UNL     1     -39.170 -49.923  12.698  1.00  0.00     0.026 C 
HETATM    3  C   UNL     1     -40.072 -48.881  13.365  1.00  0.00     0.016 C 
HETATM    4  C   UNL     1     -41.462 -48.748  12.716  1.00  0.00     0.078 C 
HETATM    5  C   UNL     1     -42.117 -50.109  12.444  1.00  0.00     0.016 C 
HETATM    6  C   UNL     1     -41.172 -51.148  11.842  1.00  0.00     0.026 C 
ENDROOT
BRANCH   1   7
HETATM    7  N   UNL     1     -39.995 -51.843  13.961  1.00  0.00    -0.338 N 
HETATM    8  C   UNL     1     -39.794 -53.186  14.211  1.00  0.00     0.321 C 
HETATM    9  O   UNL     1     -39.662 -54.013  13.321  1.00  0.00    -0.247 OA
HETATM   10  N   UNL     1     -39.790 -53.434  15.568  1.00  0.00    -0.309 N 
HETATM   11  H   UNL     1     -40.125 -52.687  16.157  1.00  0.00     0.170 HD
HETATM   12  H   UNL     1     -39.652 -51.247  14.699  1.00  0.00     0.164 HD
BRANCH  10  13
HETATM   13  C   UNL     1     -39.574 -54.685  16.184  1.00  0.00     0.038 A 
HETATM   14  C   UNL     1     -38.316 -55.142  16.563  1.00  0.00     0.046 A 
HETATM   15  C   UNL     1     -38.217 -56.401  17.135  1.00  0.00     0.090 A 
HETATM   16  N   UNL     1     -39.270 -57.212  17.354  1.00  0.00    -0.375 N 
HETATM   17  C   UNL     1     -40.479 -56.743  16.991  1.00  0.00     0.090 A 
ATOM     18  HN  UNL     1     -39.158 -58.134  17.774  1.00  0.00     0.164 HD
HETATM   19  C   UNL     1     -40.683 -55.497  16.422  1.00  0.00     0.046 A 
ENDBRANCH  10  13
ENDBRANCH   1   7
BRANCH   4  20
HETATM   20  C   UNL     1     -41.381 -47.866  11.465  1.00  0.00     0.224 C 
HETATM   21  O   UNL     1     -41.428 -48.371  10.342  1.00  0.00    -0.273 OA
HETATM   22  N   UNL     1     -41.202 -46.492  11.634  1.00  0.00    -0.350 N 
HETATM   23  C   UNL     1     -41.000 -45.685  10.422  1.00  0.00     0.136 C 
HETATM   24  C   UNL     1     -41.578 -45.745  12.845  1.00  0.00     0.136 C 
HETATM   25  C   UNL     1     -39.930 -44.606  10.584  1.00  0.00     0.093 C 
HETATM   26  S   UNL     1     -40.338 -43.432  11.913  1.00  0.00    -0.166 SA
HETATM   27  C   UNL     1     -40.582 -44.654  13.237  1.00  0.00     0.093 C 
ENDBRANCH   4  20
TORSDOF 3
ENDMDL
MODEL 6
REMARK VINA RESULT:      -5.5      3.200      9.138
REMARK  3 active torsions:
REMARK  status: ('A' for Active; 'I' for Inactive)
REMARK       I    between atoms: C_2  and  N_3 
REMARK       I    between atoms: C_2  and  N_18 
REMARK    1  A    between atoms: N_3  and  C_4 
REMARK    2  A    between atoms: C_7  and  C_10 
REMARK       I    between atoms: C_10  and  N_12 
REMARK    3  A    between atoms: N_18  and  C_19 
ROOT
HETATM    1  C   UNL     1     -40.978 -47.407  11.214  1.00  0.00     0.086 C 
HETATM    2  C   UNL     1     -42.361 -48.059  11.181  1.00  0.00     0.026 C 
HETATM    3  C   UNL     1     -42.788 -48.554  12.566  1.00  0.00     0.016 C 
HETATM    4  C   UNL     1     -41.768 -49.491  13.238  1.00  0.00     0.078 C 
HETATM    5  C   UNL     1     -40.330 -48.963  13.141  1.00  0.00     0.016 C 
HETATM    6  C   UNL     1     -39.959 -48.413  11.765  1.00  0.00     0.026 C 
ENDROOT
BRANCH   1   7
HETATM    7  N   UNL     1     -41.055 -46.152  11.966  1.00  0.00    -0.338 N 
HETATM    8  C   UNL     1     -41.334 -44.954  11.337  1.00  0.00     0.321 C 
HETATM    9  O   UNL     1     -41.357 -44.834  10.122  1.00  0.00    -0.247 OA
HETATM   10  N   UNL     1     -41.548 -43.955  12.264  1.00  0.00    -0.309 N 
HETATM   11  H   UNL     1     -41.280 -44.166  13.214  1.00  0.00     0.170 HD
HETATM   12  H   UNL     1     -41.485 -46.231  12.875  1.00  0.00     0.164 HD
BRANCH  10  13
HETATM   13  C   UNL     1     -41.892 -42.617  11.980  1.00  0.00     0.038 A 
HETATM   14  C   UNL     1     -43.198 -42.199  11.743  1.00  0.00     0.046 A 
HETATM   15  C   UNL     1     -43.418 -40.863  11.444  1.00  0.00     0.090 A 
HETATM   16  N   UNL     1     -42.441 -39.937  11.375  1.00  0.00    -0.375 N 
HETATM   17  C   UNL     1     -41.187 -40.363  11.621  1.00  0.00     0.090 A 
ATOM     18  HN  UNL     1     -42.641 -38.964  11.148  1.00  0.00     0.164 HD
HETATM   19  C   UNL     1     -40.866 -41.673  11.937  1.00  0.00     0.046 A 
ENDBRANCH  10  13
ENDBRANCH   1   7
BRANCH   4  20
HETATM   20  C   UNL     1     -41.917 -50.915  12.692  1.00  0.00     0.224 C 
HETATM   21  O   UNL     1     -41.213 -51.301  11.757  1.00  0.00    -0.273 OA
HETATM   22  N   UNL     1     -42.899 -51.738  13.245  1.00  0.00    -0.350 N 
HETATM   23  C   UNL     1     -43.108 -53.052  12.621  1.00  0.00     0.136 C 
HETATM   24  C   UNL     1     -43.458 -51.575  14.598  1.00  0.00     0.136 C 
HETATM   25  C   UNL     1     -44.582 -53.440  12.503  1.00  0.00     0.093 C 
HETATM   26  S   UNL     1     -45.402 -53.513  14.125  1.00  0.00    -0.166 SA
HETATM   27  C   UNL     1     -44.961 -51.841  14.686  1.00  0.00     0.093 C 
ENDBRANCH   4  20
TORSDOF 3
ENDMDL
MODEL 7
REMARK VINA RESULT:      -5.5     18.891     20.706
REMARK  3 active torsions:
REMARK  status: ('A' for Active; 'I' for Inactive)
REMARK       I    between atoms: C_2  and  N_3 
REMARK       I    between atoms: C_2  and  N_18 
REMARK    1  A    between atoms: N_3  and  C_4 
REMARK    2  A    between atoms: C_7  and  C_10 
REMARK       I    between atoms: C_10  and  N_12 
REMARK    3  A    between atoms: N_18  and  C_19 
ROOT
HETATM    1  C   UNL     1     -28.935 -46.359  -2.535  1.00  0.00     0.086 C 
HETATM    2  C   UNL     1     -28.991 -45.314  -1.420  1.00  0.00     0.026 C 
HETATM    3  C   UNL     1     -28.566 -43.930  -1.919  1.00  0.00     0.016 C 
HETATM    4  C   UNL     1     -27.189 -43.908  -2.607  1.00  0.00     0.078 C 
HETATM    5  C   UNL     1     -27.016 -45.053  -3.614  1.00  0.00     0.016 C 
HETATM    6  C   UNL     1     -27.514 -46.407  -3.111  1.00  0.00     0.026 C 
ENDROOT
BRANCH   1   7
HETATM    7  N   UNL     1     -29.977 -46.067  -3.523  1.00  0.00    -0.338 N 
HETATM    8  C   UNL     1     -31.292 -46.436  -3.309  1.00  0.00     0.321 C 
HETATM    9  O   UNL     1     -31.634 -47.167  -2.393  1.00  0.00    -0.247 OA
HETATM   10  N   UNL     1     -32.114 -45.887  -4.272  1.00  0.00    -0.309 N 
HETATM   11  H   UNL     1     -31.653 -45.490  -5.076  1.00  0.00     0.170 HD
HETATM   12  H   UNL     1     -29.886 -45.172  -3.979  1.00  0.00     0.164 HD
BRANCH  10  13
HETATM   13  C   UNL     1     -33.517 -46.022  -4.343  1.00  0.00     0.038 A 
HETATM   14  C   UNL     1     -34.150 -47.145  -4.865  1.00  0.00     0.046 A 
HETATM   15  C   UNL     1     -35.535 -47.158  -4.912  1.00  0.00     0.090 A 
HETATM   16  N   UNL     1     -36.312 -46.148  -4.475  1.00  0.00    -0.375 N 
HETATM   17  C   UNL     1     -35.677 -45.077  -3.962  1.00  0.00     0.090 A 
ATOM     18  HN  UNL     1     -37.329 -46.192  -4.530  1.00  0.00     0.164 HD
HETATM   19  C   UNL     1     -34.300 -44.972  -3.862  1.00  0.00     0.046 A 
ENDBRANCH  10  13
ENDBRANCH   1   7
BRANCH   4  20
HETATM   20  C   UNL     1     -26.073 -43.865  -1.558  1.00  0.00     0.224 C 
HETATM   21  O   UNL     1     -25.301 -44.816  -1.429  1.00  0.00    -0.273 OA
HETATM   22  N   UNL     1     -25.989 -42.747  -0.726  1.00  0.00    -0.350 N 
HETATM   23  C   UNL     1     -24.992 -42.784   0.354  1.00  0.00     0.136 C 
HETATM   24  C   UNL     1     -26.519 -41.415  -1.062  1.00  0.00     0.136 C 
HETATM   25  C   UNL     1     -25.505 -42.205   1.672  1.00  0.00     0.093 C 
HETATM   26  S   UNL     1     -26.006 -40.464   1.505  1.00  0.00    -0.166 SA
HETATM   27  C   UNL     1     -27.161 -40.685   0.118  1.00  0.00     0.093 C 
ENDBRANCH   4  20
TORSDOF 3
ENDMDL
MODEL 8
REMARK VINA RESULT:      -5.4     19.916     22.378
REMARK  3 active torsions:
REMARK  status: ('A' for Active; 'I' for Inactive)
REMARK       I    between atoms: C_2  and  N_3 
REMARK       I    between atoms: C_2  and  N_18 
REMARK    1  A    between atoms: N_3  and  C_4 
REMARK    2  A    between atoms: C_7  and  C_10 
REMARK       I    between atoms: C_10  and  N_12 
REMARK    3  A    between atoms: N_18  and  C_19 
ROOT
HETATM    1  C   UNL     1     -27.592 -45.024  -2.083  1.00  0.00     0.086 C 
HETATM    2  C   UNL     1     -27.995 -44.874  -3.550  1.00  0.00     0.026 C 
HETATM    3  C   UNL     1     -29.487 -44.569  -3.700  1.00  0.00     0.016 C 
HETATM    4  C   UNL     1     -30.408 -45.580  -2.991  1.00  0.00     0.078 C 
HETATM    5  C   UNL     1     -29.940 -45.901  -1.565  1.00  0.00     0.016 C 
HETATM    6  C   UNL     1     -28.435 -46.132  -1.438  1.00  0.00     0.026 C 
ENDROOT
BRANCH   1   7
HETATM    7  N   UNL     1     -27.696 -43.722  -1.419  1.00  0.00    -0.338 N 
HETATM    8  C   UNL     1     -26.655 -43.215  -0.665  1.00  0.00     0.321 C 
HETATM    9  O   UNL     1     -25.674 -43.877  -0.361  1.00  0.00    -0.247 OA
HETATM   10  N   UNL     1     -26.904 -41.906  -0.307  1.00  0.00    -0.309 N 
HETATM   11  H   UNL     1     -27.847 -41.578  -0.452  1.00  0.00     0.170 HD
HETATM   12  H   UNL     1     -28.179 -43.015  -1.952  1.00  0.00     0.164 HD
BRANCH  10  13
HETATM   13  C   UNL     1     -26.042 -41.067   0.430  1.00  0.00     0.038 A 
HETATM   14  C   UNL     1     -25.839 -41.197   1.800  1.00  0.00     0.046 A 
HETATM   15  C   UNL     1     -24.991 -40.298   2.429  1.00  0.00     0.090 A 
HETATM   16  N   UNL     1     -24.343 -39.304   1.791  1.00  0.00    -0.375 N 
HETATM   17  C   UNL     1     -24.545 -39.206   0.463  1.00  0.00     0.090 A 
ATOM     18  HN  UNL     1     -23.730 -38.659   2.288  1.00  0.00     0.164 HD
HETATM   19  C   UNL     1     -25.364 -40.060  -0.257  1.00  0.00     0.046 A 
ENDBRANCH  10  13
ENDBRANCH   1   7
BRANCH   4  20
HETATM   20  C   UNL     1     -30.584 -46.833  -3.856  1.00  0.00     0.224 C 
HETATM   21  O   UNL     1     -29.606 -47.501  -4.192  1.00  0.00    -0.273 OA
HETATM   22  N   UNL     1     -31.870 -47.162  -4.289  1.00  0.00    -0.350 N 
HETATM   23  C   UNL     1     -31.998 -48.292  -5.220  1.00  0.00     0.136 C 
HETATM   24  C   UNL     1     -33.110 -46.744  -3.616  1.00  0.00     0.136 C 
HETATM   25  C   UNL     1     -33.007 -48.044  -6.341  1.00  0.00     0.093 C 
HETATM   26  S   UNL     1     -34.679 -47.725  -5.698  1.00  0.00    -0.166 SA
HETATM   27  C   UNL     1     -34.241 -46.366  -4.573  1.00  0.00     0.093 C 
ENDBRANCH   4  20
TORSDOF 3
ENDMDL
MODEL 9
REMARK VINA RESULT:      -5.4     15.954     17.973
REMARK  3 active torsions:
REMARK  status: ('A' for Active; 'I' for Inactive)
REMARK       I    between atoms: C_2  and  N_3 
REMARK       I    between atoms: C_2  and  N_18 
REMARK    1  A    between atoms: N_3  and  C_4 
REMARK    2  A    between atoms: C_7  and  C_10 
REMARK       I    between atoms: C_10  and  N_12 
REMARK    3  A    between atoms: N_18  and  C_19 
ROOT
HETATM    1  C   UNL     1     -50.078 -52.444  -0.261  1.00  0.00     0.086 C 
HETATM    2  C   UNL     1     -48.703 -52.707  -0.875  1.00  0.00     0.026 C 
HETATM    3  C   UNL     1     -48.757 -52.714  -2.405  1.00  0.00     0.016 C 
HETATM    4  C   UNL     1     -49.800 -53.683  -2.990  1.00  0.00     0.078 C 
HETATM    5  C   UNL     1     -51.159 -53.582  -2.283  1.00  0.00     0.016 C 
HETATM    6  C   UNL     1     -51.066 -53.507  -0.760  1.00  0.00     0.026 C 
ENDROOT
BRANCH   1   7
HETATM    7  N   UNL     1     -50.480 -51.064  -0.549  1.00  0.00    -0.338 N 
HETATM    8  C   UNL     1     -50.286 -50.053   0.372  1.00  0.00     0.321 C 
HETATM    9  O   UNL     1     -49.942 -50.264   1.525  1.00  0.00    -0.247 OA
HETATM   10  N   UNL     1     -50.555 -48.823  -0.191  1.00  0.00    -0.309 N 
HETATM   11  H   UNL     1     -51.033 -48.836  -1.079  1.00  0.00     0.170 HD
HETATM   12  H   UNL     1     -50.319 -50.770  -1.500  1.00  0.00     0.164 HD
BRANCH  10  13
HETATM   13  C   UNL     1     -50.427 -47.571   0.446  1.00  0.00     0.038 A 
HETATM   14  C   UNL     1     -49.348 -46.717   0.241  1.00  0.00     0.046 A 
HETATM   15  C   UNL     1     -49.311 -45.522   0.943  1.00  0.00     0.090 A 
HETATM   16  N   UNL     1     -50.264 -45.130   1.812  1.00  0.00    -0.375 N 
HETATM   17  C   UNL     1     -51.305 -45.967   1.984  1.00  0.00     0.090 A 
ATOM     18  HN  UNL     1     -50.200 -44.245   2.313  1.00  0.00     0.164 HD
HETATM   19  C   UNL     1     -51.438 -47.178   1.324  1.00  0.00     0.046 A 
ENDBRANCH  10  13
ENDBRANCH   1   7
BRANCH   4  20
HETATM   20  C   UNL     1     -49.245 -55.111  -3.011  1.00  0.00     0.224 C 
HETATM   21  O   UNL     1     -49.006 -55.702  -1.957  1.00  0.00    -0.273 OA
HETATM   22  N   UNL     1     -48.972 -55.698  -4.248  1.00  0.00    -0.350 N 
HETATM   23  C   UNL     1     -48.323 -57.016  -4.240  1.00  0.00     0.136 C 
HETATM   24  C   UNL     1     -49.611 -55.307  -5.515  1.00  0.00     0.136 C 
HETATM   25  C   UNL     1     -47.237 -57.164  -5.305  1.00  0.00     0.093 C 
HETATM   26  S   UNL     1     -47.894 -56.933  -6.987  1.00  0.00    -0.166 SA
HETATM   27  C   UNL     1     -48.664 -55.309  -6.715  1.00  0.00     0.093 C 
ENDBRANCH   4  20
TORSDOF 3
ENDMDL
