MODEL 1
REMARK VINA RESULT:      -6.3      0.000      0.000
REMARK  4 active torsions:
REMARK  status: ('A' for Active; 'I' for Inactive)
REMARK    1  A    between atoms: O_1  and  C_2 
REMARK    2  A    between atoms: C_2  and  C_3 
REMARK    3  A    between atoms: C_2  and  C_14 
REMARK    4  A    between atoms: C_3  and  N_4 
ROOT
HETATM    1  N   UNL     1     -40.164 -51.178  12.623  1.00  0.00    -0.271 N 
HETATM    2  N   UNL     1     -39.115 -51.003  11.788  1.00  0.00    -0.019 NA
HETATM    3  N   UNL     1     -39.390 -49.971  11.003  1.00  0.00    -0.282 N 
ATOM      4  HN  UNL     1     -38.780 -49.587  10.282  1.00  0.00     0.184 HD
HETATM    5  C   UNL     1     -40.635 -49.513  11.329  1.00  0.00     0.074 A 
HETATM    6  C   UNL     1     -41.378 -48.455  10.788  1.00  0.00     0.033 A 
HETATM    7  C   UNL     1     -42.652 -48.200  11.305  1.00  0.00     0.002 A 
HETATM    8  C   UNL     1     -43.172 -48.985  12.338  1.00  0.00     0.002 A 
HETATM    9  C   UNL     1     -42.440 -50.044  12.897  1.00  0.00     0.033 A 
HETATM   10  C   UNL     1     -41.167 -50.282  12.366  1.00  0.00     0.076 A 
ENDROOT
BRANCH   1  11
HETATM   11  C   UNL     1     -40.071 -52.226  13.628  1.00  0.00     0.183 C 
BRANCH  11  12
HETATM   12  C   UNL     1     -40.626 -53.563  13.098  1.00  0.00     0.170 C 
BRANCH  12  13
HETATM   13  O   UNL     1     -40.608 -53.620  11.666  1.00  0.00    -0.389 OA
HETATM   14  H   UNL     1     -41.305 -54.242  11.376  1.00  0.00     0.210 HD
ENDBRANCH  12  13
BRANCH  12  15
HETATM   15  C   UNL     1     -42.071 -53.864  13.451  1.00  0.00    -0.028 A 
HETATM   16  C   UNL     1     -42.349 -54.655  14.580  1.00  0.00     0.010 A 
HETATM   17  C   UNL     1     -43.645 -55.112  14.838  1.00  0.00     0.001 A 
HETATM   18  C   UNL     1     -44.684 -54.787  13.972  1.00  0.00     0.000 A 
HETATM   19  C   UNL     1     -44.431 -53.992  12.857  1.00  0.00     0.001 A 
HETATM   20  C   UNL     1     -43.135 -53.535  12.596  1.00  0.00     0.010 A 
ENDBRANCH  12  15
ENDBRANCH  11  12
ENDBRANCH   1  11
TORSDOF 4
ENDMDL
MODEL 2
REMARK VINA RESULT:      -6.1      1.971      2.472
REMARK  4 active torsions:
REMARK  status: ('A' for Active; 'I' for Inactive)
REMARK    1  A    between atoms: O_1  and  C_2 
REMARK    2  A    between atoms: C_2  and  C_3 
REMARK    3  A    between atoms: C_2  and  C_14 
REMARK    4  A    between atoms: C_3  and  N_4 
ROOT
HETATM    1  N   UNL     1     -41.379 -50.631  12.388  1.00  0.00    -0.271 N 
HETATM    2  N   UNL     1     -40.456 -50.917  11.442  1.00  0.00    -0.019 NA
HETATM    3  N   UNL     1     -40.368 -49.872  10.633  1.00  0.00    -0.282 N 
ATOM      4  HN  UNL     1     -39.741 -49.785   9.833  1.00  0.00     0.184 HD
HETATM    5  C   UNL     1     -41.264 -48.933  11.057  1.00  0.00     0.074 A 
HETATM    6  C   UNL     1     -41.559 -47.666  10.536  1.00  0.00     0.033 A 
HETATM    7  C   UNL     1     -42.544 -46.897  11.164  1.00  0.00     0.002 A 
HETATM    8  C   UNL     1     -43.219 -47.384  12.286  1.00  0.00     0.002 A 
HETATM    9  C   UNL     1     -42.932 -48.647  12.827  1.00  0.00     0.033 A 
HETATM   10  C   UNL     1     -41.943 -49.399  12.184  1.00  0.00     0.076 A 
ENDROOT
BRANCH   1  11
HETATM   11  C   UNL     1     -41.613 -51.613  13.436  1.00  0.00     0.183 C 
BRANCH  11  12
HETATM   12  C   UNL     1     -42.693 -52.631  13.020  1.00  0.00     0.170 C 
BRANCH  12  13
HETATM   13  O   UNL     1     -42.811 -52.734  11.596  1.00  0.00    -0.389 OA
HETATM   14  H   UNL     1     -42.004 -53.168  11.253  1.00  0.00     0.210 HD
ENDBRANCH  12  13
BRANCH  12  15
HETATM   15  C   UNL     1     -44.107 -52.317  13.475  1.00  0.00    -0.028 A 
HETATM   16  C   UNL     1     -45.181 -52.586  12.609  1.00  0.00     0.010 A 
HETATM   17  C   UNL     1     -46.474 -52.145  12.905  1.00  0.00     0.001 A 
HETATM   18  C   UNL     1     -46.715 -51.428  14.073  1.00  0.00     0.000 A 
HETATM   19  C   UNL     1     -45.666 -51.165  14.951  1.00  0.00     0.001 A 
HETATM   20  C   UNL     1     -44.372 -51.604  14.655  1.00  0.00     0.010 A 
ENDBRANCH  12  15
ENDBRANCH  11  12
ENDBRANCH   1  11
TORSDOF 4
ENDMDL
MODEL 3
REMARK VINA RESULT:      -5.9      2.966      5.488
REMARK  4 active torsions:
REMARK  status: ('A' for Active; 'I' for Inactive)
REMARK    1  A    between atoms: O_1  and  C_2 
REMARK    2  A    between atoms: C_2  and  C_3 
REMARK    3  A    between atoms: C_2  and  C_14 
REMARK    4  A    between atoms: C_3  and  N_4 
ROOT
HETATM    1  N   UNL     1     -43.294 -52.483  13.335  1.00  0.00    -0.271 N 
HETATM    2  N   UNL     1     -43.771 -53.015  12.188  1.00  0.00    -0.019 NA
HETATM    3  N   UNL     1     -45.087 -52.866  12.189  1.00  0.00    -0.282 N 
ATOM      4  HN  UNL     1     -45.725 -53.152  11.446  1.00  0.00     0.184 HD
HETATM    5  C   UNL     1     -45.442 -52.261  13.361  1.00  0.00     0.074 A 
HETATM    6  C   UNL     1     -46.707 -51.895  13.843  1.00  0.00     0.033 A 
HETATM    7  C   UNL     1     -46.794 -51.290  15.100  1.00  0.00     0.002 A 
HETATM    8  C   UNL     1     -45.644 -51.056  15.859  1.00  0.00     0.002 A 
HETATM    9  C   UNL     1     -44.369 -51.407  15.391  1.00  0.00     0.033 A 
HETATM   10  C   UNL     1     -44.304 -52.012  14.130  1.00  0.00     0.076 A 
ENDROOT
BRANCH   1  11
HETATM   11  C   UNL     1     -41.852 -52.476  13.538  1.00  0.00     0.183 C 
BRANCH  11  12
HETATM   12  C   UNL     1     -41.106 -52.074  12.251  1.00  0.00     0.170 C 
BRANCH  12  13
HETATM   13  O   UNL     1     -40.563 -53.211  11.569  1.00  0.00    -0.389 OA
HETATM   14  H   UNL     1     -39.976 -52.888  10.856  1.00  0.00     0.210 HD
ENDBRANCH  12  13
BRANCH  12  15
HETATM   15  C   UNL     1     -39.907 -51.162  12.440  1.00  0.00    -0.028 A 
HETATM   16  C   UNL     1     -39.790 -50.010  11.641  1.00  0.00     0.010 A 
HETATM   17  C   UNL     1     -38.620 -49.246  11.647  1.00  0.00     0.001 A 
HETATM   18  C   UNL     1     -37.548 -49.619  12.452  1.00  0.00     0.000 A 
HETATM   19  C   UNL     1     -37.651 -50.747  13.261  1.00  0.00     0.001 A 
HETATM   20  C   UNL     1     -38.820 -51.515  13.255  1.00  0.00     0.010 A 
ENDBRANCH  12  15
ENDBRANCH  11  12
ENDBRANCH   1  11
TORSDOF 4
ENDMDL
MODEL 4
REMARK VINA RESULT:      -5.7      2.189      2.793
REMARK  4 active torsions:
REMARK  status: ('A' for Active; 'I' for Inactive)
REMARK    1  A    between atoms: O_1  and  C_2 
REMARK    2  A    between atoms: C_2  and  C_3 
REMARK    3  A    between atoms: C_2  and  C_14 
REMARK    4  A    between atoms: C_3  and  N_4 
ROOT
HETATM    1  N   UNL     1     -39.728 -50.792  13.045  1.00  0.00    -0.271 N 
HETATM    2  N   UNL     1     -38.606 -51.545  12.987  1.00  0.00    -0.019 NA
HETATM    3  N   UNL     1     -37.593 -50.794  13.395  1.00  0.00    -0.282 N 
ATOM      4  HN  UNL     1     -36.622 -51.093  13.479  1.00  0.00     0.184 HD
HETATM    5  C   UNL     1     -38.079 -49.550  13.682  1.00  0.00     0.074 A 
HETATM    6  C   UNL     1     -37.413 -48.404  14.138  1.00  0.00     0.033 A 
HETATM    7  C   UNL     1     -38.155 -47.238  14.346  1.00  0.00     0.002 A 
HETATM    8  C   UNL     1     -39.531 -47.217  14.104  1.00  0.00     0.002 A 
HETATM    9  C   UNL     1     -40.217 -48.357  13.656  1.00  0.00     0.033 A 
HETATM   10  C   UNL     1     -39.455 -49.513  13.454  1.00  0.00     0.076 A 
ENDROOT
BRANCH   1  11
HETATM   11  C   UNL     1     -40.993 -51.421  12.697  1.00  0.00     0.183 C 
BRANCH  11  12
HETATM   12  C   UNL     1     -40.878 -52.958  12.709  1.00  0.00     0.170 C 
BRANCH  12  13
HETATM   13  O   UNL     1     -40.614 -53.485  11.403  1.00  0.00    -0.389 OA
HETATM   14  H   UNL     1     -41.224 -53.054  10.771  1.00  0.00     0.210 HD
ENDBRANCH  12  13
BRANCH  12  15
HETATM   15  C   UNL     1     -42.118 -53.710  13.156  1.00  0.00    -0.028 A 
HETATM   16  C   UNL     1     -43.338 -53.472  12.498  1.00  0.00     0.010 A 
HETATM   17  C   UNL     1     -44.536 -53.995  12.991  1.00  0.00     0.001 A 
HETATM   18  C   UNL     1     -44.536 -54.766  14.149  1.00  0.00     0.000 A 
HETATM   19  C   UNL     1     -43.336 -55.027  14.806  1.00  0.00     0.001 A 
HETATM   20  C   UNL     1     -42.135 -54.501  14.316  1.00  0.00     0.010 A 
ENDBRANCH  12  15
ENDBRANCH  11  12
ENDBRANCH   1  11
TORSDOF 4
ENDMDL
MODEL 5
REMARK VINA RESULT:      -5.5      2.679      6.025
REMARK  4 active torsions:
REMARK  status: ('A' for Active; 'I' for Inactive)
REMARK    1  A    between atoms: O_1  and  C_2 
REMARK    2  A    between atoms: C_2  and  C_3 
REMARK    3  A    between atoms: C_2  and  C_14 
REMARK    4  A    between atoms: C_3  and  N_4 
ROOT
HETATM    1  N   UNL     1     -41.034 -52.675  13.095  1.00  0.00    -0.271 N 
HETATM    2  N   UNL     1     -41.435 -52.178  11.904  1.00  0.00    -0.019 NA
HETATM    3  N   UNL     1     -42.665 -52.615  11.676  1.00  0.00    -0.282 N 
ATOM      4  HN  UNL     1     -43.240 -52.392  10.864  1.00  0.00     0.184 HD
HETATM    5  C   UNL     1     -43.028 -53.418  12.720  1.00  0.00     0.074 A 
HETATM    6  C   UNL     1     -44.218 -54.123  12.946  1.00  0.00     0.033 A 
HETATM    7  C   UNL     1     -44.329 -54.892  14.109  1.00  0.00     0.002 A 
HETATM    8  C   UNL     1     -43.275 -54.956  15.023  1.00  0.00     0.002 A 
HETATM    9  C   UNL     1     -42.078 -54.251  14.818  1.00  0.00     0.033 A 
HETATM   10  C   UNL     1     -41.988 -53.487  13.649  1.00  0.00     0.076 A 
ENDROOT
BRANCH   1  11
HETATM   11  C   UNL     1     -39.724 -52.283  13.594  1.00  0.00     0.183 C 
BRANCH  11  12
HETATM   12  C   UNL     1     -39.234 -50.985  12.924  1.00  0.00     0.170 C 
BRANCH  12  13
HETATM   13  O   UNL     1     -38.296 -51.245  11.873  1.00  0.00    -0.389 OA
HETATM   14  H   UNL     1     -37.571 -50.592  11.942  1.00  0.00     0.210 HD
ENDBRANCH  12  13
BRANCH  12  15
HETATM   15  C   UNL     1     -38.499 -50.012  13.828  1.00  0.00    -0.028 A 
HETATM   16  C   UNL     1     -38.595 -48.632  13.572  1.00  0.00     0.010 A 
HETATM   17  C   UNL     1     -37.792 -47.715  14.256  1.00  0.00     0.001 A 
HETATM   18  C   UNL     1     -36.881 -48.161  15.208  1.00  0.00     0.000 A 
HETATM   19  C   UNL     1     -36.783 -49.522  15.488  1.00  0.00     0.001 A 
HETATM   20  C   UNL     1     -37.584 -50.442  14.802  1.00  0.00     0.010 A 
ENDBRANCH  12  15
ENDBRANCH  11  12
ENDBRANCH   1  11
TORSDOF 4
ENDMDL
MODEL 6
REMARK VINA RESULT:      -5.5      2.190      3.260
REMARK  4 active torsions:
REMARK  status: ('A' for Active; 'I' for Inactive)
REMARK    1  A    between atoms: O_1  and  C_2 
REMARK    2  A    between atoms: C_2  and  C_3 
REMARK    3  A    between atoms: C_2  and  C_14 
REMARK    4  A    between atoms: C_3  and  N_4 
ROOT
HETATM    1  N   UNL     1     -41.202 -50.254  12.345  1.00  0.00    -0.271 N 
HETATM    2  N   UNL     1     -41.276 -49.791  11.077  1.00  0.00    -0.019 NA
HETATM    3  N   UNL     1     -40.044 -49.740  10.593  1.00  0.00    -0.282 N 
ATOM      4  HN  UNL     1     -39.781 -49.448   9.652  1.00  0.00     0.184 HD
HETATM    5  C   UNL     1     -39.187 -50.146  11.576  1.00  0.00     0.074 A 
HETATM    6  C   UNL     1     -37.790 -50.259  11.566  1.00  0.00     0.033 A 
HETATM    7  C   UNL     1     -37.146 -50.697  12.728  1.00  0.00     0.002 A 
HETATM    8  C   UNL     1     -37.882 -51.013  13.873  1.00  0.00     0.002 A 
HETATM    9  C   UNL     1     -39.281 -50.913  13.900  1.00  0.00     0.033 A 
HETATM   10  C   UNL     1     -39.905 -50.474  12.726  1.00  0.00     0.076 A 
ENDROOT
BRANCH   1  11
HETATM   11  C   UNL     1     -42.446 -50.455  13.074  1.00  0.00     0.183 C 
BRANCH  11  12
HETATM   12  C   UNL     1     -42.863 -51.939  13.075  1.00  0.00     0.170 C 
BRANCH  12  13
HETATM   13  O   UNL     1     -42.925 -52.478  11.749  1.00  0.00    -0.389 OA
HETATM   14  H   UNL     1     -42.830 -51.740  11.114  1.00  0.00     0.210 HD
ENDBRANCH  12  13
BRANCH  12  15
HETATM   15  C   UNL     1     -44.235 -52.239  13.649  1.00  0.00    -0.028 A 
HETATM   16  C   UNL     1     -44.617 -53.578  13.848  1.00  0.00     0.010 A 
HETATM   17  C   UNL     1     -45.929 -53.909  14.195  1.00  0.00     0.001 A 
HETATM   18  C   UNL     1     -46.883 -52.908  14.352  1.00  0.00     0.000 A 
HETATM   19  C   UNL     1     -46.520 -51.575  14.175  1.00  0.00     0.001 A 
HETATM   20  C   UNL     1     -45.208 -51.242  13.825  1.00  0.00     0.010 A 
ENDBRANCH  12  15
ENDBRANCH  11  12
ENDBRANCH   1  11
TORSDOF 4
ENDMDL
MODEL 7
REMARK VINA RESULT:      -5.4      4.634      7.946
REMARK  4 active torsions:
REMARK  status: ('A' for Active; 'I' for Inactive)
REMARK    1  A    between atoms: O_1  and  C_2 
REMARK    2  A    between atoms: C_2  and  C_3 
REMARK    3  A    between atoms: C_2  and  C_14 
REMARK    4  A    between atoms: C_3  and  N_4 
ROOT
HETATM    1  N   UNL     1     -40.826 -47.877  11.527  1.00  0.00    -0.271 N 
HETATM    2  N   UNL     1     -41.222 -48.721  10.548  1.00  0.00    -0.019 NA
HETATM    3  N   UNL     1     -40.437 -49.786  10.590  1.00  0.00    -0.282 N 
ATOM      4  HN  UNL     1     -40.503 -50.605   9.986  1.00  0.00     0.184 HD
HETATM    5  C   UNL     1     -39.521 -49.596  11.586  1.00  0.00     0.074 A 
HETATM    6  C   UNL     1     -38.475 -50.422  12.020  1.00  0.00     0.033 A 
HETATM    7  C   UNL     1     -37.664 -49.978  13.069  1.00  0.00     0.002 A 
HETATM    8  C   UNL     1     -37.893 -48.737  13.670  1.00  0.00     0.002 A 
HETATM    9  C   UNL     1     -38.939 -47.900  13.254  1.00  0.00     0.033 A 
HETATM   10  C   UNL     1     -39.739 -48.364  12.203  1.00  0.00     0.076 A 
ENDROOT
BRANCH   1  11
HETATM   11  C   UNL     1     -41.583 -46.648  11.719  1.00  0.00     0.183 C 
BRANCH  11  12
HETATM   12  C   UNL     1     -41.118 -45.545  10.748  1.00  0.00     0.170 C 
BRANCH  12  13
HETATM   13  O   UNL     1     -40.023 -45.978   9.931  1.00  0.00    -0.389 OA
HETATM   14  H   UNL     1     -39.594 -45.186   9.550  1.00  0.00     0.210 HD
ENDBRANCH  12  13
BRANCH  12  15
HETATM   15  C   UNL     1     -40.603 -44.271  11.393  1.00  0.00    -0.028 A 
HETATM   16  C   UNL     1     -39.656 -44.363  12.429  1.00  0.00     0.010 A 
HETATM   17  C   UNL     1     -39.294 -43.238  13.175  1.00  0.00     0.001 A 
HETATM   18  C   UNL     1     -39.871 -42.003  12.899  1.00  0.00     0.000 A 
HETATM   19  C   UNL     1     -40.799 -41.889  11.866  1.00  0.00     0.001 A 
HETATM   20  C   UNL     1     -41.164 -43.014  11.119  1.00  0.00     0.010 A 
ENDBRANCH  12  15
ENDBRANCH  11  12
ENDBRANCH   1  11
TORSDOF 4
ENDMDL
MODEL 8
REMARK VINA RESULT:      -5.4      2.348      6.107
REMARK  4 active torsions:
REMARK  status: ('A' for Active; 'I' for Inactive)
REMARK    1  A    between atoms: O_1  and  C_2 
REMARK    2  A    between atoms: C_2  and  C_3 
REMARK    3  A    between atoms: C_2  and  C_14 
REMARK    4  A    between atoms: C_3  and  N_4 
ROOT
HETATM    1  N   UNL     1     -41.985 -51.199  12.610  1.00  0.00    -0.271 N 
HETATM    2  N   UNL     1     -41.315 -52.260  12.107  1.00  0.00    -0.019 NA
HETATM    3  N   UNL     1     -42.165 -53.273  12.022  1.00  0.00    -0.282 N 
ATOM      4  HN  UNL     1     -41.956 -54.203  11.661  1.00  0.00     0.184 HD
HETATM    5  C   UNL     1     -43.372 -52.852  12.505  1.00  0.00     0.074 A 
HETATM    6  C   UNL     1     -44.583 -53.545  12.637  1.00  0.00     0.033 A 
HETATM    7  C   UNL     1     -45.682 -52.872  13.180  1.00  0.00     0.002 A 
HETATM    8  C   UNL     1     -45.573 -51.538  13.583  1.00  0.00     0.002 A 
HETATM    9  C   UNL     1     -44.371 -50.826  13.451  1.00  0.00     0.033 A 
HETATM   10  C   UNL     1     -43.284 -51.518  12.905  1.00  0.00     0.076 A 
ENDROOT
BRANCH   1  11
HETATM   11  C   UNL     1     -41.269 -49.939  12.743  1.00  0.00     0.183 C 
BRANCH  11  12
HETATM   12  C   UNL     1     -41.230 -49.172  11.406  1.00  0.00     0.170 C 
BRANCH  12  13
HETATM   13  O   UNL     1     -40.390 -49.819  10.443  1.00  0.00    -0.389 OA
HETATM   14  H   UNL     1     -39.783 -50.420  10.921  1.00  0.00     0.210 HD
ENDBRANCH  12  13
BRANCH  12  15
HETATM   15  C   UNL     1     -40.680 -47.759  11.472  1.00  0.00    -0.028 A 
HETATM   16  C   UNL     1     -39.896 -47.379  12.576  1.00  0.00     0.010 A 
HETATM   17  C   UNL     1     -39.526 -46.046  12.772  1.00  0.00     0.001 A 
HETATM   18  C   UNL     1     -39.932 -45.070  11.868  1.00  0.00     0.000 A 
HETATM   19  C   UNL     1     -40.695 -45.428  10.760  1.00  0.00     0.001 A 
HETATM   20  C   UNL     1     -41.069 -46.762  10.563  1.00  0.00     0.010 A 
ENDBRANCH  12  15
ENDBRANCH  11  12
ENDBRANCH   1  11
TORSDOF 4
ENDMDL
MODEL 9
REMARK VINA RESULT:      -5.4      2.665      4.232
REMARK  4 active torsions:
REMARK  status: ('A' for Active; 'I' for Inactive)
REMARK    1  A    between atoms: O_1  and  C_2 
REMARK    2  A    between atoms: C_2  and  C_3 
REMARK    3  A    between atoms: C_2  and  C_14 
REMARK    4  A    between atoms: C_3  and  N_4 
ROOT
HETATM    1  N   UNL     1     -42.145 -53.162  12.795  1.00  0.00    -0.271 N 
HETATM    2  N   UNL     1     -41.787 -51.908  12.438  1.00  0.00    -0.019 NA
HETATM    3  N   UNL     1     -42.854 -51.132  12.560  1.00  0.00    -0.282 N 
ATOM      4  HN  UNL     1     -42.890 -50.129  12.380  1.00  0.00     0.184 HD
HETATM    5  C   UNL     1     -43.898 -51.912  12.968  1.00  0.00     0.074 A 
HETATM    6  C   UNL     1     -45.232 -51.571  13.230  1.00  0.00     0.033 A 
HETATM    7  C   UNL     1     -46.114 -52.579  13.630  1.00  0.00     0.002 A 
HETATM    8  C   UNL     1     -45.673 -53.898  13.766  1.00  0.00     0.002 A 
HETATM    9  C   UNL     1     -44.340 -54.258  13.517  1.00  0.00     0.033 A 
HETATM   10  C   UNL     1     -43.474 -53.233  13.117  1.00  0.00     0.076 A 
ENDROOT
BRANCH   1  11
HETATM   11  C   UNL     1     -41.117 -54.192  12.798  1.00  0.00     0.183 C 
BRANCH  11  12
HETATM   12  C   UNL     1     -40.046 -53.913  13.872  1.00  0.00     0.170 C 
BRANCH  12  13
HETATM   13  O   UNL     1     -38.726 -54.209  13.402  1.00  0.00    -0.389 OA
HETATM   14  H   UNL     1     -38.801 -54.599  12.507  1.00  0.00     0.210 HD
ENDBRANCH  12  13
BRANCH  12  15
HETATM   15  C   UNL     1     -40.164 -54.727  15.148  1.00  0.00    -0.028 A 
HETATM   16  C   UNL     1     -39.005 -55.297  15.706  1.00  0.00     0.010 A 
HETATM   17  C   UNL     1     -39.088 -56.203  16.767  1.00  0.00     0.001 A 
HETATM   18  C   UNL     1     -40.328 -56.553  17.289  1.00  0.00     0.000 A 
HETATM   19  C   UNL     1     -41.486 -55.987  16.761  1.00  0.00     0.001 A 
HETATM   20  C   UNL     1     -41.406 -55.082  15.697  1.00  0.00     0.010 A 
ENDBRANCH  12  15
ENDBRANCH  11  12
ENDBRANCH   1  11
TORSDOF 4
ENDMDL
