MODEL 1
REMARK VINA RESULT:      -5.9      0.000      0.000
REMARK  5 active torsions:
REMARK  status: ('A' for Active; 'I' for Inactive)
REMARK    1  A    between atoms: N_5  and  C_6 
REMARK    2  A    between atoms: C_6  and  C_7 
REMARK    3  A    between atoms: C_7  and  N_8 
REMARK       I    between atoms: N_8  and  C_9 
REMARK    4  A    between atoms: C_9  and  C_11 
REMARK    5  A    between atoms: C_11  and  N_12 
ROOT
HETATM    1  N   UNL     1     -41.885 -54.167  12.900  1.00  0.00    -0.358 N 
HETATM    2  C   UNL     1     -40.676 -53.678  13.325  1.00  0.00     0.235 C 
HETATM    3  O   UNL     1     -39.691 -54.417  13.307  1.00  0.00    -0.272 OA
HETATM    4  H   UNL     1     -41.818 -55.094  12.495  1.00  0.00     0.162 HD
ENDROOT
BRANCH   1   5
HETATM    5  C   UNL     1     -43.005 -53.326  12.534  1.00  0.00     0.152 C 
BRANCH   5   6
HETATM    6  C   UNL     1     -44.354 -53.800  13.084  1.00  0.00     0.292 C 
BRANCH   6   7
HETATM    7  N   UNL     1     -44.500 -53.491  14.520  1.00  0.00     0.090 N 
HETATM    8  C   UNL     1     -45.778 -53.972  15.059  1.00  0.00     0.273 C 
HETATM    9  C   UNL     1     -46.984 -53.156  14.580  1.00  0.00     0.034 C 
HETATM   10  C   UNL     1     -46.808 -51.645  14.806  1.00  0.00    -0.015 C 
HETATM   11  C   UNL     1     -47.020 -51.274  16.276  1.00  0.00     0.010 C 
HETATM   12  C   UNL     1     -45.429 -51.180  14.316  1.00  0.00     0.034 C 
HETATM   13  C   UNL     1     -44.308 -52.072  14.853  1.00  0.00     0.273 C 
ENDBRANCH   6   7
ENDBRANCH   5   6
ENDBRANCH   1   5
BRANCH   2  14
HETATM   14  C   UNL     1     -40.605 -52.243  13.871  1.00  0.00     0.234 C 
BRANCH  14  15
HETATM   15  N   UNL     1     -39.609 -51.441  13.151  1.00  0.00    -0.316 N 
HETATM   16  C   UNL     1     -38.280 -51.502  13.548  1.00  0.00     0.095 A 
HETATM   17  C   UNL     1     -37.360 -50.688  13.019  1.00  0.00     0.017 A 
HETATM   18  C   UNL     1     -37.737 -49.746  11.998  1.00  0.00     0.007 A 
HETATM   19  C   UNL     1     -38.998 -49.699  11.549  1.00  0.00     0.074 A 
HETATM   20  C   UNL     1     -40.033 -50.601  12.124  1.00  0.00     0.247 A 
HETATM   21  O   UNL     1     -41.188 -50.538  11.705  1.00  0.00    -0.268 OA
ENDBRANCH  14  15
ENDBRANCH   2  14
TORSDOF 5
ENDMDL
MODEL 2
REMARK VINA RESULT:      -5.6      1.910      6.604
REMARK  5 active torsions:
REMARK  status: ('A' for Active; 'I' for Inactive)
REMARK    1  A    between atoms: N_5  and  C_6 
REMARK    2  A    between atoms: C_6  and  C_7 
REMARK    3  A    between atoms: C_7  and  N_8 
REMARK       I    between atoms: N_8  and  C_9 
REMARK    4  A    between atoms: C_9  and  C_11 
REMARK    5  A    between atoms: C_11  and  N_12 
ROOT
HETATM    1  N   UNL     1     -42.182 -54.511  14.199  1.00  0.00    -0.358 N 
HETATM    2  C   UNL     1     -43.333 -54.958  14.797  1.00  0.00     0.235 C 
HETATM    3  O   UNL     1     -43.265 -55.481  15.910  1.00  0.00    -0.272 OA
HETATM    4  H   UNL     1     -41.373 -54.562  14.807  1.00  0.00     0.162 HD
ENDROOT
BRANCH   1   5
HETATM    5  C   UNL     1     -42.166 -53.577  13.093  1.00  0.00     0.152 C 
BRANCH   5   6
HETATM    6  C   UNL     1     -40.800 -52.934  12.833  1.00  0.00     0.292 C 
BRANCH   6   7
HETATM    7  N   UNL     1     -40.604 -51.716  13.642  1.00  0.00     0.090 N 
HETATM    8  C   UNL     1     -40.816 -50.494  12.857  1.00  0.00     0.273 C 
HETATM    9  C   UNL     1     -39.695 -50.217  11.849  1.00  0.00     0.034 C 
HETATM   10  C   UNL     1     -38.298 -50.241  12.492  1.00  0.00    -0.015 C 
HETATM   11  C   UNL     1     -38.030 -48.960  13.287  1.00  0.00     0.010 C 
HETATM   12  C   UNL     1     -38.130 -51.482  13.380  1.00  0.00     0.034 C 
HETATM   13  C   UNL     1     -39.310 -51.656  14.337  1.00  0.00     0.273 C 
ENDBRANCH   6   7
ENDBRANCH   5   6
ENDBRANCH   1   5
BRANCH   2  14
HETATM   14  C   UNL     1     -44.660 -54.850  14.030  1.00  0.00     0.234 C 
BRANCH  14  15
HETATM   15  N   UNL     1     -45.349 -53.587  14.320  1.00  0.00    -0.316 N 
HETATM   16  C   UNL     1     -45.587 -53.238  15.642  1.00  0.00     0.095 A 
HETATM   17  C   UNL     1     -46.331 -52.171  15.954  1.00  0.00     0.017 A 
HETATM   18  C   UNL     1     -46.878 -51.347  14.908  1.00  0.00     0.007 A 
HETATM   19  C   UNL     1     -46.621 -51.620  13.623  1.00  0.00     0.074 A 
HETATM   20  C   UNL     1     -45.790 -52.801  13.259  1.00  0.00     0.247 A 
HETATM   21  O   UNL     1     -45.572 -53.041  12.072  1.00  0.00    -0.268 OA
ENDBRANCH  14  15
ENDBRANCH   2  14
TORSDOF 5
ENDMDL
MODEL 3
REMARK VINA RESULT:      -5.6      1.948      2.660
REMARK  5 active torsions:
REMARK  status: ('A' for Active; 'I' for Inactive)
REMARK    1  A    between atoms: N_5  and  C_6 
REMARK    2  A    between atoms: C_6  and  C_7 
REMARK    3  A    between atoms: C_7  and  N_8 
REMARK       I    between atoms: N_8  and  C_9 
REMARK    4  A    between atoms: C_9  and  C_11 
REMARK    5  A    between atoms: C_11  and  N_12 
ROOT
HETATM    1  N   UNL     1     -40.867 -51.722  11.546  1.00  0.00    -0.358 N 
HETATM    2  C   UNL     1     -40.746 -50.367  11.718  1.00  0.00     0.235 C 
HETATM    3  O   UNL     1     -40.497 -49.659  10.742  1.00  0.00    -0.272 OA
HETATM    4  H   UNL     1     -40.845 -52.002  10.572  1.00  0.00     0.162 HD
ENDROOT
BRANCH   1   5
HETATM    5  C   UNL     1     -41.500 -52.599  12.509  1.00  0.00     0.152 C 
BRANCH   5   6
HETATM    6  C   UNL     1     -42.983 -52.867  12.235  1.00  0.00     0.292 C 
BRANCH   6   7
HETATM    7  N   UNL     1     -43.724 -53.167  13.476  1.00  0.00     0.090 N 
HETATM    8  C   UNL     1     -45.083 -53.650  13.202  1.00  0.00     0.273 C 
HETATM    9  C   UNL     1     -46.026 -52.554  12.696  1.00  0.00     0.034 C 
HETATM   10  C   UNL     1     -46.039 -51.313  13.604  1.00  0.00    -0.015 C 
HETATM   11  C   UNL     1     -46.857 -51.562  14.874  1.00  0.00     0.010 C 
HETATM   12  C   UNL     1     -44.608 -50.879  13.950  1.00  0.00     0.034 C 
HETATM   13  C   UNL     1     -43.762 -52.056  14.438  1.00  0.00     0.273 C 
ENDBRANCH   6   7
ENDBRANCH   5   6
ENDBRANCH   1   5
BRANCH   2  14
HETATM   14  C   UNL     1     -40.860 -49.785  13.136  1.00  0.00     0.234 C 
BRANCH  14  15
HETATM   15  N   UNL     1     -39.585 -49.219  13.591  1.00  0.00    -0.316 N 
HETATM   16  C   UNL     1     -38.596 -50.075  14.055  1.00  0.00     0.095 A 
HETATM   17  C   UNL     1     -37.474 -49.602  14.609  1.00  0.00     0.017 A 
HETATM   18  C   UNL     1     -37.265 -48.181  14.708  1.00  0.00     0.007 A 
HETATM   19  C   UNL     1     -38.172 -47.326  14.218  1.00  0.00     0.074 A 
HETATM   20  C   UNL     1     -39.424 -47.836  13.594  1.00  0.00     0.247 A 
HETATM   21  O   UNL     1     -40.248 -47.034  13.157  1.00  0.00    -0.268 OA
ENDBRANCH  14  15
ENDBRANCH   2  14
TORSDOF 5
ENDMDL
MODEL 4
REMARK VINA RESULT:      -5.6      2.052      6.811
REMARK  5 active torsions:
REMARK  status: ('A' for Active; 'I' for Inactive)
REMARK    1  A    between atoms: N_5  and  C_6 
REMARK    2  A    between atoms: C_6  and  C_7 
REMARK    3  A    between atoms: C_7  and  N_8 
REMARK       I    between atoms: N_8  and  C_9 
REMARK    4  A    between atoms: C_9  and  C_11 
REMARK    5  A    between atoms: C_11  and  N_12 
ROOT
HETATM    1  N   UNL     1     -41.349 -53.267  12.971  1.00  0.00    -0.358 N 
HETATM    2  C   UNL     1     -42.467 -53.847  13.515  1.00  0.00     0.235 C 
HETATM    3  O   UNL     1     -42.404 -54.320  14.650  1.00  0.00    -0.272 OA
HETATM    4  H   UNL     1     -40.583 -53.188  13.629  1.00  0.00     0.162 HD
ENDROOT
BRANCH   1   5
HETATM    5  C   UNL     1     -41.384 -52.375  11.831  1.00  0.00     0.152 C 
BRANCH   5   6
HETATM    6  C   UNL     1     -40.744 -51.006  12.084  1.00  0.00     0.292 C 
BRANCH   6   7
HETATM    7  N   UNL     1     -39.837 -51.031  13.247  1.00  0.00     0.090 N 
HETATM    8  C   UNL     1     -40.182 -50.003  14.237  1.00  0.00     0.273 C 
HETATM    9  C   UNL     1     -39.840 -48.581  13.779  1.00  0.00     0.034 C 
HETATM   10  C   UNL     1     -38.384 -48.442  13.304  1.00  0.00    -0.015 C 
HETATM   11  C   UNL     1     -37.415 -48.396  14.489  1.00  0.00     0.010 C 
HETATM   12  C   UNL     1     -38.017 -49.579  12.340  1.00  0.00     0.034 C 
HETATM   13  C   UNL     1     -38.410 -50.946  12.902  1.00  0.00     0.273 C 
ENDBRANCH   6   7
ENDBRANCH   5   6
ENDBRANCH   1   5
BRANCH   2  14
HETATM   14  C   UNL     1     -43.743 -53.944  12.664  1.00  0.00     0.234 C 
BRANCH  14  15
HETATM   15  N   UNL     1     -44.892 -53.336  13.344  1.00  0.00    -0.316 N 
HETATM   16  C   UNL     1     -45.041 -51.956  13.312  1.00  0.00     0.095 A 
HETATM   17  C   UNL     1     -45.990 -51.344  14.030  1.00  0.00     0.017 A 
HETATM   18  C   UNL     1     -46.895 -52.122  14.834  1.00  0.00     0.007 A 
HETATM   19  C   UNL     1     -46.818 -53.459  14.845  1.00  0.00     0.074 A 
HETATM   20  C   UNL     1     -45.771 -54.156  14.047  1.00  0.00     0.247 A 
HETATM   21  O   UNL     1     -45.711 -55.384  14.076  1.00  0.00    -0.268 OA
ENDBRANCH  14  15
ENDBRANCH   2  14
TORSDOF 5
ENDMDL
MODEL 5
REMARK VINA RESULT:      -5.5      1.615      2.436
REMARK  5 active torsions:
REMARK  status: ('A' for Active; 'I' for Inactive)
REMARK    1  A    between atoms: N_5  and  C_6 
REMARK    2  A    between atoms: C_6  and  C_7 
REMARK    3  A    between atoms: C_7  and  N_8 
REMARK       I    between atoms: N_8  and  C_9 
REMARK    4  A    between atoms: C_9  and  C_11 
REMARK    5  A    between atoms: C_11  and  N_12 
ROOT
HETATM    1  N   UNL     1     -41.063 -53.864  14.592  1.00  0.00    -0.358 N 
HETATM    2  C   UNL     1     -39.831 -53.496  14.112  1.00  0.00     0.235 C 
HETATM    3  O   UNL     1     -39.266 -54.222  13.294  1.00  0.00    -0.272 OA
HETATM    4  H   UNL     1     -41.445 -54.676  14.122  1.00  0.00     0.162 HD
ENDROOT
BRANCH   1   5
HETATM    5  C   UNL     1     -41.970 -52.950  15.254  1.00  0.00     0.152 C 
BRANCH   5   6
HETATM    6  C   UNL     1     -43.446 -53.345  15.152  1.00  0.00     0.292 C 
BRANCH   6   7
HETATM    7  N   UNL     1     -43.904 -53.402  13.750  1.00  0.00     0.090 N 
HETATM    8  C   UNL     1     -43.806 -52.096  13.086  1.00  0.00     0.273 C 
HETATM    9  C   UNL     1     -44.853 -51.089  13.571  1.00  0.00     0.034 C 
HETATM   10  C   UNL     1     -46.286 -51.645  13.516  1.00  0.00    -0.015 C 
HETATM   11  C   UNL     1     -46.823 -51.657  12.082  1.00  0.00     0.010 C 
HETATM   12  C   UNL     1     -46.347 -53.048  14.135  1.00  0.00     0.034 C 
HETATM   13  C   UNL     1     -45.253 -53.960  13.579  1.00  0.00     0.273 C 
ENDBRANCH   6   7
ENDBRANCH   5   6
ENDBRANCH   1   5
BRANCH   2  14
HETATM   14  C   UNL     1     -39.170 -52.222  14.660  1.00  0.00     0.234 C 
BRANCH  14  15
HETATM   15  N   UNL     1     -39.187 -51.137  13.672  1.00  0.00    -0.316 N 
HETATM   16  C   UNL     1     -40.294 -50.303  13.606  1.00  0.00     0.095 A 
HETATM   17  C   UNL     1     -40.418 -49.391  12.635  1.00  0.00     0.017 A 
HETATM   18  C   UNL     1     -39.380 -49.246  11.649  1.00  0.00     0.007 A 
HETATM   19  C   UNL     1     -38.271 -49.995  11.715  1.00  0.00     0.074 A 
HETATM   20  C   UNL     1     -38.114 -51.010  12.792  1.00  0.00     0.247 A 
HETATM   21  O   UNL     1     -37.093 -51.694  12.831  1.00  0.00    -0.268 OA
ENDBRANCH  14  15
ENDBRANCH   2  14
TORSDOF 5
ENDMDL
MODEL 6
REMARK VINA RESULT:      -5.4      2.270      6.512
REMARK  5 active torsions:
REMARK  status: ('A' for Active; 'I' for Inactive)
REMARK    1  A    between atoms: N_5  and  C_6 
REMARK    2  A    between atoms: C_6  and  C_7 
REMARK    3  A    between atoms: C_7  and  N_8 
REMARK       I    between atoms: N_8  and  C_9 
REMARK    4  A    between atoms: C_9  and  C_11 
REMARK    5  A    between atoms: C_11  and  N_12 
ROOT
HETATM    1  N   UNL     1     -41.223 -53.681  13.571  1.00  0.00    -0.358 N 
HETATM    2  C   UNL     1     -42.453 -54.194  13.896  1.00  0.00     0.235 C 
HETATM    3  O   UNL     1     -42.592 -54.786  14.967  1.00  0.00    -0.272 OA
HETATM    4  H   UNL     1     -40.552 -53.750  14.328  1.00  0.00     0.162 HD
ENDROOT
BRANCH   1   5
HETATM    5  C   UNL     1     -41.019 -52.678  12.547  1.00  0.00     0.152 C 
BRANCH   5   6
HETATM    6  C   UNL     1     -41.151 -51.235  13.045  1.00  0.00     0.292 C 
BRANCH   6   7
HETATM    7  N   UNL     1     -41.469 -50.303  11.946  1.00  0.00     0.090 N 
HETATM    8  C   UNL     1     -40.281 -49.960  11.154  1.00  0.00     0.273 C 
HETATM    9  C   UNL     1     -39.307 -49.035  11.892  1.00  0.00     0.034 C 
HETATM   10  C   UNL     1     -39.991 -47.780  12.458  1.00  0.00    -0.015 C 
HETATM   11  C   UNL     1     -40.277 -46.757  11.356  1.00  0.00     0.010 C 
HETATM   12  C   UNL     1     -41.279 -48.154  13.206  1.00  0.00     0.034 C 
HETATM   13  C   UNL     1     -42.166 -49.082  12.374  1.00  0.00     0.273 C 
ENDBRANCH   6   7
ENDBRANCH   5   6
ENDBRANCH   1   5
BRANCH   2  14
HETATM   14  C   UNL     1     -43.601 -54.070  12.883  1.00  0.00     0.234 C 
BRANCH  14  15
HETATM   15  N   UNL     1     -44.754 -53.368  13.457  1.00  0.00    -0.316 N 
HETATM   16  C   UNL     1     -44.770 -51.980  13.448  1.00  0.00     0.095 A 
HETATM   17  C   UNL     1     -45.728 -51.293  14.081  1.00  0.00     0.017 A 
HETATM   18  C   UNL     1     -46.781 -51.995  14.766  1.00  0.00     0.007 A 
HETATM   19  C   UNL     1     -46.830 -53.333  14.748  1.00  0.00     0.074 A 
HETATM   20  C   UNL     1     -45.775 -54.113  14.043  1.00  0.00     0.247 A 
HETATM   21  O   UNL     1     -45.832 -55.341  14.043  1.00  0.00    -0.268 OA
ENDBRANCH  14  15
ENDBRANCH   2  14
TORSDOF 5
ENDMDL
MODEL 7
REMARK VINA RESULT:      -5.4      1.911      6.766
REMARK  5 active torsions:
REMARK  status: ('A' for Active; 'I' for Inactive)
REMARK    1  A    between atoms: N_5  and  C_6 
REMARK    2  A    between atoms: C_6  and  C_7 
REMARK    3  A    between atoms: C_7  and  N_8 
REMARK       I    between atoms: N_8  and  C_9 
REMARK    4  A    between atoms: C_9  and  C_11 
REMARK    5  A    between atoms: C_11  and  N_12 
ROOT
HETATM    1  N   UNL     1     -42.558 -52.825  11.634  1.00  0.00    -0.358 N 
HETATM    2  C   UNL     1     -43.452 -53.305  12.557  1.00  0.00     0.235 C 
HETATM    3  O   UNL     1     -44.451 -53.910  12.165  1.00  0.00    -0.272 OA
HETATM    4  H   UNL     1     -42.765 -53.124  10.688  1.00  0.00     0.162 HD
ENDROOT
BRANCH   1   5
HETATM    5  C   UNL     1     -41.203 -52.433  11.961  1.00  0.00     0.152 C 
BRANCH   5   6
HETATM    6  C   UNL     1     -40.964 -50.920  11.941  1.00  0.00     0.292 C 
BRANCH   6   7
HETATM    7  N   UNL     1     -40.553 -50.412  13.264  1.00  0.00     0.090 N 
HETATM    8  C   UNL     1     -40.487 -48.946  13.295  1.00  0.00     0.273 C 
HETATM    9  C   UNL     1     -39.300 -48.375  12.512  1.00  0.00     0.034 C 
HETATM   10  C   UNL     1     -37.959 -49.010  12.918  1.00  0.00    -0.015 C 
HETATM   11  C   UNL     1     -37.465 -48.457  14.257  1.00  0.00     0.010 C 
HETATM   12  C   UNL     1     -38.076 -50.540  12.966  1.00  0.00     0.034 C 
HETATM   13  C   UNL     1     -39.299 -50.989  13.768  1.00  0.00     0.273 C 
ENDBRANCH   6   7
ENDBRANCH   5   6
ENDBRANCH   1   5
BRANCH   2  14
HETATM   14  C   UNL     1     -43.211 -53.015  14.047  1.00  0.00     0.234 C 
BRANCH  14  15
HETATM   15  N   UNL     1     -44.460 -52.682  14.741  1.00  0.00    -0.316 N 
HETATM   16  C   UNL     1     -45.067 -53.645  15.534  1.00  0.00     0.095 A 
HETATM   17  C   UNL     1     -46.274 -53.438  16.074  1.00  0.00     0.017 A 
HETATM   18  C   UNL     1     -46.954 -52.189  15.856  1.00  0.00     0.007 A 
HETATM   19  C   UNL     1     -46.373 -51.215  15.143  1.00  0.00     0.074 A 
HETATM   20  C   UNL     1     -45.028 -51.426  14.540  1.00  0.00     0.247 A 
HETATM   21  O   UNL     1     -44.515 -50.523  13.882  1.00  0.00    -0.268 OA
ENDBRANCH  14  15
ENDBRANCH   2  14
TORSDOF 5
ENDMDL
MODEL 8
REMARK VINA RESULT:      -5.4      3.862      5.075
REMARK  5 active torsions:
REMARK  status: ('A' for Active; 'I' for Inactive)
REMARK    1  A    between atoms: N_5  and  C_6 
REMARK    2  A    between atoms: C_6  and  C_7 
REMARK    3  A    between atoms: C_7  and  N_8 
REMARK       I    between atoms: N_8  and  C_9 
REMARK    4  A    between atoms: C_9  and  C_11 
REMARK    5  A    between atoms: C_11  and  N_12 
ROOT
HETATM    1  N   UNL     1     -42.364 -49.339  11.423  1.00  0.00    -0.358 N 
HETATM    2  C   UNL     1     -42.480 -48.084  10.881  1.00  0.00     0.235 C 
HETATM    3  O   UNL     1     -42.325 -47.939   9.668  1.00  0.00    -0.272 OA
HETATM    4  H   UNL     1     -42.266 -50.066  10.723  1.00  0.00     0.162 HD
ENDROOT
BRANCH   1   5
HETATM    5  C   UNL     1     -42.868 -49.696  12.732  1.00  0.00     0.152 C 
BRANCH   5   6
HETATM    6  C   UNL     1     -42.449 -51.089  13.210  1.00  0.00     0.292 C 
BRANCH   6   7
HETATM    7  N   UNL     1     -43.449 -51.682  14.119  1.00  0.00     0.090 N 
HETATM    8  C   UNL     1     -42.975 -52.936  14.717  1.00  0.00     0.273 C 
HETATM    9  C   UNL     1     -42.928 -54.102  13.725  1.00  0.00     0.034 C 
HETATM   10  C   UNL     1     -44.256 -54.300  12.976  1.00  0.00    -0.015 C 
HETATM   11  C   UNL     1     -45.302 -54.976  13.867  1.00  0.00     0.010 C 
HETATM   12  C   UNL     1     -44.779 -52.962  12.436  1.00  0.00     0.034 C 
HETATM   13  C   UNL     1     -44.774 -51.876  13.513  1.00  0.00     0.273 C 
ENDBRANCH   6   7
ENDBRANCH   5   6
ENDBRANCH   1   5
BRANCH   2  14
HETATM   14  C   UNL     1     -42.734 -46.892  11.816  1.00  0.00     0.234 C 
BRANCH  14  15
HETATM   15  N   UNL     1     -41.567 -46.003  11.885  1.00  0.00    -0.316 N 
HETATM   16  C   UNL     1     -40.513 -46.341  12.722  1.00  0.00     0.095 A 
HETATM   17  C   UNL     1     -39.493 -45.499  12.926  1.00  0.00     0.017 A 
HETATM   18  C   UNL     1     -39.465 -44.228  12.253  1.00  0.00     0.007 A 
HETATM   19  C   UNL     1     -40.437 -43.893  11.394  1.00  0.00     0.074 A 
HETATM   20  C   UNL     1     -41.576 -44.820  11.150  1.00  0.00     0.247 A 
HETATM   21  O   UNL     1     -42.463 -44.491  10.364  1.00  0.00    -0.268 OA
ENDBRANCH  14  15
ENDBRANCH   2  14
TORSDOF 5
ENDMDL
MODEL 9
REMARK VINA RESULT:      -5.1      4.044      6.201
REMARK  5 active torsions:
REMARK  status: ('A' for Active; 'I' for Inactive)
REMARK    1  A    between atoms: N_5  and  C_6 
REMARK    2  A    between atoms: C_6  and  C_7 
REMARK    3  A    between atoms: C_7  and  N_8 
REMARK       I    between atoms: N_8  and  C_9 
REMARK    4  A    between atoms: C_9  and  C_11 
REMARK    5  A    between atoms: C_11  and  N_12 
ROOT
HETATM    1  N   UNL     1     -42.512 -49.121  11.257  1.00  0.00    -0.358 N 
HETATM    2  C   UNL     1     -41.980 -48.054  10.579  1.00  0.00     0.235 C 
HETATM    3  O   UNL     1     -42.483 -47.715   9.507  1.00  0.00    -0.272 OA
HETATM    4  H   UNL     1     -43.370 -49.468  10.842  1.00  0.00     0.162 HD
ENDROOT
BRANCH   1   5
HETATM    5  C   UNL     1     -42.260 -49.387  12.658  1.00  0.00     0.152 C 
BRANCH   5   6
HETATM    6  C   UNL     1     -42.198 -50.875  13.015  1.00  0.00     0.292 C 
BRANCH   6   7
HETATM    7  N   UNL     1     -40.886 -51.465  12.686  1.00  0.00     0.090 N 
HETATM    8  C   UNL     1     -41.018 -52.788  12.064  1.00  0.00     0.273 C 
HETATM    9  C   UNL     1     -41.459 -53.879  13.045  1.00  0.00     0.034 C 
HETATM   10  C   UNL     1     -40.584 -53.933  14.308  1.00  0.00    -0.015 C 
HETATM   11  C   UNL     1     -39.236 -54.601  14.023  1.00  0.00     0.010 C 
HETATM   12  C   UNL     1     -40.386 -52.527  14.892  1.00  0.00     0.034 C 
HETATM   13  C   UNL     1     -39.952 -51.526  13.820  1.00  0.00     0.273 C 
ENDBRANCH   6   7
ENDBRANCH   5   6
ENDBRANCH   1   5
BRANCH   2  14
HETATM   14  C   UNL     1     -40.733 -47.360  11.147  1.00  0.00     0.234 C 
BRANCH  14  15
HETATM   15  N   UNL     1     -41.000 -45.953  11.471  1.00  0.00    -0.316 N 
HETATM   16  C   UNL     1     -41.992 -45.651  12.394  1.00  0.00     0.095 A 
HETATM   17  C   UNL     1     -42.367 -44.387  12.619  1.00  0.00     0.017 A 
HETATM   18  C   UNL     1     -41.722 -43.310  11.917  1.00  0.00     0.007 A 
HETATM   19  C   UNL     1     -40.722 -43.560  11.061  1.00  0.00     0.074 A 
HETATM   20  C   UNL     1     -40.287 -44.960  10.804  1.00  0.00     0.247 A 
HETATM   21  O   UNL     1     -39.372 -45.170  10.009  1.00  0.00    -0.268 OA
ENDBRANCH  14  15
ENDBRANCH   2  14
TORSDOF 5
ENDMDL
