MODEL 1
REMARK VINA RESULT:      -5.9      0.000      0.000
REMARK  6 active torsions:
REMARK  status: ('A' for Active; 'I' for Inactive)
REMARK    1  A    between atoms: C_2  and  C_3 
REMARK       I    between atoms: C_2  and  N_11 
REMARK    2  A    between atoms: C_3  and  C_4 
REMARK    3  A    between atoms: C_4  and  C_5 
REMARK    4  A    between atoms: N_11  and  C_12 
REMARK    5  A    between atoms: C_12  and  C_13 
REMARK    6  A    between atoms: C_13  and  C_14 
ROOT
HETATM    1  O   UNL     1     -42.031 -51.352  14.172  1.00  0.00    -0.274 OA
HETATM    2  C   UNL     1     -42.383 -51.694  13.049  1.00  0.00     0.217 C 
HETATM    3  N   UNL     1     -42.283 -50.876  11.940  1.00  0.00    -0.361 N 
HETATM    4  H   UNL     1     -42.648 -51.206  11.056  1.00  0.00     0.162 HD
ENDROOT
BRANCH   3   5
HETATM    5  C   UNL     1     -41.854 -49.490  12.030  1.00  0.00     0.127 C 
BRANCH   5   6
HETATM    6  C   UNL     1     -43.027 -48.511  12.130  1.00  0.00     0.059 C 
BRANCH   6   7
HETATM    7  C   UNL     1     -43.218 -47.716  10.869  1.00  0.00    -0.041 A 
HETATM    8  C   UNL     1     -44.450 -47.688  10.209  1.00  0.00     0.010 A 
HETATM    9  C   UNL     1     -44.596 -46.933   9.047  1.00  0.00     0.018 A 
HETATM   10  C   UNL     1     -43.497 -46.235   8.576  1.00  0.00     0.087 A 
HETATM   11  N   UNL     1     -42.287 -46.246   9.177  1.00  0.00    -0.375 N 
HETATM   12  C   UNL     1     -42.176 -46.983  10.305  1.00  0.00     0.094 A 
ATOM     13  HN  UNL     1     -41.496 -45.725   8.798  1.00  0.00     0.164 HD
ENDBRANCH   6   7
ENDBRANCH   5   6
ENDBRANCH   3   5
BRANCH   2  14
HETATM   14  C   UNL     1     -42.941 -53.069  12.716  1.00  0.00     0.103 C 
BRANCH  14  15
HETATM   15  C   UNL     1     -43.824 -53.642  13.829  1.00  0.00     0.014 C 
BRANCH  15  16
HETATM   16  C   UNL     1     -45.306 -53.820  13.413  1.00  0.00    -0.014 C 
HETATM   17  C   UNL     1     -45.924 -52.578  12.749  1.00  0.00     0.004 C 
HETATM   18  C   UNL     1     -46.113 -51.423  13.729  1.00  0.00     0.000 C 
HETATM   19  C   UNL     1     -46.970 -51.844  14.917  1.00  0.00     0.000 C 
HETATM   20  C   UNL     1     -46.429 -53.096  15.602  1.00  0.00     0.000 C 
HETATM   21  C   UNL     1     -46.180 -54.235  14.613  1.00  0.00     0.004 C 
ENDBRANCH  15  16
ENDBRANCH  14  15
ENDBRANCH   2  14
TORSDOF 6
ENDMDL
MODEL 2
REMARK VINA RESULT:      -5.8      1.868      2.440
REMARK  6 active torsions:
REMARK  status: ('A' for Active; 'I' for Inactive)
REMARK    1  A    between atoms: C_2  and  C_3 
REMARK       I    between atoms: C_2  and  N_11 
REMARK    2  A    between atoms: C_3  and  C_4 
REMARK    3  A    between atoms: C_4  and  C_5 
REMARK    4  A    between atoms: N_11  and  C_12 
REMARK    5  A    between atoms: C_12  and  C_13 
REMARK    6  A    between atoms: C_13  and  C_14 
ROOT
HETATM    1  O   UNL     1     -40.334 -52.774  12.318  1.00  0.00    -0.274 OA
HETATM    2  C   UNL     1     -41.465 -52.305  12.275  1.00  0.00     0.217 C 
HETATM    3  N   UNL     1     -41.748 -51.048  11.779  1.00  0.00    -0.361 N 
HETATM    4  H   UNL     1     -42.699 -50.705  11.830  1.00  0.00     0.162 HD
ENDROOT
BRANCH   3   5
HETATM    5  C   UNL     1     -40.707 -50.121  11.366  1.00  0.00     0.127 C 
BRANCH   5   6
HETATM    6  C   UNL     1     -40.454 -49.015  12.394  1.00  0.00     0.059 C 
BRANCH   6   7
HETATM    7  C   UNL     1     -40.513 -47.642  11.785  1.00  0.00    -0.041 A 
HETATM    8  C   UNL     1     -39.795 -46.574  12.331  1.00  0.00     0.010 A 
HETATM    9  C   UNL     1     -39.864 -45.317  11.736  1.00  0.00     0.018 A 
HETATM   10  C   UNL     1     -40.659 -45.166  10.612  1.00  0.00     0.087 A 
HETATM   11  N   UNL     1     -41.377 -46.168  10.061  1.00  0.00    -0.375 N 
HETATM   12  C   UNL     1     -41.288 -47.379  10.657  1.00  0.00     0.094 A 
ATOM     13  HN  UNL     1     -41.959 -46.019   9.237  1.00  0.00     0.164 HD
ENDBRANCH   6   7
ENDBRANCH   5   6
ENDBRANCH   3   5
BRANCH   2  14
HETATM   14  C   UNL     1     -42.711 -53.052  12.727  1.00  0.00     0.103 C 
BRANCH  14  15
HETATM   15  C   UNL     1     -43.877 -52.120  13.069  1.00  0.00     0.014 C 
BRANCH  15  16
HETATM   16  C   UNL     1     -45.265 -52.709  12.711  1.00  0.00    -0.014 C 
HETATM   17  C   UNL     1     -46.429 -51.718  12.876  1.00  0.00     0.004 C 
HETATM   18  C   UNL     1     -46.708 -51.382  14.339  1.00  0.00     0.000 C 
HETATM   19  C   UNL     1     -46.995 -52.642  15.149  1.00  0.00     0.000 C 
HETATM   20  C   UNL     1     -45.890 -53.685  14.999  1.00  0.00     0.000 C 
HETATM   21  C   UNL     1     -45.565 -53.978  13.534  1.00  0.00     0.004 C 
ENDBRANCH  15  16
ENDBRANCH  14  15
ENDBRANCH   2  14
TORSDOF 6
ENDMDL
MODEL 3
REMARK VINA RESULT:      -5.8      1.402      1.689
REMARK  6 active torsions:
REMARK  status: ('A' for Active; 'I' for Inactive)
REMARK    1  A    between atoms: C_2  and  C_3 
REMARK       I    between atoms: C_2  and  N_11 
REMARK    2  A    between atoms: C_3  and  C_4 
REMARK    3  A    between atoms: C_4  and  C_5 
REMARK    4  A    between atoms: N_11  and  C_12 
REMARK    5  A    between atoms: C_12  and  C_13 
REMARK    6  A    between atoms: C_13  and  C_14 
ROOT
HETATM    1  O   UNL     1     -40.249 -52.991  12.530  1.00  0.00    -0.274 OA
HETATM    2  C   UNL     1     -41.323 -52.922  13.117  1.00  0.00     0.217 C 
HETATM    3  N   UNL     1     -41.848 -51.742  13.606  1.00  0.00    -0.361 N 
HETATM    4  H   UNL     1     -42.713 -51.772  14.132  1.00  0.00     0.162 HD
ENDROOT
BRANCH   3   5
HETATM    5  C   UNL     1     -41.114 -50.488  13.567  1.00  0.00     0.127 C 
BRANCH   5   6
HETATM    6  C   UNL     1     -42.032 -49.262  13.579  1.00  0.00     0.059 C 
BRANCH   6   7
HETATM    7  C   UNL     1     -42.286 -48.725  12.198  1.00  0.00    -0.041 A 
HETATM    8  C   UNL     1     -43.448 -48.005  11.903  1.00  0.00     0.010 A 
HETATM    9  C   UNL     1     -43.648 -47.514  10.615  1.00  0.00     0.018 A 
HETATM   10  C   UNL     1     -42.680 -47.766   9.658  1.00  0.00     0.087 A 
HETATM   11  N   UNL     1     -41.551 -48.467   9.900  1.00  0.00    -0.375 N 
HETATM   12  C   UNL     1     -41.380 -48.928  11.159  1.00  0.00     0.094 A 
ATOM     13  HN  UNL     1     -40.862 -48.640   9.168  1.00  0.00     0.164 HD
ENDBRANCH   6   7
ENDBRANCH   5   6
ENDBRANCH   3   5
BRANCH   2  14
HETATM   14  C   UNL     1     -42.238 -54.114  13.354  1.00  0.00     0.103 C 
BRANCH  14  15
HETATM   15  C   UNL     1     -43.459 -53.771  14.212  1.00  0.00     0.014 C 
BRANCH  15  16
HETATM   16  C   UNL     1     -44.806 -53.937  13.465  1.00  0.00    -0.014 C 
HETATM   17  C   UNL     1     -45.129 -52.791  12.491  1.00  0.00     0.004 C 
HETATM   18  C   UNL     1     -45.442 -51.482  13.211  1.00  0.00     0.000 C 
HETATM   19  C   UNL     1     -46.597 -51.656  14.192  1.00  0.00     0.000 C 
HETATM   20  C   UNL     1     -46.354 -52.804  15.168  1.00  0.00     0.000 C 
HETATM   21  C   UNL     1     -45.979 -54.103  14.452  1.00  0.00     0.004 C 
ENDBRANCH  15  16
ENDBRANCH  14  15
ENDBRANCH   2  14
TORSDOF 6
ENDMDL
MODEL 4
REMARK VINA RESULT:      -5.7      1.642      2.251
REMARK  6 active torsions:
REMARK  status: ('A' for Active; 'I' for Inactive)
REMARK    1  A    between atoms: C_2  and  C_3 
REMARK       I    between atoms: C_2  and  N_11 
REMARK    2  A    between atoms: C_3  and  C_4 
REMARK    3  A    between atoms: C_4  and  C_5 
REMARK    4  A    between atoms: N_11  and  C_12 
REMARK    5  A    between atoms: C_12  and  C_13 
REMARK    6  A    between atoms: C_13  and  C_14 
ROOT
HETATM    1  O   UNL     1     -42.081 -48.957  13.626  1.00  0.00    -0.274 OA
HETATM    2  C   UNL     1     -42.833 -49.467  12.803  1.00  0.00     0.217 C 
HETATM    3  N   UNL     1     -42.710 -49.276  11.441  1.00  0.00    -0.361 N 
HETATM    4  H   UNL     1     -43.404 -49.682  10.826  1.00  0.00     0.162 HD
ENDROOT
BRANCH   3   5
HETATM    5  C   UNL     1     -41.742 -48.356  10.867  1.00  0.00     0.127 C 
BRANCH   5   6
HETATM    6  C   UNL     1     -42.398 -47.156  10.179  1.00  0.00     0.059 C 
BRANCH   6   7
HETATM    7  C   UNL     1     -43.613 -47.545   9.386  1.00  0.00    -0.041 A 
HETATM    8  C   UNL     1     -44.888 -47.535   9.959  1.00  0.00     0.010 A 
HETATM    9  C   UNL     1     -45.995 -47.893   9.193  1.00  0.00     0.018 A 
HETATM   10  C   UNL     1     -45.789 -48.258   7.873  1.00  0.00     0.087 A 
HETATM   11  N   UNL     1     -44.573 -48.292   7.286  1.00  0.00    -0.375 N 
HETATM   12  C   UNL     1     -43.518 -47.936   8.051  1.00  0.00     0.094 A 
ATOM     13  HN  UNL     1     -44.457 -48.573   6.312  1.00  0.00     0.164 HD
ENDBRANCH   6   7
ENDBRANCH   5   6
ENDBRANCH   3   5
BRANCH   2  14
HETATM   14  C   UNL     1     -43.975 -50.404  13.164  1.00  0.00     0.103 C 
BRANCH  14  15
HETATM   15  C   UNL     1     -43.541 -51.870  13.257  1.00  0.00     0.014 C 
BRANCH  15  16
HETATM   16  C   UNL     1     -44.487 -52.844  12.511  1.00  0.00    -0.014 C 
HETATM   17  C   UNL     1     -45.982 -52.541  12.710  1.00  0.00     0.004 C 
HETATM   18  C   UNL     1     -46.453 -52.831  14.133  1.00  0.00     0.000 C 
HETATM   19  C   UNL     1     -46.171 -54.277  14.523  1.00  0.00     0.000 C 
HETATM   20  C   UNL     1     -44.707 -54.654  14.315  1.00  0.00     0.000 C 
HETATM   21  C   UNL     1     -44.214 -54.308  12.909  1.00  0.00     0.004 C 
ENDBRANCH  15  16
ENDBRANCH  14  15
ENDBRANCH   2  14
TORSDOF 6
ENDMDL
MODEL 5
REMARK VINA RESULT:      -5.7      3.209      6.027
REMARK  6 active torsions:
REMARK  status: ('A' for Active; 'I' for Inactive)
REMARK    1  A    between atoms: C_2  and  C_3 
REMARK       I    between atoms: C_2  and  N_11 
REMARK    2  A    between atoms: C_3  and  C_4 
REMARK    3  A    between atoms: C_4  and  C_5 
REMARK    4  A    between atoms: N_11  and  C_12 
REMARK    5  A    between atoms: C_12  and  C_13 
REMARK    6  A    between atoms: C_13  and  C_14 
ROOT
HETATM    1  O   UNL     1     -41.991 -50.808  14.481  1.00  0.00    -0.274 OA
HETATM    2  C   UNL     1     -42.746 -50.933  13.524  1.00  0.00     0.217 C 
HETATM    3  N   UNL     1     -42.397 -51.593  12.362  1.00  0.00    -0.361 N 
HETATM    4  H   UNL     1     -43.053 -51.605  11.591  1.00  0.00     0.162 HD
ENDROOT
BRANCH   3   5
HETATM    5  C   UNL     1     -41.056 -52.102  12.128  1.00  0.00     0.127 C 
BRANCH   5   6
HETATM    6  C   UNL     1     -40.982 -53.630  12.191  1.00  0.00     0.059 C 
BRANCH   6   7
HETATM    7  C   UNL     1     -40.696 -54.132  13.578  1.00  0.00    -0.041 A 
HETATM    8  C   UNL     1     -41.731 -54.409  14.477  1.00  0.00     0.010 A 
HETATM    9  C   UNL     1     -41.432 -54.883  15.752  1.00  0.00     0.018 A 
HETATM   10  C   UNL     1     -40.101 -55.057  16.092  1.00  0.00     0.087 A 
HETATM   11  N   UNL     1     -39.073 -54.790  15.258  1.00  0.00    -0.375 N 
HETATM   12  C   UNL     1     -39.392 -54.337  14.025  1.00  0.00     0.094 A 
ATOM     13  HN  UNL     1     -38.103 -54.924  15.544  1.00  0.00     0.164 HD
ENDBRANCH   6   7
ENDBRANCH   5   6
ENDBRANCH   3   5
BRANCH   2  14
HETATM   14  C   UNL     1     -44.176 -50.413  13.497  1.00  0.00     0.103 C 
BRANCH  14  15
HETATM   15  C   UNL     1     -45.075 -51.081  14.542  1.00  0.00     0.014 C 
BRANCH  15  16
HETATM   16  C   UNL     1     -46.275 -51.843  13.928  1.00  0.00    -0.014 C 
HETATM   17  C   UNL     1     -46.985 -52.792  14.909  1.00  0.00     0.004 C 
HETATM   18  C   UNL     1     -46.127 -54.001  15.276  1.00  0.00     0.000 C 
HETATM   19  C   UNL     1     -45.707 -54.777  14.033  1.00  0.00     0.000 C 
HETATM   20  C   UNL     1     -45.026 -53.883  13.000  1.00  0.00     0.000 C 
HETATM   21  C   UNL     1     -45.855 -52.639  12.676  1.00  0.00     0.004 C 
ENDBRANCH  15  16
ENDBRANCH  14  15
ENDBRANCH   2  14
TORSDOF 6
ENDMDL
MODEL 6
REMARK VINA RESULT:      -5.6      3.330      4.152
REMARK  6 active torsions:
REMARK  status: ('A' for Active; 'I' for Inactive)
REMARK    1  A    between atoms: C_2  and  C_3 
REMARK       I    between atoms: C_2  and  N_11 
REMARK    2  A    between atoms: C_3  and  C_4 
REMARK    3  A    between atoms: C_4  and  C_5 
REMARK    4  A    between atoms: N_11  and  C_12 
REMARK    5  A    between atoms: C_12  and  C_13 
REMARK    6  A    between atoms: C_13  and  C_14 
ROOT
HETATM    1  O   UNL     1     -40.483 -53.546  12.874  1.00  0.00    -0.274 OA
HETATM    2  C   UNL     1     -41.582 -53.279  13.346  1.00  0.00     0.217 C 
HETATM    3  N   UNL     1     -41.783 -52.288  14.287  1.00  0.00    -0.361 N 
HETATM    4  H   UNL     1     -42.710 -52.163  14.675  1.00  0.00     0.162 HD
ENDROOT
BRANCH   3   5
HETATM    5  C   UNL     1     -40.684 -51.548  14.887  1.00  0.00     0.127 C 
BRANCH   5   6
HETATM    6  C   UNL     1     -40.441 -50.196  14.211  1.00  0.00     0.059 C 
BRANCH   6   7
HETATM    7  C   UNL     1     -39.353 -50.261  13.176  1.00  0.00    -0.041 A 
HETATM    8  C   UNL     1     -38.113 -50.842  13.462  1.00  0.00     0.010 A 
HETATM    9  C   UNL     1     -37.130 -50.895  12.477  1.00  0.00     0.018 A 
HETATM   10  C   UNL     1     -37.417 -50.356  11.234  1.00  0.00     0.087 A 
HETATM   11  N   UNL     1     -38.596 -49.776  10.922  1.00  0.00    -0.375 N 
HETATM   12  C   UNL     1     -39.533 -49.743  11.895  1.00  0.00     0.094 A 
ATOM     13  HN  UNL     1     -38.770 -49.382   9.997  1.00  0.00     0.164 HD
ENDBRANCH   6   7
ENDBRANCH   5   6
ENDBRANCH   3   5
BRANCH   2  14
HETATM   14  C   UNL     1     -42.873 -53.971  12.937  1.00  0.00     0.103 C 
BRANCH  14  15
HETATM   15  C   UNL     1     -43.931 -53.966  14.044  1.00  0.00     0.014 C 
BRANCH  15  16
HETATM   16  C   UNL     1     -45.385 -53.936  13.509  1.00  0.00    -0.014 C 
HETATM   17  C   UNL     1     -45.692 -52.735  12.597  1.00  0.00     0.004 C 
HETATM   18  C   UNL     1     -45.715 -51.413  13.359  1.00  0.00     0.000 C 
HETATM   19  C   UNL     1     -46.722 -51.453  14.503  1.00  0.00     0.000 C 
HETATM   20  C   UNL     1     -46.494 -52.645  15.428  1.00  0.00     0.000 C 
HETATM   21  C   UNL     1     -46.409 -53.965  14.661  1.00  0.00     0.004 C 
ENDBRANCH  15  16
ENDBRANCH  14  15
ENDBRANCH   2  14
TORSDOF 6
ENDMDL
MODEL 7
REMARK VINA RESULT:      -5.6      2.849      4.142
REMARK  6 active torsions:
REMARK  status: ('A' for Active; 'I' for Inactive)
REMARK    1  A    between atoms: C_2  and  C_3 
REMARK       I    between atoms: C_2  and  N_11 
REMARK    2  A    between atoms: C_3  and  C_4 
REMARK    3  A    between atoms: C_4  and  C_5 
REMARK    4  A    between atoms: N_11  and  C_12 
REMARK    5  A    between atoms: C_12  and  C_13 
REMARK    6  A    between atoms: C_13  and  C_14 
ROOT
HETATM    1  O   UNL     1     -43.959 -55.294  15.120  1.00  0.00    -0.274 OA
HETATM    2  C   UNL     1     -44.250 -54.578  14.169  1.00  0.00     0.217 C 
HETATM    3  N   UNL     1     -43.313 -54.045  13.306  1.00  0.00    -0.361 N 
HETATM    4  H   UNL     1     -43.623 -53.414  12.577  1.00  0.00     0.162 HD
ENDROOT
BRANCH   3   5
HETATM    5  C   UNL     1     -41.882 -54.195  13.519  1.00  0.00     0.127 C 
BRANCH   5   6
HETATM    6  C   UNL     1     -41.253 -52.979  14.203  1.00  0.00     0.059 C 
BRANCH   6   7
HETATM    7  C   UNL     1     -41.214 -51.774  13.306  1.00  0.00    -0.041 A 
HETATM    8  C   UNL     1     -41.578 -50.508  13.775  1.00  0.00     0.010 A 
HETATM    9  C   UNL     1     -41.521 -49.411  12.919  1.00  0.00     0.018 A 
HETATM   10  C   UNL     1     -41.108 -49.617  11.614  1.00  0.00     0.087 A 
HETATM   11  N   UNL     1     -40.760 -50.824  11.119  1.00  0.00    -0.375 N 
HETATM   12  C   UNL     1     -40.820 -51.871  11.973  1.00  0.00     0.094 A 
ATOM     13  HN  UNL     1     -40.467 -50.941  10.149  1.00  0.00     0.164 HD
ENDBRANCH   6   7
ENDBRANCH   5   6
ENDBRANCH   3   5
BRANCH   2  14
HETATM   14  C   UNL     1     -45.676 -54.209  13.789  1.00  0.00     0.103 C 
BRANCH  14  15
HETATM   15  C   UNL     1     -46.451 -53.555  14.937  1.00  0.00     0.014 C 
BRANCH  15  16
HETATM   16  C   UNL     1     -46.775 -52.060  14.690  1.00  0.00    -0.014 C 
HETATM   17  C   UNL     1     -45.551 -51.207  14.311  1.00  0.00     0.004 C 
HETATM   18  C   UNL     1     -44.580 -51.029  15.475  1.00  0.00     0.000 C 
HETATM   19  C   UNL     1     -45.275 -50.411  16.683  1.00  0.00     0.000 C 
HETATM   20  C   UNL     1     -46.522 -51.192  17.091  1.00  0.00     0.000 C 
HETATM   21  C   UNL     1     -47.468 -51.426  15.913  1.00  0.00     0.004 C 
ENDBRANCH  15  16
ENDBRANCH  14  15
ENDBRANCH   2  14
TORSDOF 6
ENDMDL
MODEL 8
REMARK VINA RESULT:      -5.5      3.390      4.259
REMARK  6 active torsions:
REMARK  status: ('A' for Active; 'I' for Inactive)
REMARK    1  A    between atoms: C_2  and  C_3 
REMARK       I    between atoms: C_2  and  N_11 
REMARK    2  A    between atoms: C_3  and  C_4 
REMARK    3  A    between atoms: C_4  and  C_5 
REMARK    4  A    between atoms: N_11  and  C_12 
REMARK    5  A    between atoms: C_12  and  C_13 
REMARK    6  A    between atoms: C_13  and  C_14 
ROOT
HETATM    1  O   UNL     1     -41.042 -54.305  15.300  1.00  0.00    -0.274 OA
HETATM    2  C   UNL     1     -42.021 -54.446  14.576  1.00  0.00     0.217 C 
HETATM    3  N   UNL     1     -42.051 -54.050  13.253  1.00  0.00    -0.361 N 
HETATM    4  H   UNL     1     -42.914 -54.145  12.734  1.00  0.00     0.162 HD
ENDROOT
BRANCH   3   5
HETATM    5  C   UNL     1     -40.955 -53.324  12.633  1.00  0.00     0.127 C 
BRANCH   5   6
HETATM    6  C   UNL     1     -41.040 -51.812  12.861  1.00  0.00     0.059 C 
BRANCH   6   7
HETATM    7  C   UNL     1     -39.791 -51.097  12.426  1.00  0.00    -0.041 A 
HETATM    8  C   UNL     1     -38.571 -51.305  13.076  1.00  0.00     0.010 A 
HETATM    9  C   UNL     1     -37.432 -50.633  12.642  1.00  0.00     0.018 A 
HETATM   10  C   UNL     1     -37.551 -49.764  11.570  1.00  0.00     0.087 A 
HETATM   11  N   UNL     1     -38.712 -49.527  10.923  1.00  0.00    -0.375 N 
HETATM   12  C   UNL     1     -39.802 -50.196  11.363  1.00  0.00     0.094 A 
ATOM     13  HN  UNL     1     -38.766 -48.874  10.140  1.00  0.00     0.164 HD
ENDBRANCH   6   7
ENDBRANCH   5   6
ENDBRANCH   3   5
BRANCH   2  14
HETATM   14  C   UNL     1     -43.318 -55.105  15.021  1.00  0.00     0.103 C 
BRANCH  14  15
HETATM   15  C   UNL     1     -44.426 -54.096  15.334  1.00  0.00     0.014 C 
BRANCH  15  16
HETATM   16  C   UNL     1     -45.611 -54.150  14.337  1.00  0.00    -0.014 C 
HETATM   17  C   UNL     1     -45.328 -53.466  12.989  1.00  0.00     0.004 C 
HETATM   18  C   UNL     1     -45.220 -51.948  13.114  1.00  0.00     0.000 C 
HETATM   19  C   UNL     1     -46.483 -51.355  13.730  1.00  0.00     0.000 C 
HETATM   20  C   UNL     1     -46.841 -52.017  15.058  1.00  0.00     0.000 C 
HETATM   21  C   UNL     1     -46.888 -53.542  14.950  1.00  0.00     0.004 C 
ENDBRANCH  15  16
ENDBRANCH  14  15
ENDBRANCH   2  14
TORSDOF 6
ENDMDL
MODEL 9
REMARK VINA RESULT:      -5.3      3.775      5.518
REMARK  6 active torsions:
REMARK  status: ('A' for Active; 'I' for Inactive)
REMARK    1  A    between atoms: C_2  and  C_3 
REMARK       I    between atoms: C_2  and  N_11 
REMARK    2  A    between atoms: C_3  and  C_4 
REMARK    3  A    between atoms: C_4  and  C_5 
REMARK    4  A    between atoms: N_11  and  C_12 
REMARK    5  A    between atoms: C_12  and  C_13 
REMARK    6  A    between atoms: C_13  and  C_14 
ROOT
HETATM    1  O   UNL     1     -43.600 -54.716  18.058  1.00  0.00    -0.274 OA
HETATM    2  C   UNL     1     -44.231 -54.251  17.117  1.00  0.00     0.217 C 
HETATM    3  N   UNL     1     -43.920 -54.503  15.795  1.00  0.00    -0.361 N 
HETATM    4  H   UNL     1     -44.451 -54.037  15.070  1.00  0.00     0.162 HD
ENDROOT
BRANCH   3   5
HETATM    5  C   UNL     1     -42.739 -55.255  15.402  1.00  0.00     0.127 C 
BRANCH   5   6
HETATM    6  C   UNL     1     -41.469 -54.399  15.384  1.00  0.00     0.059 C 
BRANCH   6   7
HETATM    7  C   UNL     1     -41.388 -53.523  14.165  1.00  0.00    -0.041 A 
HETATM    8  C   UNL     1     -40.582 -52.381  14.146  1.00  0.00     0.010 A 
HETATM    9  C   UNL     1     -40.523 -51.596  12.997  1.00  0.00     0.018 A 
HETATM   10  C   UNL     1     -41.280 -51.976  11.902  1.00  0.00     0.087 A 
HETATM   11  N   UNL     1     -42.080 -53.064  11.885  1.00  0.00    -0.375 N 
HETATM   12  C   UNL     1     -42.115 -53.811  13.011  1.00  0.00     0.094 A 
ATOM     13  HN  UNL     1     -42.630 -53.311  11.062  1.00  0.00     0.164 HD
ENDBRANCH   6   7
ENDBRANCH   5   6
ENDBRANCH   3   5
BRANCH   2  14
HETATM   14  C   UNL     1     -45.460 -53.367  17.272  1.00  0.00     0.103 C 
BRANCH  14  15
HETATM   15  C   UNL     1     -46.193 -53.123  15.950  1.00  0.00     0.014 C 
BRANCH  15  16
HETATM   16  C   UNL     1     -46.401 -51.623  15.626  1.00  0.00    -0.014 C 
HETATM   17  C   UNL     1     -46.790 -51.345  14.163  1.00  0.00     0.004 C 
HETATM   18  C   UNL     1     -45.644 -51.618  13.192  1.00  0.00     0.000 C 
HETATM   19  C   UNL     1     -44.408 -50.801  13.554  1.00  0.00     0.000 C 
HETATM   20  C   UNL     1     -43.989 -51.006  15.007  1.00  0.00     0.000 C 
HETATM   21  C   UNL     1     -45.151 -50.793  15.979  1.00  0.00     0.004 C 
ENDBRANCH  15  16
ENDBRANCH  14  15
ENDBRANCH   2  14
TORSDOF 6
ENDMDL
