MODEL 1
REMARK VINA RESULT:      -7.0      0.000      0.000
REMARK  6 active torsions:
REMARK  status: ('A' for Active; 'I' for Inactive)
REMARK    1  A    between atoms: O_1  and  C_2 
REMARK    2  A    between atoms: C_2  and  C_3 
REMARK    3  A    between atoms: N_12  and  C_13 
REMARK    4  A    between atoms: C_13  and  C_14 
REMARK    5  A    between atoms: C_14  and  O_15 
REMARK    6  A    between atoms: C_14  and  C_16 
ROOT
HETATM    1  C   UNL     1     -39.073 -49.623  11.691  1.00  0.00     0.108 A 
HETATM    2  N   UNL     1     -39.323 -48.450  11.139  1.00  0.00    -0.342 N 
ATOM      3  HN  UNL     1     -38.656 -47.839  10.668  1.00  0.00     0.167 HD
HETATM    4  C   UNL     1     -40.662 -48.220  11.328  1.00  0.00     0.060 A 
HETATM    5  C   UNL     1     -41.445 -47.135  10.907  1.00  0.00     0.032 A 
HETATM    6  C   UNL     1     -42.815 -47.133  11.198  1.00  0.00     0.002 A 
HETATM    7  C   UNL     1     -43.391 -48.193  11.898  1.00  0.00     0.002 A 
HETATM    8  C   UNL     1     -42.626 -49.286  12.324  1.00  0.00     0.032 A 
HETATM    9  C   UNL     1     -41.256 -49.268  12.025  1.00  0.00     0.062 A 
HETATM   10  N   UNL     1     -40.219 -50.148  12.259  1.00  0.00    -0.330 N 
ENDROOT
BRANCH  10  11
HETATM   11  C   UNL     1     -40.355 -51.480  12.833  1.00  0.00     0.167 C 
BRANCH  11  12
HETATM   12  C   UNL     1     -41.255 -52.440  12.032  1.00  0.00     0.172 C 
BRANCH  12  13
HETATM   13  O   UNL     1     -40.474 -53.415  11.326  1.00  0.00    -0.389 OA
HETATM   14  H   UNL     1     -41.074 -54.088  10.970  1.00  0.00     0.210 HD
ENDBRANCH  12  13
BRANCH  12  15
HETATM   15  C   UNL     1     -42.288 -53.220  12.830  1.00  0.00     0.013 A 
HETATM   16  C   UNL     1     -43.651 -53.029  12.531  1.00  0.00     0.055 A 
HETATM   17  C   UNL     1     -44.639 -53.738  13.214  1.00  0.00     0.117 A 
HETATM   18  F   UNL     1     -45.926 -53.546  12.900  1.00  0.00    -0.206 F 
HETATM   19  C   UNL     1     -44.307 -54.646  14.210  1.00  0.00     0.045 A 
HETATM   20  C   UNL     1     -42.968 -54.843  14.531  1.00  0.00     0.046 A 
HETATM   21  C   UNL     1     -41.977 -54.136  13.846  1.00  0.00     0.125 A 
HETATM   22  F   UNL     1     -40.705 -54.375  14.190  1.00  0.00    -0.205 F 
ENDBRANCH  12  15
ENDBRANCH  11  12
ENDBRANCH  10  11
BRANCH   1  23
HETATM   23  C   UNL     1     -37.758 -50.324  11.631  1.00  0.00     0.240 C 
BRANCH  23  24
HETATM   24  O   UNL     1     -37.251 -50.232  10.306  1.00  0.00    -0.393 OA
HETATM   25  H   UNL     1     -37.739 -50.886   9.780  1.00  0.00     0.209 HD
ENDBRANCH  23  24
ENDBRANCH   1  23
TORSDOF 6
ENDMDL
MODEL 2
REMARK VINA RESULT:      -6.9      0.772      1.864
REMARK  6 active torsions:
REMARK  status: ('A' for Active; 'I' for Inactive)
REMARK    1  A    between atoms: O_1  and  C_2 
REMARK    2  A    between atoms: C_2  and  C_3 
REMARK    3  A    between atoms: N_12  and  C_13 
REMARK    4  A    between atoms: C_13  and  C_14 
REMARK    5  A    between atoms: C_14  and  O_15 
REMARK    6  A    between atoms: C_14  and  C_16 
ROOT
HETATM    1  C   UNL     1     -39.072 -49.695  11.695  1.00  0.00     0.108 A 
HETATM    2  N   UNL     1     -39.362 -48.539  11.127  1.00  0.00    -0.342 N 
ATOM      3  HN  UNL     1     -38.721 -47.924  10.626  1.00  0.00     0.167 HD
HETATM    4  C   UNL     1     -40.700 -48.333  11.349  1.00  0.00     0.060 A 
HETATM    5  C   UNL     1     -41.518 -47.273  10.928  1.00  0.00     0.032 A 
HETATM    6  C   UNL     1     -42.878 -47.294  11.258  1.00  0.00     0.002 A 
HETATM    7  C   UNL     1     -43.413 -48.352  11.994  1.00  0.00     0.002 A 
HETATM    8  C   UNL     1     -42.613 -49.419  12.420  1.00  0.00     0.032 A 
HETATM    9  C   UNL     1     -41.252 -49.379  12.082  1.00  0.00     0.062 A 
HETATM   10  N   UNL     1     -40.191 -50.233  12.305  1.00  0.00    -0.330 N 
ENDROOT
BRANCH  10  11
HETATM   11  C   UNL     1     -40.282 -51.555  12.908  1.00  0.00     0.167 C 
BRANCH  11  12
HETATM   12  C   UNL     1     -41.219 -52.536  12.177  1.00  0.00     0.172 C 
BRANCH  12  13
HETATM   13  O   UNL     1     -40.479 -53.426  11.330  1.00  0.00    -0.389 OA
HETATM   14  H   UNL     1     -39.534 -53.238  11.440  1.00  0.00     0.210 HD
ENDBRANCH  12  13
BRANCH  12  15
HETATM   15  C   UNL     1     -42.094 -53.415  13.057  1.00  0.00     0.013 A 
HETATM   16  C   UNL     1     -41.498 -54.075  14.149  1.00  0.00     0.055 A 
HETATM   17  C   UNL     1     -42.259 -54.872  15.004  1.00  0.00     0.117 A 
HETATM   18  F   UNL     1     -41.669 -55.477  16.042  1.00  0.00    -0.206 F 
HETATM   19  C   UNL     1     -43.621 -55.043  14.799  1.00  0.00     0.045 A 
HETATM   20  C   UNL     1     -44.229 -54.411  13.719  1.00  0.00     0.046 A 
HETATM   21  C   UNL     1     -43.469 -53.609  12.863  1.00  0.00     0.125 A 
HETATM   22  F   UNL     1     -44.112 -53.016  11.849  1.00  0.00    -0.205 F 
ENDBRANCH  12  15
ENDBRANCH  11  12
ENDBRANCH  10  11
BRANCH   1  23
HETATM   23  C   UNL     1     -37.745 -50.370  11.612  1.00  0.00     0.240 C 
BRANCH  23  24
HETATM   24  O   UNL     1     -37.239 -50.222  10.292  1.00  0.00    -0.393 OA
HETATM   25  H   UNL     1     -37.768 -50.811   9.729  1.00  0.00     0.209 HD
ENDBRANCH  23  24
ENDBRANCH   1  23
TORSDOF 6
ENDMDL
MODEL 3
REMARK VINA RESULT:      -6.5      3.004      5.662
REMARK  6 active torsions:
REMARK  status: ('A' for Active; 'I' for Inactive)
REMARK    1  A    between atoms: O_1  and  C_2 
REMARK    2  A    between atoms: C_2  and  C_3 
REMARK    3  A    between atoms: N_12  and  C_13 
REMARK    4  A    between atoms: C_13  and  C_14 
REMARK    5  A    between atoms: C_14  and  O_15 
REMARK    6  A    between atoms: C_14  and  C_16 
ROOT
HETATM    1  C   UNL     1     -42.427 -53.208  12.861  1.00  0.00     0.108 A 
HETATM    2  N   UNL     1     -43.526 -53.295  12.136  1.00  0.00    -0.342 N 
ATOM      3  HN  UNL     1     -43.632 -53.766  11.237  1.00  0.00     0.167 HD
HETATM    4  C   UNL     1     -44.496 -52.624  12.836  1.00  0.00     0.060 A 
HETATM    5  C   UNL     1     -45.853 -52.446  12.525  1.00  0.00     0.032 A 
HETATM    6  C   UNL     1     -46.665 -51.737  13.418  1.00  0.00     0.002 A 
HETATM    7  C   UNL     1     -46.134 -51.216  14.598  1.00  0.00     0.002 A 
HETATM    8  C   UNL     1     -44.783 -51.386  14.926  1.00  0.00     0.032 A 
HETATM    9  C   UNL     1     -43.986 -52.097  14.018  1.00  0.00     0.062 A 
HETATM   10  N   UNL     1     -42.656 -52.469  14.008  1.00  0.00    -0.330 N 
ENDROOT
BRANCH  10  11
HETATM   11  C   UNL     1     -41.718 -52.281  15.105  1.00  0.00     0.167 C 
BRANCH  11  12
HETATM   12  C   UNL     1     -40.998 -50.918  15.114  1.00  0.00     0.172 C 
BRANCH  12  13
HETATM   13  O   UNL     1     -40.133 -50.797  16.252  1.00  0.00    -0.389 OA
HETATM   14  H   UNL     1     -39.572 -51.587  16.296  1.00  0.00     0.210 HD
ENDBRANCH  12  13
BRANCH  12  15
HETATM   15  C   UNL     1     -40.146 -50.598  13.896  1.00  0.00     0.013 A 
HETATM   16  C   UNL     1     -38.816 -51.059  13.867  1.00  0.00     0.055 A 
HETATM   17  C   UNL     1     -37.999 -50.816  12.764  1.00  0.00     0.117 A 
HETATM   18  F   UNL     1     -36.743 -51.278  12.758  1.00  0.00    -0.206 F 
HETATM   19  C   UNL     1     -38.471 -50.109  11.667  1.00  0.00     0.045 A 
HETATM   20  C   UNL     1     -39.778 -49.633  11.677  1.00  0.00     0.046 A 
HETATM   21  C   UNL     1     -40.599 -49.878  12.781  1.00  0.00     0.125 A 
HETATM   22  F   UNL     1     -41.851 -49.405  12.729  1.00  0.00    -0.205 F 
ENDBRANCH  12  15
ENDBRANCH  11  12
ENDBRANCH  10  11
BRANCH   1  23
HETATM   23  C   UNL     1     -41.139 -53.886  12.534  1.00  0.00     0.240 C 
BRANCH  23  24
HETATM   24  O   UNL     1     -40.536 -53.214  11.436  1.00  0.00    -0.393 OA
HETATM   25  H   UNL     1     -40.131 -52.409  11.797  1.00  0.00     0.209 HD
ENDBRANCH  23  24
ENDBRANCH   1  23
TORSDOF 6
ENDMDL
MODEL 4
REMARK VINA RESULT:      -6.5      2.685      5.703
REMARK  6 active torsions:
REMARK  status: ('A' for Active; 'I' for Inactive)
REMARK    1  A    between atoms: O_1  and  C_2 
REMARK    2  A    between atoms: C_2  and  C_3 
REMARK    3  A    between atoms: N_12  and  C_13 
REMARK    4  A    between atoms: C_13  and  C_14 
REMARK    5  A    between atoms: C_14  and  O_15 
REMARK    6  A    between atoms: C_14  and  C_16 
ROOT
HETATM    1  C   UNL     1     -40.775 -54.286  14.045  1.00  0.00     0.108 A 
HETATM    2  N   UNL     1     -41.648 -54.828  14.873  1.00  0.00    -0.342 N 
ATOM      3  HN  UNL     1     -41.444 -55.356  15.721  1.00  0.00     0.167 HD
HETATM    4  C   UNL     1     -42.887 -54.536  14.361  1.00  0.00     0.060 A 
HETATM    5  C   UNL     1     -44.156 -54.848  14.871  1.00  0.00     0.032 A 
HETATM    6  C   UNL     1     -45.292 -54.415  14.177  1.00  0.00     0.002 A 
HETATM    7  C   UNL     1     -45.164 -53.684  12.996  1.00  0.00     0.002 A 
HETATM    8  C   UNL     1     -43.906 -53.361  12.472  1.00  0.00     0.032 A 
HETATM    9  C   UNL     1     -42.781 -53.806  13.180  1.00  0.00     0.062 A 
HETATM   10  N   UNL     1     -41.421 -53.669  12.989  1.00  0.00    -0.330 N 
ENDROOT
BRANCH  10  11
HETATM   11  C   UNL     1     -40.790 -52.854  11.960  1.00  0.00     0.167 C 
BRANCH  11  12
HETATM   12  C   UNL     1     -40.278 -51.483  12.446  1.00  0.00     0.172 C 
BRANCH  12  13
HETATM   13  O   UNL     1     -39.069 -51.113  11.769  1.00  0.00    -0.389 OA
HETATM   14  H   UNL     1     -38.977 -50.148  11.812  1.00  0.00     0.210 HD
ENDBRANCH  12  13
BRANCH  12  15
HETATM   15  C   UNL     1     -41.233 -50.311  12.283  1.00  0.00     0.013 A 
HETATM   16  C   UNL     1     -41.057 -49.450  11.183  1.00  0.00     0.055 A 
HETATM   17  C   UNL     1     -41.920 -48.375  10.971  1.00  0.00     0.117 A 
HETATM   18  F   UNL     1     -41.737 -47.581   9.910  1.00  0.00    -0.206 F 
HETATM   19  C   UNL     1     -42.971 -48.121  11.841  1.00  0.00     0.045 A 
HETATM   20  C   UNL     1     -43.158 -48.951  12.942  1.00  0.00     0.046 A 
HETATM   21  C   UNL     1     -42.296 -50.030  13.154  1.00  0.00     0.125 A 
HETATM   22  F   UNL     1     -42.532 -50.801  14.223  1.00  0.00    -0.205 F 
ENDBRANCH  12  15
ENDBRANCH  11  12
ENDBRANCH  10  11
BRANCH   1  23
HETATM   23  C   UNL     1     -39.300 -54.265  14.265  1.00  0.00     0.240 C 
BRANCH  23  24
HETATM   24  O   UNL     1     -38.698 -55.234  13.417  1.00  0.00    -0.393 OA
HETATM   25  H   UNL     1     -38.979 -55.018  12.512  1.00  0.00     0.209 HD
ENDBRANCH  23  24
ENDBRANCH   1  23
TORSDOF 6
ENDMDL
MODEL 5
REMARK VINA RESULT:      -6.4      2.850      5.813
REMARK  6 active torsions:
REMARK  status: ('A' for Active; 'I' for Inactive)
REMARK    1  A    between atoms: O_1  and  C_2 
REMARK    2  A    between atoms: C_2  and  C_3 
REMARK    3  A    between atoms: N_12  and  C_13 
REMARK    4  A    between atoms: C_13  and  C_14 
REMARK    5  A    between atoms: C_14  and  O_15 
REMARK    6  A    between atoms: C_14  and  C_16 
ROOT
HETATM    1  C   UNL     1     -39.223 -51.725  13.344  1.00  0.00     0.108 A 
HETATM    2  N   UNL     1     -39.545 -52.988  13.549  1.00  0.00    -0.342 N 
ATOM      3  HN  UNL     1     -38.912 -53.752  13.789  1.00  0.00     0.167 HD
HETATM    4  C   UNL     1     -40.904 -53.066  13.375  1.00  0.00     0.060 A 
HETATM    5  C   UNL     1     -41.755 -54.173  13.511  1.00  0.00     0.032 A 
HETATM    6  C   UNL     1     -43.129 -54.001  13.306  1.00  0.00     0.002 A 
HETATM    7  C   UNL     1     -43.644 -52.748  12.971  1.00  0.00     0.002 A 
HETATM    8  C   UNL     1     -42.810 -51.632  12.835  1.00  0.00     0.032 A 
HETATM    9  C   UNL     1     -41.437 -51.825  13.042  1.00  0.00     0.062 A 
HETATM   10  N   UNL     1     -40.343 -50.984  13.013  1.00  0.00    -0.330 N 
ENDROOT
BRANCH  10  11
HETATM   11  C   UNL     1     -40.393 -49.537  12.853  1.00  0.00     0.167 C 
BRANCH  11  12
HETATM   12  C   UNL     1     -40.230 -49.041  11.402  1.00  0.00     0.172 C 
BRANCH  12  13
HETATM   13  O   UNL     1     -40.389 -50.116  10.466  1.00  0.00    -0.389 OA
HETATM   14  H   UNL     1     -40.157 -49.791   9.583  1.00  0.00     0.210 HD
ENDBRANCH  12  13
BRANCH  12  15
HETATM   15  C   UNL     1     -41.181 -47.943  10.954  1.00  0.00     0.013 A 
HETATM   16  C   UNL     1     -42.541 -48.264  10.779  1.00  0.00     0.055 A 
HETATM   17  C   UNL     1     -43.462 -47.289  10.396  1.00  0.00     0.117 A 
HETATM   18  F   UNL     1     -44.751 -47.620  10.250  1.00  0.00    -0.206 F 
HETATM   19  C   UNL     1     -43.064 -45.980  10.169  1.00  0.00     0.045 A 
HETATM   20  C   UNL     1     -41.723 -45.641  10.324  1.00  0.00     0.046 A 
HETATM   21  C   UNL     1     -40.799 -46.616  10.712  1.00  0.00     0.125 A 
HETATM   22  F   UNL     1     -39.526 -46.229  10.856  1.00  0.00    -0.205 F 
ENDBRANCH  12  15
ENDBRANCH  11  12
ENDBRANCH  10  11
BRANCH   1  23
HETATM   23  C   UNL     1     -37.857 -51.158  13.530  1.00  0.00     0.240 C 
BRANCH  23  24
HETATM   24  O   UNL     1     -37.011 -51.657  12.502  1.00  0.00    -0.393 OA
HETATM   25  H   UNL     1     -36.102 -51.440  12.766  1.00  0.00     0.209 HD
ENDBRANCH  23  24
ENDBRANCH   1  23
TORSDOF 6
ENDMDL
MODEL 6
REMARK VINA RESULT:      -6.3      3.262      5.660
REMARK  6 active torsions:
REMARK  status: ('A' for Active; 'I' for Inactive)
REMARK    1  A    between atoms: O_1  and  C_2 
REMARK    2  A    between atoms: C_2  and  C_3 
REMARK    3  A    between atoms: N_12  and  C_13 
REMARK    4  A    between atoms: C_13  and  C_14 
REMARK    5  A    between atoms: C_14  and  O_15 
REMARK    6  A    between atoms: C_14  and  C_16 
ROOT
HETATM    1  C   UNL     1     -41.440 -51.933  12.725  1.00  0.00     0.108 A 
HETATM    2  N   UNL     1     -42.591 -51.938  12.078  1.00  0.00    -0.342 N 
ATOM      3  HN  UNL     1     -42.841 -51.371  11.267  1.00  0.00     0.167 HD
HETATM    4  C   UNL     1     -43.381 -52.859  12.716  1.00  0.00     0.060 A 
HETATM    5  C   UNL     1     -44.686 -53.274  12.411  1.00  0.00     0.032 A 
HETATM    6  C   UNL     1     -45.286 -54.262  13.201  1.00  0.00     0.002 A 
HETATM    7  C   UNL     1     -44.598 -54.824  14.276  1.00  0.00     0.002 A 
HETATM    8  C   UNL     1     -43.294 -54.424  14.595  1.00  0.00     0.032 A 
HETATM    9  C   UNL     1     -42.711 -53.432  13.793  1.00  0.00     0.062 A 
HETATM   10  N   UNL     1     -41.476 -52.816  13.789  1.00  0.00    -0.330 N 
ENDROOT
BRANCH  10  11
HETATM   11  C   UNL     1     -40.349 -53.176  14.638  1.00  0.00     0.167 C 
BRANCH  11  12
HETATM   12  C   UNL     1     -39.780 -54.587  14.393  1.00  0.00     0.172 C 
BRANCH  12  13
HETATM   13  O   UNL     1     -38.672 -54.548  13.483  1.00  0.00    -0.389 OA
HETATM   14  H   UNL     1     -38.962 -54.912  12.632  1.00  0.00     0.210 HD
ENDBRANCH  12  13
BRANCH  12  15
HETATM   15  C   UNL     1     -39.294 -55.341  15.621  1.00  0.00     0.013 A 
HETATM   16  C   UNL     1     -37.925 -55.284  15.945  1.00  0.00     0.055 A 
HETATM   17  C   UNL     1     -37.430 -55.935  17.075  1.00  0.00     0.117 A 
HETATM   18  F   UNL     1     -36.126 -55.853  17.365  1.00  0.00    -0.206 F 
HETATM   19  C   UNL     1     -38.270 -56.660  17.907  1.00  0.00     0.045 A 
HETATM   20  C   UNL     1     -39.626 -56.740  17.601  1.00  0.00     0.046 A 
HETATM   21  C   UNL     1     -40.124 -56.086  16.472  1.00  0.00     0.125 A 
HETATM   22  F   UNL     1     -41.438 -56.189  16.234  1.00  0.00    -0.205 F 
ENDBRANCH  12  15
ENDBRANCH  11  12
ENDBRANCH  10  11
BRANCH   1  23
HETATM   23  C   UNL     1     -40.239 -51.152  12.312  1.00  0.00     0.240 C 
BRANCH  23  24
HETATM   24  O   UNL     1     -40.427 -50.697  10.978  1.00  0.00    -0.393 OA
HETATM   25  H   UNL     1     -40.231 -51.453  10.401  1.00  0.00     0.209 HD
ENDBRANCH  23  24
ENDBRANCH   1  23
TORSDOF 6
ENDMDL
MODEL 7
REMARK VINA RESULT:      -6.3      2.817      5.708
REMARK  6 active torsions:
REMARK  status: ('A' for Active; 'I' for Inactive)
REMARK    1  A    between atoms: O_1  and  C_2 
REMARK    2  A    between atoms: C_2  and  C_3 
REMARK    3  A    between atoms: N_12  and  C_13 
REMARK    4  A    between atoms: C_13  and  C_14 
REMARK    5  A    between atoms: C_14  and  O_15 
REMARK    6  A    between atoms: C_14  and  C_16 
ROOT
HETATM    1  C   UNL     1     -40.974 -53.770  13.993  1.00  0.00     0.108 A 
HETATM    2  N   UNL     1     -42.000 -54.583  13.822  1.00  0.00    -0.342 N 
ATOM      3  HN  UNL     1     -41.994 -55.601  13.890  1.00  0.00     0.167 HD
HETATM    4  C   UNL     1     -43.075 -53.782  13.533  1.00  0.00     0.060 A 
HETATM    5  C   UNL     1     -44.411 -54.138  13.297  1.00  0.00     0.032 A 
HETATM    6  C   UNL     1     -45.349 -53.129  13.046  1.00  0.00     0.002 A 
HETATM    7  C   UNL     1     -44.959 -51.789  13.029  1.00  0.00     0.002 A 
HETATM    8  C   UNL     1     -43.630 -51.414  13.264  1.00  0.00     0.032 A 
HETATM    9  C   UNL     1     -42.707 -52.440  13.511  1.00  0.00     0.062 A 
HETATM   10  N   UNL     1     -41.356 -52.456  13.794  1.00  0.00    -0.330 N 
ENDROOT
BRANCH  10  11
HETATM   11  C   UNL     1     -40.528 -51.281  14.031  1.00  0.00     0.167 C 
BRANCH  11  12
HETATM   12  C   UNL     1     -39.677 -50.836  12.826  1.00  0.00     0.172 C 
BRANCH  12  13
HETATM   13  O   UNL     1     -39.719 -51.810  11.774  1.00  0.00    -0.389 OA
HETATM   14  H   UNL     1     -40.476 -52.396  11.929  1.00  0.00     0.210 HD
ENDBRANCH  12  13
BRANCH  12  15
HETATM   15  C   UNL     1     -40.052 -49.507  12.189  1.00  0.00     0.013 A 
HETATM   16  C   UNL     1     -41.162 -49.467  11.323  1.00  0.00     0.055 A 
HETATM   17  C   UNL     1     -41.566 -48.270  10.734  1.00  0.00     0.117 A 
HETATM   18  F   UNL     1     -42.633 -48.259   9.925  1.00  0.00    -0.206 F 
HETATM   19  C   UNL     1     -40.884 -47.087  10.978  1.00  0.00     0.045 A 
HETATM   20  C   UNL     1     -39.777 -47.103  11.821  1.00  0.00     0.046 A 
HETATM   21  C   UNL     1     -39.372 -48.301  12.416  1.00  0.00     0.125 A 
HETATM   22  F   UNL     1     -38.307 -48.254  13.226  1.00  0.00    -0.205 F 
ENDBRANCH  12  15
ENDBRANCH  11  12
ENDBRANCH  10  11
BRANCH   1  23
HETATM   23  C   UNL     1     -39.615 -54.201  14.427  1.00  0.00     0.240 C 
BRANCH  23  24
HETATM   24  O   UNL     1     -38.790 -54.339  13.277  1.00  0.00    -0.393 OA
HETATM   25  H   UNL     1     -38.529 -53.440  13.018  1.00  0.00     0.209 HD
ENDBRANCH  23  24
ENDBRANCH   1  23
TORSDOF 6
ENDMDL
MODEL 8
REMARK VINA RESULT:      -6.2      2.922      5.559
REMARK  6 active torsions:
REMARK  status: ('A' for Active; 'I' for Inactive)
REMARK    1  A    between atoms: O_1  and  C_2 
REMARK    2  A    between atoms: C_2  and  C_3 
REMARK    3  A    between atoms: N_12  and  C_13 
REMARK    4  A    between atoms: C_13  and  C_14 
REMARK    5  A    between atoms: C_14  and  O_15 
REMARK    6  A    between atoms: C_14  and  C_16 
ROOT
HETATM    1  C   UNL     1     -42.179 -52.278  12.666  1.00  0.00     0.108 A 
HETATM    2  N   UNL     1     -43.175 -52.939  12.108  1.00  0.00    -0.342 N 
ATOM      3  HN  UNL     1     -43.112 -53.618  11.349  1.00  0.00     0.167 HD
HETATM    4  C   UNL     1     -44.313 -52.528  12.755  1.00  0.00     0.060 A 
HETATM    5  C   UNL     1     -45.640 -52.946  12.571  1.00  0.00     0.032 A 
HETATM    6  C   UNL     1     -46.643 -52.396  13.379  1.00  0.00     0.002 A 
HETATM    7  C   UNL     1     -46.327 -51.446  14.350  1.00  0.00     0.002 A 
HETATM    8  C   UNL     1     -45.008 -51.019  14.550  1.00  0.00     0.032 A 
HETATM    9  C   UNL     1     -44.019 -51.580  13.730  1.00  0.00     0.062 A 
HETATM   10  N   UNL     1     -42.650 -51.423  13.647  1.00  0.00    -0.330 N 
ENDROOT
BRANCH  10  11
HETATM   11  C   UNL     1     -41.832 -50.641  14.563  1.00  0.00     0.167 C 
BRANCH  11  12
HETATM   12  C   UNL     1     -41.858 -49.120  14.315  1.00  0.00     0.172 C 
BRANCH  12  13
HETATM   13  O   UNL     1     -40.700 -48.484  14.875  1.00  0.00    -0.389 OA
HETATM   14  H   UNL     1     -40.986 -47.923  15.612  1.00  0.00     0.210 HD
ENDBRANCH  12  13
BRANCH  12  15
HETATM   15  C   UNL     1     -41.927 -48.675  12.862  1.00  0.00     0.013 A 
HETATM   16  C   UNL     1     -43.146 -48.169  12.373  1.00  0.00     0.055 A 
HETATM   17  C   UNL     1     -43.258 -47.722  11.057  1.00  0.00     0.117 A 
HETATM   18  F   UNL     1     -44.426 -47.234  10.622  1.00  0.00    -0.206 F 
HETATM   19  C   UNL     1     -42.174 -47.768  10.192  1.00  0.00     0.045 A 
HETATM   20  C   UNL     1     -40.961 -48.274  10.650  1.00  0.00     0.046 A 
HETATM   21  C   UNL     1     -40.846 -48.720  11.969  1.00  0.00     0.125 A 
HETATM   22  F   UNL     1     -39.652 -49.186  12.357  1.00  0.00    -0.205 F 
ENDBRANCH  12  15
ENDBRANCH  11  12
ENDBRANCH  10  11
BRANCH   1  23
HETATM   23  C   UNL     1     -40.738 -52.487  12.346  1.00  0.00     0.240 C 
BRANCH  23  24
HETATM   24  O   UNL     1     -40.638 -53.441  11.297  1.00  0.00    -0.393 OA
HETATM   25  H   UNL     1     -40.427 -54.291  11.719  1.00  0.00     0.209 HD
ENDBRANCH  23  24
ENDBRANCH   1  23
TORSDOF 6
ENDMDL
MODEL 9
REMARK VINA RESULT:      -6.2      3.412      6.650
REMARK  6 active torsions:
REMARK  status: ('A' for Active; 'I' for Inactive)
REMARK    1  A    between atoms: O_1  and  C_2 
REMARK    2  A    between atoms: C_2  and  C_3 
REMARK    3  A    between atoms: N_12  and  C_13 
REMARK    4  A    between atoms: C_13  and  C_14 
REMARK    5  A    between atoms: C_14  and  O_15 
REMARK    6  A    between atoms: C_14  and  C_16 
ROOT
HETATM    1  C   UNL     1     -42.361 -52.331  12.315  1.00  0.00     0.108 A 
HETATM    2  N   UNL     1     -43.108 -53.415  12.407  1.00  0.00    -0.342 N 
ATOM      3  HN  UNL     1     -42.872 -54.353  12.083  1.00  0.00     0.167 HD
HETATM    4  C   UNL     1     -44.268 -53.024  13.028  1.00  0.00     0.060 A 
HETATM    5  C   UNL     1     -45.381 -53.794  13.397  1.00  0.00     0.032 A 
HETATM    6  C   UNL     1     -46.450 -53.170  14.052  1.00  0.00     0.002 A 
HETATM    7  C   UNL     1     -46.408 -51.804  14.333  1.00  0.00     0.002 A 
HETATM    8  C   UNL     1     -45.304 -51.020  13.974  1.00  0.00     0.032 A 
HETATM    9  C   UNL     1     -44.245 -51.663  13.317  1.00  0.00     0.062 A 
HETATM   10  N   UNL     1     -43.022 -51.236  12.840  1.00  0.00    -0.330 N 
ENDROOT
BRANCH  10  11
HETATM   11  C   UNL     1     -42.457 -49.908  13.033  1.00  0.00     0.167 C 
BRANCH  11  12
HETATM   12  C   UNL     1     -42.514 -48.994  11.793  1.00  0.00     0.172 C 
BRANCH  12  13
HETATM   13  O   UNL     1     -43.869 -48.754  11.390  1.00  0.00    -0.389 OA
HETATM   14  H   UNL     1     -44.102 -49.394  10.700  1.00  0.00     0.210 HD
ENDBRANCH  12  13
BRANCH  12  15
HETATM   15  C   UNL     1     -41.863 -47.627  11.933  1.00  0.00     0.013 A 
HETATM   16  C   UNL     1     -40.857 -47.267  11.016  1.00  0.00     0.055 A 
HETATM   17  C   UNL     1     -40.245 -46.015  11.081  1.00  0.00     0.117 A 
HETATM   18  F   UNL     1     -39.301 -45.695  10.188  1.00  0.00    -0.206 F 
HETATM   19  C   UNL     1     -40.606 -45.094  12.054  1.00  0.00     0.045 A 
HETATM   20  C   UNL     1     -41.589 -45.431  12.978  1.00  0.00     0.046 A 
HETATM   21  C   UNL     1     -42.206 -46.684  12.912  1.00  0.00     0.125 A 
HETATM   22  F   UNL     1     -43.153 -46.948  13.821  1.00  0.00    -0.205 F 
ENDBRANCH  12  15
ENDBRANCH  11  12
ENDBRANCH  10  11
BRANCH   1  23
HETATM   23  C   UNL     1     -40.962 -52.309  11.799  1.00  0.00     0.240 C 
BRANCH  23  24
HETATM   24  O   UNL     1     -40.557 -53.642  11.519  1.00  0.00    -0.393 OA
HETATM   25  H   UNL     1     -39.621 -53.596  11.263  1.00  0.00     0.209 HD
ENDBRANCH  23  24
ENDBRANCH   1  23
TORSDOF 6
ENDMDL
