MODEL 1
REMARK VINA RESULT:      -5.9      0.000      0.000
REMARK  4 active torsions:
REMARK  status: ('A' for Active; 'I' for Inactive)
REMARK    1  A    between atoms: C_2  and  C_5 
REMARK    2  A    between atoms: N_9  and  C_10 
REMARK    3  A    between atoms: C_10  and  C_11 
REMARK       I    between atoms: C_11  and  N_13 
REMARK    4  A    between atoms: N_13  and  C_14 
ROOT
HETATM    1  C   UNL     1     -45.028 -51.304  14.290  1.00  0.00     0.115 C 
HETATM    2  C   UNL     1     -44.663 -50.534  15.333  1.00  0.00     0.023 C 
HETATM    3  C   UNL     1     -43.304 -50.073  15.477  1.00  0.00     0.018 C 
HETATM    4  C   UNL     1     -42.432 -50.273  14.483  1.00  0.00     0.095 C 
HETATM    5  N   UNL     1     -42.778 -51.034  13.376  1.00  0.00    -0.315 N 
HETATM    6  C   UNL     1     -43.988 -51.729  13.326  1.00  0.00     0.263 C 
HETATM    7  O   UNL     1     -44.206 -52.600  12.483  1.00  0.00    -0.267 OA
ENDROOT
BRANCH   5   8
HETATM    8  C   UNL     1     -41.808 -51.240  12.298  1.00  0.00     0.234 C 
BRANCH   8   9
HETATM    9  C   UNL     1     -41.286 -49.906  11.723  1.00  0.00     0.236 C 
HETATM   10  O   UNL     1     -40.094 -49.610  11.752  1.00  0.00    -0.272 OA
HETATM   11  N   UNL     1     -42.248 -49.117  11.129  1.00  0.00    -0.353 N 
HETATM   12  H   UNL     1     -43.205 -49.472  11.131  1.00  0.00     0.163 HD
BRANCH  11  13
HETATM   13  C   UNL     1     -42.023 -47.847  10.469  1.00  0.00     0.110 C 
HETATM   14  C   UNL     1     -42.027 -46.639  11.381  1.00  0.00     0.053 C 
HETATM   15  C   UNL     1     -42.373 -45.489  10.449  1.00  0.00     0.169 C 
HETATM   16  O   UNL     1     -42.777 -46.041   9.187  1.00  0.00    -0.389 OA
HETATM   17  C   UNL     1     -43.014 -47.442   9.390  1.00  0.00     0.192 C 
ENDBRANCH  11  13
ENDBRANCH   8   9
ENDBRANCH   5   8
BRANCH   1  18
HETATM   18  C   UNL     1     -46.435 -51.661  13.984  1.00  0.00     0.422 C 
HETATM   19  F   UNL     1     -46.731 -52.983  13.994  1.00  0.00    -0.166 F 
HETATM   20  F   UNL     1     -46.774 -51.218  12.739  1.00  0.00    -0.166 F 
HETATM   21  F   UNL     1     -47.300 -51.062  14.843  1.00  0.00    -0.166 F 
ENDBRANCH   1  18
TORSDOF 4
ENDMDL
MODEL 2
REMARK VINA RESULT:      -5.8      1.398      1.810
REMARK  4 active torsions:
REMARK  status: ('A' for Active; 'I' for Inactive)
REMARK    1  A    between atoms: C_2  and  C_5 
REMARK    2  A    between atoms: N_9  and  C_10 
REMARK    3  A    between atoms: C_10  and  C_11 
REMARK       I    between atoms: C_11  and  N_13 
REMARK    4  A    between atoms: N_13  and  C_14 
ROOT
HETATM    1  C   UNL     1     -45.135 -52.049  14.381  1.00  0.00     0.115 C 
HETATM    2  C   UNL     1     -44.567 -51.621  15.524  1.00  0.00     0.023 C 
HETATM    3  C   UNL     1     -43.138 -51.657  15.704  1.00  0.00     0.018 C 
HETATM    4  C   UNL     1     -42.350 -51.964  14.668  1.00  0.00     0.095 C 
HETATM    5  N   UNL     1     -42.895 -52.379  13.461  1.00  0.00    -0.315 N 
HETATM    6  C   UNL     1     -44.263 -52.625  13.331  1.00  0.00     0.263 C 
HETATM    7  O   UNL     1     -44.729 -53.227  12.364  1.00  0.00    -0.267 OA
ENDROOT
BRANCH   5   8
HETATM    8  C   UNL     1     -42.015 -52.710  12.337  1.00  0.00     0.234 C 
BRANCH   8   9
HETATM    9  C   UNL     1     -41.035 -51.564  12.009  1.00  0.00     0.236 C 
HETATM   10  O   UNL     1     -39.819 -51.705  12.100  1.00  0.00    -0.272 OA
HETATM   11  N   UNL     1     -41.631 -50.407  11.553  1.00  0.00    -0.353 N 
HETATM   12  H   UNL     1     -42.650 -50.406  11.483  1.00  0.00     0.163 HD
BRANCH  11  13
HETATM   13  C   UNL     1     -40.947 -49.203  11.126  1.00  0.00     0.110 C 
HETATM   14  C   UNL     1     -40.240 -48.442  12.227  1.00  0.00     0.053 C 
HETATM   15  C   UNL     1     -40.150 -47.026  11.681  1.00  0.00     0.169 C 
HETATM   16  O   UNL     1     -40.961 -46.950  10.498  1.00  0.00    -0.389 OA
HETATM   17  C   UNL     1     -41.790 -48.121  10.472  1.00  0.00     0.192 C 
ENDBRANCH  11  13
ENDBRANCH   8   9
ENDBRANCH   5   8
BRANCH   1  18
HETATM   18  C   UNL     1     -46.572 -51.874  14.059  1.00  0.00     0.422 C 
HETATM   19  F   UNL     1     -46.851 -51.226  12.902  1.00  0.00    -0.166 F 
HETATM   20  F   UNL     1     -47.191 -51.155  15.041  1.00  0.00    -0.166 F 
HETATM   21  F   UNL     1     -47.220 -53.066  14.004  1.00  0.00    -0.166 F 
ENDBRANCH   1  18
TORSDOF 4
ENDMDL
MODEL 3
REMARK VINA RESULT:      -5.8      2.377      2.995
REMARK  4 active torsions:
REMARK  status: ('A' for Active; 'I' for Inactive)
REMARK    1  A    between atoms: C_2  and  C_5 
REMARK    2  A    between atoms: N_9  and  C_10 
REMARK    3  A    between atoms: C_10  and  C_11 
REMARK       I    between atoms: C_11  and  N_13 
REMARK    4  A    between atoms: N_13  and  C_14 
ROOT
HETATM    1  C   UNL     1     -44.121 -54.522  14.182  1.00  0.00     0.115 C 
HETATM    2  C   UNL     1     -43.257 -54.971  15.113  1.00  0.00     0.023 C 
HETATM    3  C   UNL     1     -41.843 -54.718  14.999  1.00  0.00     0.018 C 
HETATM    4  C   UNL     1     -41.396 -53.889  14.049  1.00  0.00     0.095 C 
HETATM    5  N   UNL     1     -42.258 -53.377  13.090  1.00  0.00    -0.315 N 
HETATM    6  C   UNL     1     -43.580 -53.817  12.997  1.00  0.00     0.263 C 
HETATM    7  O   UNL     1     -44.282 -53.574  12.015  1.00  0.00    -0.267 OA
ENDROOT
BRANCH   5   8
HETATM    8  C   UNL     1     -41.749 -52.470  12.058  1.00  0.00     0.234 C 
BRANCH   8   9
HETATM    9  C   UNL     1     -41.893 -50.989  12.465  1.00  0.00     0.236 C 
HETATM   10  O   UNL     1     -42.036 -50.649  13.637  1.00  0.00    -0.272 OA
HETATM   11  N   UNL     1     -41.788 -50.091  11.424  1.00  0.00    -0.353 N 
HETATM   12  H   UNL     1     -41.638 -50.478  10.490  1.00  0.00     0.163 HD
BRANCH  11  13
HETATM   13  C   UNL     1     -41.834 -48.646  11.532  1.00  0.00     0.110 C 
HETATM   14  C   UNL     1     -42.321 -47.924  10.295  1.00  0.00     0.053 C 
HETATM   15  C   UNL     1     -41.728 -46.532  10.437  1.00  0.00     0.169 C 
HETATM   16  O   UNL     1     -40.786 -46.555  11.521  1.00  0.00    -0.389 OA
HETATM   17  C   UNL     1     -40.527 -47.932  11.832  1.00  0.00     0.192 C 
ENDBRANCH  11  13
ENDBRANCH   8   9
ENDBRANCH   5   8
BRANCH   1  18
HETATM   18  C   UNL     1     -45.595 -54.589  14.328  1.00  0.00     0.422 C 
HETATM   19  F   UNL     1     -46.296 -53.560  13.791  1.00  0.00    -0.166 F 
HETATM   20  F   UNL     1     -45.938 -54.617  15.648  1.00  0.00    -0.166 F 
HETATM   21  F   UNL     1     -46.099 -55.728  13.787  1.00  0.00    -0.166 F 
ENDBRANCH   1  18
TORSDOF 4
ENDMDL
MODEL 4
REMARK VINA RESULT:      -5.6      4.724      5.596
REMARK  4 active torsions:
REMARK  status: ('A' for Active; 'I' for Inactive)
REMARK    1  A    between atoms: C_2  and  C_5 
REMARK    2  A    between atoms: N_9  and  C_10 
REMARK    3  A    between atoms: C_10  and  C_11 
REMARK       I    between atoms: C_11  and  N_13 
REMARK    4  A    between atoms: N_13  and  C_14 
ROOT
HETATM    1  C   UNL     1     -46.610 -51.817  15.545  1.00  0.00     0.115 C 
HETATM    2  C   UNL     1     -46.840 -51.183  14.379  1.00  0.00     0.023 C 
HETATM    3  C   UNL     1     -46.395 -51.743  13.128  1.00  0.00     0.018 C 
HETATM    4  C   UNL     1     -45.893 -52.983  13.102  1.00  0.00     0.095 C 
HETATM    5  N   UNL     1     -45.671 -53.684  14.278  1.00  0.00    -0.315 N 
HETATM    6  C   UNL     1     -45.827 -53.074  15.524  1.00  0.00     0.263 C 
HETATM    7  O   UNL     1     -45.399 -53.584  16.559  1.00  0.00    -0.267 OA
ENDROOT
BRANCH   5   8
HETATM    8  C   UNL     1     -45.121 -55.041  14.228  1.00  0.00     0.234 C 
BRANCH   8   9
HETATM    9  C   UNL     1     -43.615 -55.070  14.562  1.00  0.00     0.236 C 
HETATM   10  O   UNL     1     -43.154 -55.827  15.413  1.00  0.00    -0.272 OA
HETATM   11  N   UNL     1     -42.836 -54.231  13.794  1.00  0.00    -0.353 N 
HETATM   12  H   UNL     1     -43.315 -53.666  13.091  1.00  0.00     0.163 HD
BRANCH  11  13
HETATM   13  C   UNL     1     -41.394 -54.101  13.864  1.00  0.00     0.110 C 
HETATM   14  C   UNL     1     -40.880 -53.240  14.997  1.00  0.00     0.053 C 
HETATM   15  C   UNL     1     -39.511 -52.791  14.512  1.00  0.00     0.169 C 
HETATM   16  O   UNL     1     -39.383 -53.158  13.130  1.00  0.00    -0.389 OA
HETATM   17  C   UNL     1     -40.693 -53.501  12.656  1.00  0.00     0.192 C 
ENDBRANCH  11  13
ENDBRANCH   8   9
ENDBRANCH   5   8
BRANCH   1  18
HETATM   18  C   UNL     1     -47.193 -51.393  16.841  1.00  0.00     0.422 C 
HETATM   19  F   UNL     1     -47.617 -52.386  17.659  1.00  0.00    -0.166 F 
HETATM   20  F   UNL     1     -48.284 -50.600  16.631  1.00  0.00    -0.166 F 
HETATM   21  F   UNL     1     -46.319 -50.643  17.560  1.00  0.00    -0.166 F 
ENDBRANCH   1  18
TORSDOF 4
ENDMDL
MODEL 5
REMARK VINA RESULT:      -5.4      1.411      2.076
REMARK  4 active torsions:
REMARK  status: ('A' for Active; 'I' for Inactive)
REMARK    1  A    between atoms: C_2  and  C_5 
REMARK    2  A    between atoms: N_9  and  C_10 
REMARK    3  A    between atoms: C_10  and  C_11 
REMARK       I    between atoms: C_11  and  N_13 
REMARK    4  A    between atoms: N_13  and  C_14 
ROOT
HETATM    1  C   UNL     1     -45.247 -52.381  13.676  1.00  0.00     0.115 C 
HETATM    2  C   UNL     1     -45.079 -53.658  13.283  1.00  0.00     0.023 C 
HETATM    3  C   UNL     1     -43.788 -54.145  12.866  1.00  0.00     0.018 C 
HETATM    4  C   UNL     1     -42.709 -53.370  13.025  1.00  0.00     0.095 C 
HETATM    5  N   UNL     1     -42.834 -52.059  13.459  1.00  0.00    -0.315 N 
HETATM    6  C   UNL     1     -44.088 -51.462  13.606  1.00  0.00     0.263 C 
HETATM    7  O   UNL     1     -44.220 -50.245  13.741  1.00  0.00    -0.267 OA
ENDROOT
BRANCH   5   8
HETATM    8  C   UNL     1     -41.640 -51.227  13.628  1.00  0.00     0.234 C 
BRANCH   8   9
HETATM    9  C   UNL     1     -41.273 -50.468  12.335  1.00  0.00     0.236 C 
HETATM   10  O   UNL     1     -40.618 -50.994  11.438  1.00  0.00    -0.272 OA
HETATM   11  N   UNL     1     -41.787 -49.191  12.248  1.00  0.00    -0.353 N 
HETATM   12  H   UNL     1     -42.347 -48.862  13.037  1.00  0.00     0.163 HD
BRANCH  11  13
HETATM   13  C   UNL     1     -41.641 -48.285  11.127  1.00  0.00     0.110 C 
HETATM   14  C   UNL     1     -40.801 -47.056  11.401  1.00  0.00     0.053 C 
HETATM   15  C   UNL     1     -41.285 -46.055  10.364  1.00  0.00     0.169 C 
HETATM   16  O   UNL     1     -42.463 -46.591   9.740  1.00  0.00    -0.389 OA
HETATM   17  C   UNL     1     -42.912 -47.688  10.548  1.00  0.00     0.192 C 
ENDBRANCH  11  13
ENDBRANCH   8   9
ENDBRANCH   5   8
BRANCH   1  18
HETATM   18  C   UNL     1     -46.497 -51.865  14.284  1.00  0.00     0.422 C 
HETATM   19  F   UNL     1     -46.355 -51.147  15.424  1.00  0.00    -0.166 F 
HETATM   20  F   UNL     1     -47.329 -52.899  14.603  1.00  0.00    -0.166 F 
HETATM   21  F   UNL     1     -47.189 -51.083  13.415  1.00  0.00    -0.166 F 
ENDBRANCH   1  18
TORSDOF 4
ENDMDL
MODEL 6
REMARK VINA RESULT:      -5.4      3.130      3.804
REMARK  4 active torsions:
REMARK  status: ('A' for Active; 'I' for Inactive)
REMARK    1  A    between atoms: C_2  and  C_5 
REMARK    2  A    between atoms: N_9  and  C_10 
REMARK    3  A    between atoms: C_10  and  C_11 
REMARK       I    between atoms: C_11  and  N_13 
REMARK    4  A    between atoms: N_13  and  C_14 
ROOT
HETATM    1  C   UNL     1     -41.730 -52.585  13.317  1.00  0.00     0.115 C 
HETATM    2  C   UNL     1     -42.924 -52.003  13.536  1.00  0.00     0.023 C 
HETATM    3  C   UNL     1     -43.172 -50.640  13.137  1.00  0.00     0.018 C 
HETATM    4  C   UNL     1     -42.266 -49.996  12.394  1.00  0.00     0.095 C 
HETATM    5  N   UNL     1     -41.035 -50.572  12.117  1.00  0.00    -0.315 N 
HETATM    6  C   UNL     1     -40.647 -51.772  12.716  1.00  0.00     0.263 C 
HETATM    7  O   UNL     1     -39.482 -52.170  12.688  1.00  0.00    -0.267 OA
ENDROOT
BRANCH   5   8
HETATM    8  C   UNL     1     -40.056 -49.850  11.300  1.00  0.00     0.234 C 
BRANCH   8   9
HETATM    9  C   UNL     1     -39.826 -48.411  11.807  1.00  0.00     0.236 C 
HETATM   10  O   UNL     1     -39.164 -48.176  12.815  1.00  0.00    -0.272 OA
HETATM   11  N   UNL     1     -40.367 -47.425  11.010  1.00  0.00    -0.353 N 
HETATM   12  H   UNL     1     -40.872 -47.727  10.175  1.00  0.00     0.163 HD
BRANCH  11  13
HETATM   13  C   UNL     1     -40.255 -45.996  11.223  1.00  0.00     0.110 C 
HETATM   14  C   UNL     1     -41.540 -45.303  11.623  1.00  0.00     0.053 C 
HETATM   15  C   UNL     1     -41.313 -43.860  11.204  1.00  0.00     0.169 C 
HETATM   16  O   UNL     1     -40.116 -43.806  10.412  1.00  0.00    -0.389 OA
HETATM   17  C   UNL     1     -39.784 -45.154  10.049  1.00  0.00     0.192 C 
ENDBRANCH  11  13
ENDBRANCH   8   9
ENDBRANCH   5   8
BRANCH   1  18
HETATM   18  C   UNL     1     -41.465 -54.028  13.536  1.00  0.00     0.422 C 
HETATM   19  F   UNL     1     -40.923 -54.701  12.492  1.00  0.00    -0.166 F 
HETATM   20  F   UNL     1     -42.626 -54.681  13.830  1.00  0.00    -0.166 F 
HETATM   21  F   UNL     1     -40.643 -54.229  14.598  1.00  0.00    -0.166 F 
ENDBRANCH   1  18
TORSDOF 4
ENDMDL
MODEL 7
REMARK VINA RESULT:      -5.4      3.328      4.108
REMARK  4 active torsions:
REMARK  status: ('A' for Active; 'I' for Inactive)
REMARK    1  A    between atoms: C_2  and  C_5 
REMARK    2  A    between atoms: N_9  and  C_10 
REMARK    3  A    between atoms: C_10  and  C_11 
REMARK       I    between atoms: C_11  and  N_13 
REMARK    4  A    between atoms: N_13  and  C_14 
ROOT
HETATM    1  C   UNL     1     -44.201 -54.507  14.211  1.00  0.00     0.115 C 
HETATM    2  C   UNL     1     -43.328 -54.912  15.153  1.00  0.00     0.023 C 
HETATM    3  C   UNL     1     -41.917 -54.648  15.022  1.00  0.00     0.018 C 
HETATM    4  C   UNL     1     -41.484 -53.851  14.039  1.00  0.00     0.095 C 
HETATM    5  N   UNL     1     -42.356 -53.385  13.066  1.00  0.00    -0.315 N 
HETATM    6  C   UNL     1     -43.674 -53.842  12.997  1.00  0.00     0.263 C 
HETATM    7  O   UNL     1     -44.383 -53.644  12.010  1.00  0.00    -0.267 OA
ENDROOT
BRANCH   5   8
HETATM    8  C   UNL     1     -41.862 -52.513  11.998  1.00  0.00     0.234 C 
BRANCH   8   9
HETATM    9  C   UNL     1     -41.548 -51.091  12.508  1.00  0.00     0.236 C 
HETATM   10  O   UNL     1     -42.437 -50.285  12.772  1.00  0.00    -0.272 OA
HETATM   11  N   UNL     1     -40.207 -50.828  12.697  1.00  0.00    -0.353 N 
HETATM   12  H   UNL     1     -39.551 -51.579  12.478  1.00  0.00     0.163 HD
BRANCH  11  13
HETATM   13  C   UNL     1     -39.642 -49.598  13.214  1.00  0.00     0.110 C 
HETATM   14  C   UNL     1     -38.200 -49.344  12.834  1.00  0.00     0.053 C 
HETATM   15  C   UNL     1     -37.704 -48.404  13.921  1.00  0.00     0.169 C 
HETATM   16  O   UNL     1     -38.702 -48.345  14.952  1.00  0.00    -0.389 OA
HETATM   17  C   UNL     1     -39.615 -49.428  14.724  1.00  0.00     0.192 C 
ENDBRANCH  11  13
ENDBRANCH   8   9
ENDBRANCH   5   8
BRANCH   1  18
HETATM   18  C   UNL     1     -45.674 -54.584  14.367  1.00  0.00     0.422 C 
HETATM   19  F   UNL     1     -46.384 -53.554  13.847  1.00  0.00    -0.166 F 
HETATM   20  F   UNL     1     -46.007 -54.629  15.689  1.00  0.00    -0.166 F 
HETATM   21  F   UNL     1     -46.175 -55.720  13.817  1.00  0.00    -0.166 F 
ENDBRANCH   1  18
TORSDOF 4
ENDMDL
MODEL 8
REMARK VINA RESULT:      -5.3     20.599     22.733
REMARK  4 active torsions:
REMARK  status: ('A' for Active; 'I' for Inactive)
REMARK    1  A    between atoms: C_2  and  C_5 
REMARK    2  A    between atoms: N_9  and  C_10 
REMARK    3  A    between atoms: C_10  and  C_11 
REMARK       I    between atoms: C_11  and  N_13 
REMARK    4  A    between atoms: N_13  and  C_14 
ROOT
HETATM    1  C   UNL     1     -25.871 -41.915   0.932  1.00  0.00     0.115 C 
HETATM    2  C   UNL     1     -24.996 -42.911   1.170  1.00  0.00     0.023 C 
HETATM    3  C   UNL     1     -24.731 -43.922   0.178  1.00  0.00     0.018 C 
HETATM    4  C   UNL     1     -25.231 -43.783  -1.055  1.00  0.00     0.095 C 
HETATM    5  N   UNL     1     -26.111 -42.752  -1.352  1.00  0.00    -0.315 N 
HETATM    6  C   UNL     1     -26.611 -41.917  -0.351  1.00  0.00     0.263 C 
HETATM    7  O   UNL     1     -27.571 -41.170  -0.543  1.00  0.00    -0.267 OA
ENDROOT
BRANCH   5   8
HETATM    8  C   UNL     1     -26.647 -42.616  -2.709  1.00  0.00     0.234 C 
BRANCH   8   9
HETATM    9  C   UNL     1     -27.422 -43.874  -3.155  1.00  0.00     0.236 C 
HETATM   10  O   UNL     1     -26.990 -44.627  -4.025  1.00  0.00    -0.272 OA
HETATM   11  N   UNL     1     -28.592 -44.108  -2.464  1.00  0.00    -0.353 N 
HETATM   12  H   UNL     1     -28.844 -43.436  -1.737  1.00  0.00     0.163 HD
BRANCH  11  13
HETATM   13  C   UNL     1     -29.480 -45.239  -2.644  1.00  0.00     0.110 C 
HETATM   14  C   UNL     1     -30.827 -44.907  -3.250  1.00  0.00     0.053 C 
HETATM   15  C   UNL     1     -31.717 -46.050  -2.787  1.00  0.00     0.169 C 
HETATM   16  O   UNL     1     -30.996 -46.809  -1.804  1.00  0.00    -0.389 OA
HETATM   17  C   UNL     1     -29.866 -46.022  -1.401  1.00  0.00     0.192 C 
ENDBRANCH  11  13
ENDBRANCH   8   9
ENDBRANCH   5   8
BRANCH   1  18
HETATM   18  C   UNL     1     -26.056 -40.750   1.830  1.00  0.00     0.422 C 
HETATM   19  F   UNL     1     -25.981 -39.529   1.247  1.00  0.00    -0.166 F 
HETATM   20  F   UNL     1     -25.103 -40.750   2.806  1.00  0.00    -0.166 F 
HETATM   21  F   UNL     1     -27.251 -40.801   2.474  1.00  0.00    -0.166 F 
ENDBRANCH   1  18
TORSDOF 4
ENDMDL
MODEL 9
REMARK VINA RESULT:      -5.2      3.734      4.379
REMARK  4 active torsions:
REMARK  status: ('A' for Active; 'I' for Inactive)
REMARK    1  A    between atoms: C_2  and  C_5 
REMARK    2  A    between atoms: N_9  and  C_10 
REMARK    3  A    between atoms: C_10  and  C_11 
REMARK       I    between atoms: C_11  and  N_13 
REMARK    4  A    between atoms: N_13  and  C_14 
ROOT
HETATM    1  C   UNL     1     -46.036 -51.549  14.946  1.00  0.00     0.115 C 
HETATM    2  C   UNL     1     -46.819 -51.507  13.851  1.00  0.00     0.023 C 
HETATM    3  C   UNL     1     -46.354 -52.014  12.584  1.00  0.00     0.018 C 
HETATM    4  C   UNL     1     -45.198 -52.683  12.526  1.00  0.00     0.095 C 
HETATM    5  N   UNL     1     -44.376 -52.779  13.639  1.00  0.00    -0.315 N 
HETATM    6  C   UNL     1     -44.655 -52.067  14.808  1.00  0.00     0.263 C 
HETATM    7  O   UNL     1     -43.823 -51.935  15.706  1.00  0.00    -0.267 OA
ENDROOT
BRANCH   5   8
HETATM    8  C   UNL     1     -43.114 -53.517  13.555  1.00  0.00     0.234 C 
BRANCH   8   9
HETATM    9  C   UNL     1     -41.965 -52.643  13.010  1.00  0.00     0.236 C 
HETATM   10  O   UNL     1     -41.821 -52.438  11.807  1.00  0.00    -0.272 OA
HETATM   11  N   UNL     1     -41.163 -52.074  13.976  1.00  0.00    -0.353 N 
HETATM   12  H   UNL     1     -41.388 -52.284  14.950  1.00  0.00     0.163 HD
BRANCH  11  13
HETATM   13  C   UNL     1     -40.051 -51.173  13.743  1.00  0.00     0.110 C 
HETATM   14  C   UNL     1     -38.680 -51.799  13.872  1.00  0.00     0.053 C 
HETATM   15  C   UNL     1     -37.775 -50.617  14.178  1.00  0.00     0.169 C 
HETATM   16  O   UNL     1     -38.605 -49.477  14.450  1.00  0.00    -0.389 OA
HETATM   17  C   UNL     1     -39.941 -49.959  14.650  1.00  0.00     0.192 C 
ENDBRANCH  11  13
ENDBRANCH   8   9
ENDBRANCH   5   8
BRANCH   1  18
HETATM   18  C   UNL     1     -46.510 -51.215  16.311  1.00  0.00     0.422 C 
HETATM   19  F   UNL     1     -46.369 -52.185  17.247  1.00  0.00    -0.166 F 
HETATM   20  F   UNL     1     -47.842 -50.918  16.287  1.00  0.00    -0.166 F 
HETATM   21  F   UNL     1     -45.889 -50.110  16.798  1.00  0.00    -0.166 F 
ENDBRANCH   1  18
TORSDOF 4
ENDMDL
