MODEL 1
REMARK VINA RESULT:      -5.6      0.000      0.000
REMARK  4 active torsions:
REMARK  status: ('A' for Active; 'I' for Inactive)
REMARK    1  A    between atoms: C_2  and  C_3 
REMARK       I    between atoms: N_6  and  C_10 
REMARK       I    between atoms: C_10  and  N_12 
REMARK    2  A    between atoms: N_12  and  C_13 
REMARK    3  A    between atoms: C_13  and  C_14 
REMARK    4  A    between atoms: C_14  and  N_15 
ROOT
HETATM    1  C   UNL     1     -45.815 -52.549  13.902  1.00  0.00     0.073 C 
HETATM    2  C   UNL     1     -46.853 -51.640  14.578  1.00  0.00     0.047 C 
HETATM    3  C   UNL     1     -44.409 -52.193  14.451  1.00  0.00     0.165 C 
HETATM    4  N   UNL     1     -43.419 -53.199  14.056  1.00  0.00    -0.329 N 
HETATM    5  C   UNL     1     -43.802 -54.555  14.454  1.00  0.00     0.153 C 
HETATM    6  C   UNL     1     -45.206 -54.894  13.945  1.00  0.00     0.189 C 
HETATM    7  O   UNL     1     -46.172 -53.894  14.315  1.00  0.00    -0.377 OA
HETATM    8  C   UNL     1     -42.346 -53.030  13.210  1.00  0.00     0.318 C 
HETATM    9  O   UNL     1     -41.664 -53.966  12.799  1.00  0.00    -0.247 OA
HETATM   10  N   UNL     1     -42.084 -51.734  12.834  1.00  0.00    -0.341 N 
HETATM   11  H   UNL     1     -42.260 -51.061  13.563  1.00  0.00     0.164 HD
ENDROOT
BRANCH  10  12
HETATM   12  C   UNL     1     -40.924 -51.474  11.992  1.00  0.00     0.144 C 
BRANCH  12  13
HETATM   13  C   UNL     1     -40.029 -50.375  12.551  1.00  0.00     0.149 C 
BRANCH  13  14
HETATM   14  N   UNL     1     -40.225 -49.109  11.878  1.00  0.00    -0.350 N 
HETATM   15  C   UNL     1     -39.577 -47.936  12.148  1.00  0.00     0.108 A 
HETATM   16  C   UNL     1     -40.108 -47.028  11.261  1.00  0.00     0.106 A 
HETATM   17  N   UNL     1     -41.061 -47.617  10.472  1.00  0.00    -0.361 N 
HETATM   18  C   UNL     1     -41.112 -48.869  10.866  1.00  0.00     0.182 A 
ATOM     19  HN  UNL     1     -41.615 -47.177   9.737  1.00  0.00     0.166 HD
ENDBRANCH  13  14
ENDBRANCH  12  13
ENDBRANCH  10  12
BRANCH   1  20
HETATM   20  C   UNL     1     -45.914 -52.433  12.359  1.00  0.00     0.035 C 
HETATM   21  C   UNL     1     -47.096 -51.633  11.828  1.00  0.00     0.008 C 
ENDBRANCH   1  20
TORSDOF 4
ENDMDL
MODEL 2
REMARK VINA RESULT:      -5.5      1.531      1.825
REMARK  4 active torsions:
REMARK  status: ('A' for Active; 'I' for Inactive)
REMARK    1  A    between atoms: C_2  and  C_3 
REMARK       I    between atoms: N_6  and  C_10 
REMARK       I    between atoms: C_10  and  N_12 
REMARK    2  A    between atoms: N_12  and  C_13 
REMARK    3  A    between atoms: C_13  and  C_14 
REMARK    4  A    between atoms: C_14  and  N_15 
ROOT
HETATM    1  C   UNL     1     -45.946 -52.544  14.188  1.00  0.00     0.073 C 
HETATM    2  C   UNL     1     -46.930 -51.496  14.731  1.00  0.00     0.047 C 
HETATM    3  C   UNL     1     -44.629 -52.460  15.004  1.00  0.00     0.165 C 
HETATM    4  N   UNL     1     -43.760 -53.606  14.722  1.00  0.00    -0.329 N 
HETATM    5  C   UNL     1     -44.428 -54.890  14.945  1.00  0.00     0.153 C 
HETATM    6  C   UNL     1     -45.747 -54.959  14.170  1.00  0.00     0.189 C 
HETATM    7  O   UNL     1     -46.588 -53.822  14.432  1.00  0.00    -0.377 OA
HETATM    8  C   UNL     1     -42.533 -53.592  14.095  1.00  0.00     0.318 C 
HETATM    9  O   UNL     1     -41.949 -54.615  13.747  1.00  0.00    -0.247 OA
HETATM   10  N   UNL     1     -41.998 -52.347  13.866  1.00  0.00    -0.341 N 
HETATM   11  H   UNL     1     -42.195 -51.684  14.599  1.00  0.00     0.164 HD
ENDROOT
BRANCH  10  12
HETATM   12  C   UNL     1     -40.672 -52.259  13.267  1.00  0.00     0.144 C 
BRANCH  12  13
HETATM   13  C   UNL     1     -39.958 -50.959  13.614  1.00  0.00     0.149 C 
BRANCH  13  14
HETATM   14  N   UNL     1     -39.000 -50.570  12.601  1.00  0.00    -0.350 N 
HETATM   15  C   UNL     1     -37.663 -50.853  12.597  1.00  0.00     0.108 A 
HETATM   16  C   UNL     1     -37.183 -50.268  11.447  1.00  0.00     0.106 A 
HETATM   17  N   UNL     1     -38.189 -49.635  10.766  1.00  0.00    -0.361 N 
HETATM   18  C   UNL     1     -39.271 -49.831  11.484  1.00  0.00     0.182 A 
ATOM     19  HN  UNL     1     -38.114 -49.120   9.889  1.00  0.00     0.166 HD
ENDBRANCH  13  14
ENDBRANCH  12  13
ENDBRANCH  10  12
BRANCH   1  20
HETATM   20  C   UNL     1     -45.731 -52.350  12.665  1.00  0.00     0.035 C 
HETATM   21  C   UNL     1     -46.895 -51.727  11.905  1.00  0.00     0.008 C 
ENDBRANCH   1  20
TORSDOF 4
ENDMDL
MODEL 3
REMARK VINA RESULT:      -5.4      3.667      6.093
REMARK  4 active torsions:
REMARK  status: ('A' for Active; 'I' for Inactive)
REMARK    1  A    between atoms: C_2  and  C_3 
REMARK       I    between atoms: N_6  and  C_10 
REMARK       I    between atoms: C_10  and  N_12 
REMARK    2  A    between atoms: N_12  and  C_13 
REMARK    3  A    between atoms: C_13  and  C_14 
REMARK    4  A    between atoms: C_14  and  N_15 
ROOT
HETATM    1  C   UNL     1     -38.846 -50.477  12.448  1.00  0.00     0.073 C 
HETATM    2  C   UNL     1     -37.426 -50.541  11.863  1.00  0.00     0.047 C 
HETATM    3  C   UNL     1     -39.828 -50.052  11.325  1.00  0.00     0.165 C 
HETATM    4  N   UNL     1     -41.220 -50.237  11.745  1.00  0.00    -0.329 N 
HETATM    5  C   UNL     1     -41.499 -51.606  12.187  1.00  0.00     0.153 C 
HETATM    6  C   UNL     1     -40.506 -52.041  13.268  1.00  0.00     0.189 C 
HETATM    7  O   UNL     1     -39.141 -51.836  12.862  1.00  0.00    -0.377 OA
HETATM    8  C   UNL     1     -42.168 -49.261  11.960  1.00  0.00     0.318 C 
HETATM    9  O   UNL     1     -43.260 -49.491  12.473  1.00  0.00    -0.247 OA
HETATM   10  N   UNL     1     -41.810 -47.991  11.573  1.00  0.00    -0.341 N 
HETATM   11  H   UNL     1     -41.246 -47.969  10.738  1.00  0.00     0.164 HD
ENDROOT
BRANCH  10  12
HETATM   12  C   UNL     1     -42.788 -46.920  11.710  1.00  0.00     0.144 C 
BRANCH  12  13
HETATM   13  C   UNL     1     -43.016 -46.164  10.408  1.00  0.00     0.149 C 
BRANCH  13  14
HETATM   14  N   UNL     1     -43.701 -46.966   9.417  1.00  0.00    -0.350 N 
HETATM   15  C   UNL     1     -43.174 -47.436   8.246  1.00  0.00     0.108 A 
HETATM   16  C   UNL     1     -44.204 -48.127   7.650  1.00  0.00     0.106 A 
HETATM   17  N   UNL     1     -45.335 -48.080   8.422  1.00  0.00    -0.361 N 
HETATM   18  C   UNL     1     -45.004 -47.374   9.479  1.00  0.00     0.182 A 
ATOM     19  HN  UNL     1     -46.241 -48.502   8.219  1.00  0.00     0.166 HD
ENDBRANCH  13  14
ENDBRANCH  12  13
ENDBRANCH  10  12
BRANCH   1  20
HETATM   20  C   UNL     1     -38.884 -49.536  13.679  1.00  0.00     0.035 C 
HETATM   21  C   UNL     1     -37.822 -48.445  13.714  1.00  0.00     0.008 C 
ENDBRANCH   1  20
TORSDOF 4
ENDMDL
MODEL 4
REMARK VINA RESULT:      -5.3      1.871      2.392
REMARK  4 active torsions:
REMARK  status: ('A' for Active; 'I' for Inactive)
REMARK    1  A    between atoms: C_2  and  C_3 
REMARK       I    between atoms: N_6  and  C_10 
REMARK       I    between atoms: C_10  and  N_12 
REMARK    2  A    between atoms: N_12  and  C_13 
REMARK    3  A    between atoms: C_13  and  C_14 
REMARK    4  A    between atoms: C_14  and  N_15 
ROOT
HETATM    1  C   UNL     1     -45.738 -53.352  15.967  1.00  0.00     0.073 C 
HETATM    2  C   UNL     1     -45.999 -53.329  17.481  1.00  0.00     0.047 C 
HETATM    3  C   UNL     1     -44.209 -53.253  15.724  1.00  0.00     0.165 C 
HETATM    4  N   UNL     1     -43.877 -53.544  14.327  1.00  0.00    -0.329 N 
HETATM    5  C   UNL     1     -44.389 -54.843  13.884  1.00  0.00     0.153 C 
HETATM    6  C   UNL     1     -45.891 -54.957  14.159  1.00  0.00     0.189 C 
HETATM    7  O   UNL     1     -46.216 -54.649  15.526  1.00  0.00    -0.377 OA
HETATM    8  C   UNL     1     -43.360 -52.677  13.390  1.00  0.00     0.318 C 
HETATM    9  O   UNL     1     -43.270 -52.957  12.198  1.00  0.00    -0.247 OA
HETATM   10  N   UNL     1     -42.955 -51.455  13.872  1.00  0.00    -0.341 N 
HETATM   11  H   UNL     1     -42.549 -51.501  14.793  1.00  0.00     0.164 HD
ENDROOT
BRANCH  10  12
HETATM   12  C   UNL     1     -42.337 -50.512  12.949  1.00  0.00     0.144 C 
BRANCH  12  13
HETATM   13  C   UNL     1     -43.139 -49.225  12.802  1.00  0.00     0.149 C 
BRANCH  13  14
HETATM   14  N   UNL     1     -42.793 -48.495  11.601  1.00  0.00    -0.350 N 
HETATM   15  C   UNL     1     -43.613 -47.664  10.891  1.00  0.00     0.108 A 
HETATM   16  C   UNL     1     -42.842 -47.221   9.841  1.00  0.00     0.106 A 
HETATM   17  N   UNL     1     -41.586 -47.767   9.894  1.00  0.00    -0.361 N 
HETATM   18  C   UNL     1     -41.585 -48.531  10.963  1.00  0.00     0.182 A 
ATOM     19  HN  UNL     1     -40.817 -47.615   9.242  1.00  0.00     0.166 HD
ENDBRANCH  13  14
ENDBRANCH  12  13
ENDBRANCH  10  12
BRANCH   1  20
HETATM   20  C   UNL     1     -46.541 -52.230  15.260  1.00  0.00     0.035 C 
HETATM   21  C   UNL     1     -47.425 -51.378  16.161  1.00  0.00     0.008 C 
ENDBRANCH   1  20
TORSDOF 4
ENDMDL
MODEL 5
REMARK VINA RESULT:      -5.2      2.281      6.792
REMARK  4 active torsions:
REMARK  status: ('A' for Active; 'I' for Inactive)
REMARK    1  A    between atoms: C_2  and  C_3 
REMARK       I    between atoms: N_6  and  C_10 
REMARK       I    between atoms: C_10  and  N_12 
REMARK    2  A    between atoms: N_12  and  C_13 
REMARK    3  A    between atoms: C_13  and  C_14 
REMARK    4  A    between atoms: C_14  and  N_15 
ROOT
HETATM    1  C   UNL     1     -40.802 -47.871  11.950  1.00  0.00     0.073 C 
HETATM    2  C   UNL     1     -41.351 -46.613  11.259  1.00  0.00     0.047 C 
HETATM    3  C   UNL     1     -41.098 -49.101  11.053  1.00  0.00     0.165 C 
HETATM    4  N   UNL     1     -40.365 -50.282  11.518  1.00  0.00    -0.329 N 
HETATM    5  C   UNL     1     -38.923 -50.048  11.618  1.00  0.00     0.153 C 
HETATM    6  C   UNL     1     -38.631 -48.811  12.473  1.00  0.00     0.189 C 
HETATM    7  O   UNL     1     -39.369 -47.659  12.027  1.00  0.00    -0.377 OA
HETATM    8  C   UNL     1     -40.892 -51.439  12.048  1.00  0.00     0.318 C 
HETATM    9  O   UNL     1     -40.201 -52.310  12.569  1.00  0.00    -0.247 OA
HETATM   10  N   UNL     1     -42.258 -51.559  11.970  1.00  0.00    -0.341 N 
HETATM   11  H   UNL     1     -42.649 -51.170  11.126  1.00  0.00     0.164 HD
ENDROOT
BRANCH  10  12
HETATM   12  C   UNL     1     -42.878 -52.787  12.450  1.00  0.00     0.144 C 
BRANCH  12  13
HETATM   13  C   UNL     1     -43.408 -52.659  13.873  1.00  0.00     0.149 C 
BRANCH  13  14
HETATM   14  N   UNL     1     -44.564 -53.498  14.108  1.00  0.00    -0.350 N 
HETATM   15  C   UNL     1     -45.518 -53.316  15.070  1.00  0.00     0.108 A 
HETATM   16  C   UNL     1     -46.392 -54.365  14.901  1.00  0.00     0.106 A 
HETATM   17  N   UNL     1     -45.989 -55.175  13.873  1.00  0.00    -0.361 N 
HETATM   18  C   UNL     1     -44.885 -54.631  13.414  1.00  0.00     0.182 A 
ATOM     19  HN  UNL     1     -46.447 -56.022  13.536  1.00  0.00     0.166 HD
ENDBRANCH  13  14
ENDBRANCH  12  13
ENDBRANCH  10  12
BRANCH   1  20
HETATM   20  C   UNL     1     -41.388 -48.004  13.379  1.00  0.00     0.035 C 
HETATM   21  C   UNL     1     -42.879 -48.303  13.460  1.00  0.00     0.008 C 
ENDBRANCH   1  20
TORSDOF 4
ENDMDL
MODEL 6
REMARK VINA RESULT:      -5.1      2.076      2.529
REMARK  4 active torsions:
REMARK  status: ('A' for Active; 'I' for Inactive)
REMARK    1  A    between atoms: C_2  and  C_3 
REMARK       I    between atoms: N_6  and  C_10 
REMARK       I    between atoms: C_10  and  N_12 
REMARK    2  A    between atoms: N_12  and  C_13 
REMARK    3  A    between atoms: C_13  and  C_14 
REMARK    4  A    between atoms: C_14  and  N_15 
ROOT
HETATM    1  C   UNL     1     -45.320 -53.508  16.151  1.00  0.00     0.073 C 
HETATM    2  C   UNL     1     -45.695 -53.778  17.617  1.00  0.00     0.047 C 
HETATM    3  C   UNL     1     -43.792 -53.713  15.983  1.00  0.00     0.165 C 
HETATM    4  N   UNL     1     -43.417 -53.740  14.566  1.00  0.00    -0.329 N 
HETATM    5  C   UNL     1     -44.161 -54.745  13.804  1.00  0.00     0.153 C 
HETATM    6  C   UNL     1     -45.670 -54.568  14.001  1.00  0.00     0.189 C 
HETATM    7  O   UNL     1     -46.032 -54.519  15.392  1.00  0.00    -0.377 OA
HETATM    8  C   UNL     1     -42.647 -52.823  13.886  1.00  0.00     0.318 C 
HETATM    9  O   UNL     1     -42.521 -52.830  12.664  1.00  0.00    -0.247 OA
HETATM   10  N   UNL     1     -42.027 -51.875  14.664  1.00  0.00    -0.341 N 
HETATM   11  H   UNL     1     -41.718 -52.227  15.557  1.00  0.00     0.164 HD
ENDROOT
BRANCH  10  12
HETATM   12  C   UNL     1     -41.143 -50.913  14.019  1.00  0.00     0.144 C 
BRANCH  12  13
HETATM   13  C   UNL     1     -39.699 -51.394  13.955  1.00  0.00     0.149 C 
BRANCH  13  14
HETATM   14  N   UNL     1     -38.984 -50.843  12.824  1.00  0.00    -0.350 N 
HETATM   15  C   UNL     1     -37.627 -50.783  12.671  1.00  0.00     0.108 A 
HETATM   16  C   UNL     1     -37.437 -50.171  11.453  1.00  0.00     0.106 A 
HETATM   17  N   UNL     1     -38.637 -49.856  10.873  1.00  0.00    -0.361 N 
HETATM   18  C   UNL     1     -39.552 -50.270  11.720  1.00  0.00     0.182 A 
ATOM     19  HN  UNL     1     -38.789 -49.396   9.975  1.00  0.00     0.166 HD
ENDBRANCH  13  14
ENDBRANCH  12  13
ENDBRANCH  10  12
BRANCH   1  20
HETATM   20  C   UNL     1     -45.798 -52.098  15.720  1.00  0.00     0.035 C 
HETATM   21  C   UNL     1     -47.292 -51.835  15.846  1.00  0.00     0.008 C 
ENDBRANCH   1  20
TORSDOF 4
ENDMDL
MODEL 7
REMARK VINA RESULT:      -4.9      2.126      2.935
REMARK  4 active torsions:
REMARK  status: ('A' for Active; 'I' for Inactive)
REMARK    1  A    between atoms: C_2  and  C_3 
REMARK       I    between atoms: N_6  and  C_10 
REMARK       I    between atoms: C_10  and  N_12 
REMARK    2  A    between atoms: N_12  and  C_13 
REMARK    3  A    between atoms: C_13  and  C_14 
REMARK    4  A    between atoms: C_14  and  N_15 
ROOT
HETATM    1  C   UNL     1     -44.198 -54.110  16.464  1.00  0.00     0.073 C 
HETATM    2  C   UNL     1     -43.649 -54.646  17.795  1.00  0.00     0.047 C 
HETATM    3  C   UNL     1     -43.386 -54.738  15.301  1.00  0.00     0.165 C 
HETATM    4  N   UNL     1     -44.031 -54.485  14.010  1.00  0.00    -0.329 N 
HETATM    5  C   UNL     1     -45.422 -54.940  13.975  1.00  0.00     0.153 C 
HETATM    6  C   UNL     1     -46.216 -54.351  15.145  1.00  0.00     0.189 C 
HETATM    7  O   UNL     1     -45.569 -54.581  16.408  1.00  0.00    -0.377 OA
HETATM    8  C   UNL     1     -43.556 -53.711  12.974  1.00  0.00     0.318 C 
HETATM    9  O   UNL     1     -44.236 -53.415  11.995  1.00  0.00    -0.247 OA
HETATM   10  N   UNL     1     -42.260 -53.272  13.106  1.00  0.00    -0.341 N 
HETATM   11  H   UNL     1     -41.653 -53.941  13.554  1.00  0.00     0.164 HD
ENDROOT
BRANCH  10  12
HETATM   12  C   UNL     1     -41.670 -52.505  12.018  1.00  0.00     0.144 C 
BRANCH  12  13
HETATM   13  C   UNL     1     -41.012 -51.217  12.497  1.00  0.00     0.149 C 
BRANCH  13  14
HETATM   14  N   UNL     1     -41.668 -50.036  11.978  1.00  0.00    -0.350 N 
HETATM   15  C   UNL     1     -41.150 -49.149  11.078  1.00  0.00     0.108 A 
HETATM   16  C   UNL     1     -42.135 -48.203  10.909  1.00  0.00     0.106 A 
HETATM   17  N   UNL     1     -43.226 -48.491  11.686  1.00  0.00    -0.361 N 
HETATM   18  C   UNL     1     -42.917 -49.599  12.320  1.00  0.00     0.182 A 
ATOM     19  HN  UNL     1     -44.093 -47.958  11.758  1.00  0.00     0.166 HD
ENDBRANCH  13  14
ENDBRANCH  12  13
ENDBRANCH  10  12
BRANCH   1  20
HETATM   20  C   UNL     1     -44.178 -52.560  16.453  1.00  0.00     0.035 C 
HETATM   21  C   UNL     1     -42.799 -51.914  16.418  1.00  0.00     0.008 C 
ENDBRANCH   1  20
TORSDOF 4
ENDMDL
MODEL 8
REMARK VINA RESULT:      -4.7     16.859     18.842
REMARK  4 active torsions:
REMARK  status: ('A' for Active; 'I' for Inactive)
REMARK    1  A    between atoms: C_2  and  C_3 
REMARK       I    between atoms: N_6  and  C_10 
REMARK       I    between atoms: C_10  and  N_12 
REMARK    2  A    between atoms: N_12  and  C_13 
REMARK    3  A    between atoms: C_13  and  C_14 
REMARK    4  A    between atoms: C_14  and  N_15 
ROOT
HETATM    1  C   UNL     1     -25.955 -62.717  15.865  1.00  0.00     0.073 C 
HETATM    2  C   UNL     1     -24.650 -62.616  15.060  1.00  0.00     0.047 C 
HETATM    3  C   UNL     1     -26.595 -61.307  15.953  1.00  0.00     0.165 C 
HETATM    4  N   UNL     1     -27.966 -61.381  16.466  1.00  0.00    -0.329 N 
HETATM    5  C   UNL     1     -28.812 -62.286  15.685  1.00  0.00     0.153 C 
HETATM    6  C   UNL     1     -28.163 -63.668  15.564  1.00  0.00     0.189 C 
HETATM    7  O   UNL     1     -26.810 -63.590  15.082  1.00  0.00    -0.377 OA
HETATM    8  C   UNL     1     -28.441 -60.889  17.661  1.00  0.00     0.318 C 
HETATM    9  O   UNL     1     -29.564 -61.143  18.089  1.00  0.00    -0.247 OA
HETATM   10  N   UNL     1     -27.568 -60.096  18.365  1.00  0.00    -0.341 N 
HETATM   11  H   UNL     1     -26.988 -59.516  17.779  1.00  0.00     0.164 HD
ENDROOT
BRANCH  10  12
HETATM   12  C   UNL     1     -28.027 -59.486  19.607  1.00  0.00     0.144 C 
BRANCH  12  13
HETATM   13  C   UNL     1     -28.197 -57.977  19.491  1.00  0.00     0.149 C 
BRANCH  13  14
HETATM   14  N   UNL     1     -29.558 -57.598  19.175  1.00  0.00    -0.350 N 
HETATM   15  C   UNL     1     -29.948 -56.539  18.404  1.00  0.00     0.108 A 
HETATM   16  C   UNL     1     -31.323 -56.589  18.407  1.00  0.00     0.106 A 
HETATM   17  N   UNL     1     -31.771 -57.641  19.163  1.00  0.00    -0.361 N 
HETATM   18  C   UNL     1     -30.687 -58.231  19.613  1.00  0.00     0.182 A 
ATOM     19  HN  UNL     1     -32.739 -57.909  19.338  1.00  0.00     0.166 HD
ENDBRANCH  13  14
ENDBRANCH  12  13
ENDBRANCH  10  12
BRANCH   1  20
HETATM   20  C   UNL     1     -25.689 -63.354  17.253  1.00  0.00     0.035 C 
HETATM   21  C   UNL     1     -24.904 -64.658  17.246  1.00  0.00     0.008 C 
ENDBRANCH   1  20
TORSDOF 4
ENDMDL
MODEL 9
REMARK VINA RESULT:      -4.5      2.302      2.868
REMARK  4 active torsions:
REMARK  status: ('A' for Active; 'I' for Inactive)
REMARK    1  A    between atoms: C_2  and  C_3 
REMARK       I    between atoms: N_6  and  C_10 
REMARK       I    between atoms: C_10  and  N_12 
REMARK    2  A    between atoms: N_12  and  C_13 
REMARK    3  A    between atoms: C_13  and  C_14 
REMARK    4  A    between atoms: C_14  and  N_15 
ROOT
HETATM    1  C   UNL     1     -43.876 -54.286  15.772  1.00  0.00     0.073 C 
HETATM    2  C   UNL     1     -45.102 -53.762  16.536  1.00  0.00     0.047 C 
HETATM    3  C   UNL     1     -42.852 -53.131  15.623  1.00  0.00     0.165 C 
HETATM    4  N   UNL     1     -41.558 -53.631  15.150  1.00  0.00    -0.329 N 
HETATM    5  C   UNL     1     -41.020 -54.695  16.001  1.00  0.00     0.153 C 
HETATM    6  C   UNL     1     -42.045 -55.819  16.181  1.00  0.00     0.189 C 
HETATM    7  O   UNL     1     -43.320 -55.321  16.622  1.00  0.00    -0.377 OA
HETATM    8  C   UNL     1     -40.950 -53.371  13.942  1.00  0.00     0.318 C 
HETATM    9  O   UNL     1     -39.946 -53.966  13.558  1.00  0.00    -0.247 OA
HETATM   10  N   UNL     1     -41.547 -52.402  13.173  1.00  0.00    -0.341 N 
HETATM   11  H   UNL     1     -41.938 -51.645  13.713  1.00  0.00     0.164 HD
ENDROOT
BRANCH  10  12
HETATM   12  C   UNL     1     -40.920 -52.028  11.913  1.00  0.00     0.144 C 
BRANCH  12  13
HETATM   13  C   UNL     1     -40.841 -50.518  11.722  1.00  0.00     0.149 C 
BRANCH  13  14
HETATM   14  N   UNL     1     -39.627 -49.956  12.272  1.00  0.00    -0.350 N 
HETATM   15  C   UNL     1     -39.527 -49.173  13.388  1.00  0.00     0.108 A 
HETATM   16  C   UNL     1     -38.186 -48.882  13.495  1.00  0.00     0.106 A 
HETATM   17  N   UNL     1     -37.479 -49.459  12.473  1.00  0.00    -0.361 N 
HETATM   18  C   UNL     1     -38.371 -50.098  11.751  1.00  0.00     0.182 A 
ATOM     19  HN  UNL     1     -36.474 -49.404  12.308  1.00  0.00     0.166 HD
ENDBRANCH  13  14
ENDBRANCH  12  13
ENDBRANCH  10  12
BRANCH   1  20
HETATM   20  C   UNL     1     -44.305 -54.899  14.414  1.00  0.00     0.035 C 
HETATM   21  C   UNL     1     -45.748 -54.648  13.998  1.00  0.00     0.008 C 
ENDBRANCH   1  20
TORSDOF 4
ENDMDL
