MODEL 1
REMARK VINA RESULT:      -5.4      0.000      0.000
REMARK  3 active torsions:
REMARK  status: ('A' for Active; 'I' for Inactive)
REMARK    1  A    between atoms: C_2  and  N_3 
REMARK    2  A    between atoms: C_5  and  N_6 
REMARK       I    between atoms: N_6  and  C_7 
REMARK       I    between atoms: C_7  and  N_9 
REMARK    3  A    between atoms: N_9  and  C_10 
ROOT
HETATM    1  N   UNL     1     -43.425 -48.958  11.837  1.00  0.00    -0.306 N 
HETATM    2  C   UNL     1     -43.274 -49.699  12.989  1.00  0.00     0.321 C 
HETATM    3  O   UNL     1     -42.389 -49.552  13.825  1.00  0.00    -0.247 OA
HETATM    4  N   UNL     1     -44.230 -50.687  13.114  1.00  0.00    -0.338 N 
HETATM    5  H   UNL     1     -44.284 -49.031  11.317  1.00  0.00     0.171 HD
HETATM    6  H   UNL     1     -45.066 -50.616  12.556  1.00  0.00     0.164 HD
ENDROOT
BRANCH   1   7
HETATM    7  C   UNL     1     -42.498 -48.023  11.399  1.00  0.00     0.070 A 
HETATM    8  C   UNL     1     -42.544 -46.659  11.557  1.00  0.00     0.141 A 
HETATM    9  N   UNL     1     -41.412 -46.160  10.988  1.00  0.00    -0.302 N 
HETATM   10  N   UNL     1     -40.615 -47.110  10.463  1.00  0.00    -0.308 N 
HETATM   11  C   UNL     1     -41.278 -48.245  10.719  1.00  0.00     0.138 A 
ATOM     12  HN  UNL     1     -39.721 -46.993   9.985  1.00  0.00     0.186 HD
BRANCH   9  13
HETATM   13  C   UNL     1     -41.033 -44.763  10.938  1.00  0.00     0.143 C 
HETATM   14  C   UNL     1     -39.686 -44.563  10.266  1.00  0.00     0.028 C 
ENDBRANCH   9  13
ENDBRANCH   1   7
BRANCH   4  15
HETATM   15  C   UNL     1     -44.271 -51.512  14.320  1.00  0.00     0.086 C 
HETATM   16  C   UNL     1     -44.372 -53.004  13.988  1.00  0.00     0.025 C 
HETATM   17  C   UNL     1     -45.747 -53.410  13.464  1.00  0.00     0.002 C 
HETATM   18  C   UNL     1     -46.869 -52.953  14.392  1.00  0.00     0.000 C 
HETATM   19  C   UNL     1     -46.785 -51.461  14.700  1.00  0.00     0.002 C 
HETATM   20  C   UNL     1     -45.412 -51.073  15.248  1.00  0.00     0.025 C 
ENDBRANCH   4  15
TORSDOF 3
ENDMDL
MODEL 2
REMARK VINA RESULT:      -5.1      2.585      3.471
REMARK  3 active torsions:
REMARK  status: ('A' for Active; 'I' for Inactive)
REMARK    1  A    between atoms: C_2  and  N_3 
REMARK    2  A    between atoms: C_5  and  N_6 
REMARK       I    between atoms: N_6  and  C_7 
REMARK       I    between atoms: C_7  and  N_9 
REMARK    3  A    between atoms: N_9  and  C_10 
ROOT
HETATM    1  N   UNL     1     -41.487 -49.659  11.004  1.00  0.00    -0.306 N 
HETATM    2  C   UNL     1     -41.899 -50.171  12.215  1.00  0.00     0.321 C 
HETATM    3  O   UNL     1     -42.513 -49.558  13.082  1.00  0.00    -0.247 OA
HETATM    4  N   UNL     1     -41.517 -51.486  12.393  1.00  0.00    -0.338 N 
HETATM    5  H   UNL     1     -41.159 -50.290  10.292  1.00  0.00     0.171 HD
HETATM    6  H   UNL     1     -41.246 -52.018  11.582  1.00  0.00     0.164 HD
ENDROOT
BRANCH   1   7
HETATM    7  C   UNL     1     -41.597 -48.319  10.660  1.00  0.00     0.070 A 
HETATM    8  C   UNL     1     -40.792 -47.281  11.065  1.00  0.00     0.141 A 
HETATM    9  N   UNL     1     -41.267 -46.159  10.458  1.00  0.00    -0.302 N 
HETATM   10  N   UNL     1     -42.337 -46.387   9.673  1.00  0.00    -0.308 N 
HETATM   11  C   UNL     1     -42.533 -47.706   9.796  1.00  0.00     0.138 A 
ATOM     12  HN  UNL     1     -42.871 -45.716   9.119  1.00  0.00     0.186 HD
BRANCH   9  13
HETATM   13  C   UNL     1     -40.710 -44.827  10.584  1.00  0.00     0.143 C 
HETATM   14  C   UNL     1     -39.371 -44.702   9.877  1.00  0.00     0.028 C 
ENDBRANCH   9  13
ENDBRANCH   1   7
BRANCH   4  15
HETATM   15  C   UNL     1     -41.947 -52.213  13.586  1.00  0.00     0.086 C 
HETATM   16  C   UNL     1     -40.943 -52.069  14.735  1.00  0.00     0.025 C 
HETATM   17  C   UNL     1     -39.659 -52.862  14.512  1.00  0.00     0.002 C 
HETATM   18  C   UNL     1     -39.943 -54.325  14.180  1.00  0.00     0.000 C 
HETATM   19  C   UNL     1     -40.920 -54.469  13.017  1.00  0.00     0.002 C 
HETATM   20  C   UNL     1     -42.211 -53.691  13.265  1.00  0.00     0.025 C 
ENDBRANCH   4  15
TORSDOF 3
ENDMDL
MODEL 3
REMARK VINA RESULT:      -5.0      3.240      3.824
REMARK  3 active torsions:
REMARK  status: ('A' for Active; 'I' for Inactive)
REMARK    1  A    between atoms: C_2  and  N_3 
REMARK    2  A    between atoms: C_5  and  N_6 
REMARK       I    between atoms: N_6  and  C_7 
REMARK       I    between atoms: C_7  and  N_9 
REMARK    3  A    between atoms: N_9  and  C_10 
ROOT
HETATM    1  N   UNL     1     -41.848 -51.446  13.919  1.00  0.00    -0.306 N 
HETATM    2  C   UNL     1     -42.936 -52.187  13.507  1.00  0.00     0.321 C 
HETATM    3  O   UNL     1     -43.075 -52.704  12.404  1.00  0.00    -0.247 OA
HETATM    4  N   UNL     1     -43.917 -52.273  14.475  1.00  0.00    -0.338 N 
HETATM    5  H   UNL     1     -41.749 -51.226  14.896  1.00  0.00     0.171 HD
HETATM    6  H   UNL     1     -43.667 -52.059  15.428  1.00  0.00     0.164 HD
ENDROOT
BRANCH   1   7
HETATM    7  C   UNL     1     -40.813 -51.071  13.076  1.00  0.00     0.070 A 
HETATM    8  C   UNL     1     -39.464 -51.247  13.275  1.00  0.00     0.141 A 
HETATM    9  N   UNL     1     -38.837 -50.746  12.176  1.00  0.00    -0.302 N 
HETATM   10  N   UNL     1     -39.686 -50.248  11.257  1.00  0.00    -0.308 N 
HETATM   11  C   UNL     1     -40.890 -50.452  11.807  1.00  0.00     0.138 A 
ATOM     12  HN  UNL     1     -39.466 -49.819  10.358  1.00  0.00     0.186 HD
BRANCH   9  13
HETATM   13  C   UNL     1     -37.406 -50.737  11.946  1.00  0.00     0.143 C 
HETATM   14  C   UNL     1     -37.043 -50.015  10.661  1.00  0.00     0.028 C 
ENDBRANCH   9  13
ENDBRANCH   1   7
BRANCH   4  15
HETATM   15  C   UNL     1     -45.103 -53.095  14.238  1.00  0.00     0.086 C 
HETATM   16  C   UNL     1     -46.239 -52.286  13.603  1.00  0.00     0.025 C 
HETATM   17  C   UNL     1     -46.902 -51.317  14.578  1.00  0.00     0.002 C 
HETATM   18  C   UNL     1     -47.343 -52.013  15.863  1.00  0.00     0.000 C 
HETATM   19  C   UNL     1     -46.203 -52.794  16.510  1.00  0.00     0.002 C 
HETATM   20  C   UNL     1     -45.566 -53.779  15.531  1.00  0.00     0.025 C 
ENDBRANCH   4  15
TORSDOF 3
ENDMDL
MODEL 4
REMARK VINA RESULT:      -4.9      5.729      7.642
REMARK  3 active torsions:
REMARK  status: ('A' for Active; 'I' for Inactive)
REMARK    1  A    between atoms: C_2  and  N_3 
REMARK    2  A    between atoms: C_5  and  N_6 
REMARK       I    between atoms: N_6  and  C_7 
REMARK       I    between atoms: C_7  and  N_9 
REMARK    3  A    between atoms: N_9  and  C_10 
ROOT
HETATM    1  N   UNL     1     -41.684 -53.638  15.573  1.00  0.00    -0.306 N 
HETATM    2  C   UNL     1     -42.916 -54.213  15.344  1.00  0.00     0.321 C 
HETATM    3  O   UNL     1     -43.157 -55.415  15.346  1.00  0.00    -0.247 OA
HETATM    4  N   UNL     1     -43.894 -53.279  15.068  1.00  0.00    -0.338 N 
HETATM    5  H   UNL     1     -41.629 -52.647  15.735  1.00  0.00     0.171 HD
HETATM    6  H   UNL     1     -43.721 -52.318  15.320  1.00  0.00     0.164 HD
ENDROOT
BRANCH   1   7
HETATM    7  C   UNL     1     -40.510 -54.366  15.703  1.00  0.00     0.070 A 
HETATM    8  C   UNL     1     -40.057 -55.036  16.814  1.00  0.00     0.141 A 
HETATM    9  N   UNL     1     -38.879 -55.622  16.465  1.00  0.00    -0.302 N 
HETATM   10  N   UNL     1     -38.520 -55.383  15.189  1.00  0.00    -0.308 N 
HETATM   11  C   UNL     1     -39.519 -54.621  14.726  1.00  0.00     0.138 A 
ATOM     12  HN  UNL     1     -37.688 -55.705  14.695  1.00  0.00     0.186 HD
BRANCH   9  13
HETATM   13  C   UNL     1     -38.055 -56.447  17.325  1.00  0.00     0.143 C 
HETATM   14  C   UNL     1     -38.848 -57.579  17.955  1.00  0.00     0.028 C 
ENDBRANCH   9  13
ENDBRANCH   1   7
BRANCH   4  15
HETATM   15  C   UNL     1     -45.280 -53.708  14.887  1.00  0.00     0.086 C 
HETATM   16  C   UNL     1     -45.633 -53.884  13.406  1.00  0.00     0.025 C 
HETATM   17  C   UNL     1     -45.773 -52.558  12.663  1.00  0.00     0.002 C 
HETATM   18  C   UNL     1     -46.731 -51.605  13.372  1.00  0.00     0.000 C 
HETATM   19  C   UNL     1     -46.362 -51.408  14.839  1.00  0.00     0.002 C 
HETATM   20  C   UNL     1     -46.251 -52.742  15.577  1.00  0.00     0.025 C 
ENDBRANCH   4  15
TORSDOF 3
ENDMDL
MODEL 5
REMARK VINA RESULT:      -4.7      3.111      3.506
REMARK  3 active torsions:
REMARK  status: ('A' for Active; 'I' for Inactive)
REMARK    1  A    between atoms: C_2  and  N_3 
REMARK    2  A    between atoms: C_5  and  N_6 
REMARK       I    between atoms: N_6  and  C_7 
REMARK       I    between atoms: C_7  and  N_9 
REMARK    3  A    between atoms: N_9  and  C_10 
ROOT
HETATM    1  N   UNL     1     -41.086 -49.286  12.780  1.00  0.00    -0.306 N 
HETATM    2  C   UNL     1     -40.369 -50.459  12.675  1.00  0.00     0.321 C 
HETATM    3  O   UNL     1     -39.491 -50.691  11.851  1.00  0.00    -0.247 OA
HETATM    4  N   UNL     1     -40.762 -51.406  13.599  1.00  0.00    -0.338 N 
HETATM    5  H   UNL     1     -41.646 -49.128  13.601  1.00  0.00     0.171 HD
HETATM    6  H   UNL     1     -41.291 -51.101  14.400  1.00  0.00     0.164 HD
ENDROOT
BRANCH   1   7
HETATM    7  C   UNL     1     -40.999 -48.250  11.863  1.00  0.00     0.070 A 
HETATM    8  C   UNL     1     -40.162 -47.161  11.905  1.00  0.00     0.141 A 
HETATM    9  N   UNL     1     -40.414 -46.428  10.786  1.00  0.00    -0.302 N 
HETATM   10  N   UNL     1     -41.369 -46.964  10.001  1.00  0.00    -0.308 N 
HETATM   11  C   UNL     1     -41.720 -48.076  10.658  1.00  0.00     0.138 A 
ATOM     12  HN  UNL     1     -41.736 -46.608   9.118  1.00  0.00     0.186 HD
BRANCH   9  13
HETATM   13  C   UNL     1     -39.746 -45.199  10.407  1.00  0.00     0.143 C 
HETATM   14  C   UNL     1     -40.054 -44.066  11.371  1.00  0.00     0.028 C 
ENDBRANCH   9  13
ENDBRANCH   1   7
BRANCH   4  15
HETATM   15  C   UNL     1     -40.047 -52.678  13.686  1.00  0.00     0.086 C 
HETATM   16  C   UNL     1     -40.791 -53.802  12.958  1.00  0.00     0.025 C 
HETATM   17  C   UNL     1     -42.045 -54.267  13.695  1.00  0.00     0.002 C 
HETATM   18  C   UNL     1     -41.751 -54.623  15.150  1.00  0.00     0.000 C 
HETATM   19  C   UNL     1     -41.036 -53.492  15.883  1.00  0.00     0.002 C 
HETATM   20  C   UNL     1     -39.769 -53.056  15.148  1.00  0.00     0.025 C 
ENDBRANCH   4  15
TORSDOF 3
ENDMDL
MODEL 6
REMARK VINA RESULT:      -4.7      3.555      4.012
REMARK  3 active torsions:
REMARK  status: ('A' for Active; 'I' for Inactive)
REMARK    1  A    between atoms: C_2  and  N_3 
REMARK    2  A    between atoms: C_5  and  N_6 
REMARK       I    between atoms: N_6  and  C_7 
REMARK       I    between atoms: C_7  and  N_9 
REMARK    3  A    between atoms: N_9  and  C_10 
ROOT
HETATM    1  N   UNL     1     -41.399 -51.667  14.347  1.00  0.00    -0.306 N 
HETATM    2  C   UNL     1     -42.368 -51.883  13.390  1.00  0.00     0.321 C 
HETATM    3  O   UNL     1     -42.219 -51.758  12.180  1.00  0.00    -0.247 OA
HETATM    4  N   UNL     1     -43.585 -52.235  13.937  1.00  0.00    -0.338 N 
HETATM    5  H   UNL     1     -41.566 -51.975  15.291  1.00  0.00     0.171 HD
HETATM    6  H   UNL     1     -43.603 -52.567  14.889  1.00  0.00     0.164 HD
ENDROOT
BRANCH   1   7
HETATM    7  C   UNL     1     -40.147 -51.141  14.066  1.00  0.00     0.070 A 
HETATM    8  C   UNL     1     -39.775 -49.818  14.063  1.00  0.00     0.141 A 
HETATM    9  N   UNL     1     -38.449 -49.785  13.755  1.00  0.00    -0.302 N 
HETATM   10  N   UNL     1     -37.917 -51.005  13.553  1.00  0.00    -0.308 N 
HETATM   11  C   UNL     1     -38.953 -51.829  13.748  1.00  0.00     0.138 A 
ATOM     12  HN  UNL     1     -36.955 -51.243  13.310  1.00  0.00     0.186 HD
BRANCH   9  13
HETATM   13  C   UNL     1     -37.631 -48.592  13.657  1.00  0.00     0.143 C 
HETATM   14  C   UNL     1     -37.545 -47.854  14.981  1.00  0.00     0.028 C 
ENDBRANCH   9  13
ENDBRANCH   1   7
BRANCH   4  15
HETATM   15  C   UNL     1     -44.702 -52.586  13.062  1.00  0.00     0.086 C 
HETATM   16  C   UNL     1     -45.830 -51.551  13.133  1.00  0.00     0.025 C 
HETATM   17  C   UNL     1     -46.618 -51.613  14.439  1.00  0.00     0.002 C 
HETATM   18  C   UNL     1     -47.116 -53.025  14.738  1.00  0.00     0.000 C 
HETATM   19  C   UNL     1     -45.988 -54.051  14.695  1.00  0.00     0.002 C 
HETATM   20  C   UNL     1     -45.225 -53.995  13.373  1.00  0.00     0.025 C 
ENDBRANCH   4  15
TORSDOF 3
ENDMDL
MODEL 7
REMARK VINA RESULT:      -4.5      4.761      7.819
REMARK  3 active torsions:
REMARK  status: ('A' for Active; 'I' for Inactive)
REMARK    1  A    between atoms: C_2  and  N_3 
REMARK    2  A    between atoms: C_5  and  N_6 
REMARK       I    between atoms: N_6  and  C_7 
REMARK       I    between atoms: C_7  and  N_9 
REMARK    3  A    between atoms: N_9  and  C_10 
ROOT
HETATM    1  N   UNL     1     -42.784 -45.580  11.508  1.00  0.00    -0.306 N 
HETATM    2  C   UNL     1     -42.342 -44.330  11.132  1.00  0.00     0.321 C 
HETATM    3  O   UNL     1     -41.444 -44.099  10.329  1.00  0.00    -0.247 OA
HETATM    4  N   UNL     1     -43.003 -43.312  11.790  1.00  0.00    -0.338 N 
HETATM    5  H   UNL     1     -43.644 -45.659  12.025  1.00  0.00     0.171 HD
HETATM    6  H   UNL     1     -43.881 -43.525  12.237  1.00  0.00     0.164 HD
ENDROOT
BRANCH   1   7
HETATM    7  C   UNL     1     -42.167 -46.761  11.121  1.00  0.00     0.070 A 
HETATM    8  C   UNL     1     -41.206 -47.467  11.803  1.00  0.00     0.141 A 
HETATM    9  N   UNL     1     -40.920 -48.565  11.052  1.00  0.00    -0.302 N 
HETATM   10  N   UNL     1     -41.633 -48.634   9.911  1.00  0.00    -0.308 N 
HETATM   11  C   UNL     1     -42.395 -47.534   9.959  1.00  0.00     0.138 A 
ATOM     12  HN  UNL     1     -41.600 -49.350   9.186  1.00  0.00     0.186 HD
BRANCH   9  13
HETATM   13  C   UNL     1     -39.970 -49.605  11.396  1.00  0.00     0.143 C 
HETATM   14  C   UNL     1     -38.739 -49.043  12.086  1.00  0.00     0.028 C 
ENDBRANCH   9  13
ENDBRANCH   1   7
BRANCH   4  15
HETATM   15  C   UNL     1     -42.720 -41.920  11.448  1.00  0.00     0.086 C 
HETATM   16  C   UNL     1     -41.599 -41.336  12.314  1.00  0.00     0.025 C 
HETATM   17  C   UNL     1     -42.032 -41.068  13.753  1.00  0.00     0.002 C 
HETATM   18  C   UNL     1     -43.304 -40.225  13.818  1.00  0.00     0.000 C 
HETATM   19  C   UNL     1     -44.429 -40.823  12.978  1.00  0.00     0.002 C 
HETATM   20  C   UNL     1     -43.989 -41.062  11.534  1.00  0.00     0.025 C 
ENDBRANCH   4  15
TORSDOF 3
ENDMDL
MODEL 8
REMARK VINA RESULT:      -4.4     15.396     17.095
REMARK  3 active torsions:
REMARK  status: ('A' for Active; 'I' for Inactive)
REMARK    1  A    between atoms: C_2  and  N_3 
REMARK    2  A    between atoms: C_5  and  N_6 
REMARK       I    between atoms: N_6  and  C_7 
REMARK       I    between atoms: C_7  and  N_9 
REMARK    3  A    between atoms: N_9  and  C_10 
ROOT
HETATM    1  N   UNL     1     -51.732 -51.776  -1.221  1.00  0.00    -0.306 N 
HETATM    2  C   UNL     1     -50.617 -51.484  -0.464  1.00  0.00     0.321 C 
HETATM    3  O   UNL     1     -49.816 -52.302  -0.022  1.00  0.00    -0.247 OA
HETATM    4  N   UNL     1     -50.490 -50.135  -0.204  1.00  0.00    -0.338 N 
HETATM    5  H   UNL     1     -52.215 -51.027  -1.687  1.00  0.00     0.171 HD
HETATM    6  H   UNL     1     -51.007 -49.488  -0.778  1.00  0.00     0.164 HD
ENDROOT
BRANCH   1   7
HETATM    7  C   UNL     1     -52.173 -53.067  -1.470  1.00  0.00     0.070 A 
HETATM    8  C   UNL     1     -51.927 -53.837  -2.581  1.00  0.00     0.141 A 
HETATM    9  N   UNL     1     -52.539 -55.035  -2.372  1.00  0.00    -0.302 N 
HETATM   10  N   UNL     1     -53.177 -55.109  -1.188  1.00  0.00    -0.308 N 
HETATM   11  C   UNL     1     -52.948 -53.909  -0.640  1.00  0.00     0.138 A 
ATOM     12  HN  UNL     1     -53.708 -55.891  -0.803  1.00  0.00     0.186 HD
BRANCH   9  13
HETATM   13  C   UNL     1     -52.527 -56.164  -3.280  1.00  0.00     0.143 C 
HETATM   14  C   UNL     1     -53.532 -57.228  -2.877  1.00  0.00     0.028 C 
ENDBRANCH   9  13
ENDBRANCH   1   7
BRANCH   4  15
HETATM   15  C   UNL     1     -49.316 -49.639   0.512  1.00  0.00     0.086 C 
HETATM   16  C   UNL     1     -49.701 -48.916   1.807  1.00  0.00     0.025 C 
HETATM   17  C   UNL     1     -50.336 -47.549   1.565  1.00  0.00     0.002 C 
HETATM   18  C   UNL     1     -49.477 -46.675   0.655  1.00  0.00     0.000 C 
HETATM   19  C   UNL     1     -49.118 -47.385  -0.648  1.00  0.00     0.002 C 
HETATM   20  C   UNL     1     -48.460 -48.739  -0.389  1.00  0.00     0.025 C 
ENDBRANCH   4  15
TORSDOF 3
ENDMDL
MODEL 9
REMARK VINA RESULT:      -4.4     14.510     15.046
REMARK  3 active torsions:
REMARK  status: ('A' for Active; 'I' for Inactive)
REMARK    1  A    between atoms: C_2  and  N_3 
REMARK    2  A    between atoms: C_5  and  N_6 
REMARK       I    between atoms: N_6  and  C_7 
REMARK       I    between atoms: C_7  and  N_9 
REMARK    3  A    between atoms: N_9  and  C_10 
ROOT
HETATM    1  N   UNL     1     -47.751 -49.583  -2.271  1.00  0.00    -0.306 N 
HETATM    2  C   UNL     1     -47.810 -50.643  -1.392  1.00  0.00     0.321 C 
HETATM    3  O   UNL     1     -47.228 -50.715  -0.315  1.00  0.00    -0.247 OA
HETATM    4  N   UNL     1     -48.589 -51.681  -1.863  1.00  0.00    -0.338 N 
HETATM    5  H   UNL     1     -48.407 -49.542  -3.033  1.00  0.00     0.171 HD
HETATM    6  H   UNL     1     -49.237 -51.489  -2.612  1.00  0.00     0.164 HD
ENDROOT
BRANCH   1   7
HETATM    7  C   UNL     1     -46.902 -48.498  -2.107  1.00  0.00     0.070 A 
HETATM    8  C   UNL     1     -45.573 -48.415  -2.444  1.00  0.00     0.141 A 
HETATM    9  N   UNL     1     -45.164 -47.157  -2.123  1.00  0.00    -0.302 N 
HETATM   10  N   UNL     1     -46.141 -46.397  -1.593  1.00  0.00    -0.308 N 
HETATM   11  C   UNL     1     -47.200 -47.216  -1.588  1.00  0.00     0.138 A 
ATOM     12  HN  UNL     1     -46.088 -45.430  -1.271  1.00  0.00     0.186 HD
BRANCH   9  13
HETATM   13  C   UNL     1     -43.833 -46.620  -2.323  1.00  0.00     0.143 C 
HETATM   14  C   UNL     1     -43.075 -46.479  -1.015  1.00  0.00     0.028 C 
ENDBRANCH   9  13
ENDBRANCH   1   7
BRANCH   4  15
HETATM   15  C   UNL     1     -48.833 -52.850  -1.020  1.00  0.00     0.086 C 
HETATM   16  C   UNL     1     -48.760 -54.155  -1.820  1.00  0.00     0.025 C 
HETATM   17  C   UNL     1     -49.960 -54.362  -2.739  1.00  0.00     0.002 C 
HETATM   18  C   UNL     1     -51.283 -54.222  -1.990  1.00  0.00     0.000 C 
HETATM   19  C   UNL     1     -51.367 -52.909  -1.217  1.00  0.00     0.002 C 
HETATM   20  C   UNL     1     -50.172 -52.728  -0.282  1.00  0.00     0.025 C 
ENDBRANCH   4  15
TORSDOF 3
ENDMDL
