MODEL 1
REMARK VINA RESULT:      -5.9      0.000      0.000
REMARK  5 active torsions:
REMARK  status: ('A' for Active; 'I' for Inactive)
REMARK    1  A    between atoms: C_2  and  N_3 
REMARK    2  A    between atoms: C_2  and  C_12 
REMARK    3  A    between atoms: N_3  and  C_4 
REMARK    4  A    between atoms: C_4  and  C_5 
REMARK    5  A    between atoms: C_5  and  N_6 
REMARK       I    between atoms: C_12  and  N_14 
ROOT
HETATM    1  C   UNL     1     -41.618 -54.215  13.412  1.00  0.00     0.053 C 
HETATM    2  C   UNL     1     -42.582 -53.071  13.092  1.00  0.00     0.307 C 
ENDROOT
BRANCH   2   3
HETATM    3  N   UNL     1     -42.320 -52.526  11.737  1.00  0.00     0.098 N 
HETATM    4  H   UNL     1     -43.136 -51.970  11.462  1.00  0.00     0.317 HD
BRANCH   3   5
HETATM    5  C   UNL     1     -41.100 -51.711  11.700  1.00  0.00     0.292 C 
BRANCH   5   6
HETATM    6  C   UNL     1     -41.250 -50.432  12.526  1.00  0.00     0.178 C 
BRANCH   6   7
HETATM    7  N   UNL     1     -41.831 -49.363  11.736  1.00  0.00    -0.302 N 
HETATM    8  C   UNL     1     -42.946 -48.633  12.039  1.00  0.00     0.111 A 
HETATM    9  C   UNL     1     -43.121 -47.756  10.995  1.00  0.00     0.037 A 
HETATM   10  C   UNL     1     -42.063 -48.036  10.112  1.00  0.00     0.108 A 
HETATM   11  N   UNL     1     -41.271 -49.012  10.562  1.00  0.00    -0.310 N 
ATOM     12  HN  UNL     1     -40.438 -49.402  10.121  1.00  0.00     0.186 HD
ENDBRANCH   6   7
ENDBRANCH   5   6
ENDBRANCH   3   5
ENDBRANCH   2   3
BRANCH   2  13
HETATM   13  C   UNL     1     -44.047 -53.585  13.191  1.00  0.00     0.252 C 
HETATM   14  O   UNL     1     -44.526 -54.335  12.338  1.00  0.00    -0.271 OA
HETATM   15  N   UNL     1     -44.790 -53.165  14.298  1.00  0.00    -0.350 N 
HETATM   16  C   UNL     1     -46.080 -53.793  14.581  1.00  0.00     0.126 C 
HETATM   17  C   UNL     1     -44.418 -52.067  15.194  1.00  0.00     0.126 C 
HETATM   18  C   UNL     1     -47.203 -52.759  14.649  1.00  0.00     0.024 C 
HETATM   19  C   UNL     1     -46.867 -51.575  15.575  1.00  0.00    -0.015 C 
HETATM   20  C   UNL     1     -46.899 -51.971  17.054  1.00  0.00     0.010 C 
HETATM   21  C   UNL     1     -45.501 -50.995  15.184  1.00  0.00     0.024 C 
ENDBRANCH   2  13
TORSDOF 5
ENDMDL
MODEL 2
REMARK VINA RESULT:      -5.8      3.331      4.647
REMARK  5 active torsions:
REMARK  status: ('A' for Active; 'I' for Inactive)
REMARK    1  A    between atoms: C_2  and  N_3 
REMARK    2  A    between atoms: C_2  and  C_12 
REMARK    3  A    between atoms: N_3  and  C_4 
REMARK    4  A    between atoms: C_4  and  C_5 
REMARK    5  A    between atoms: C_5  and  N_6 
REMARK       I    between atoms: C_12  and  N_14 
ROOT
HETATM    1  C   UNL     1     -38.449 -48.787  13.581  1.00  0.00     0.053 C 
HETATM    2  C   UNL     1     -39.545 -49.547  12.832  1.00  0.00     0.307 C 
ENDROOT
BRANCH   2   3
HETATM    3  N   UNL     1     -39.626 -49.100  11.420  1.00  0.00     0.098 N 
HETATM    4  H   UNL     1     -39.201 -49.827  10.838  1.00  0.00     0.317 HD
BRANCH   3   5
HETATM    5  C   UNL     1     -41.010 -48.844  11.004  1.00  0.00     0.292 C 
BRANCH   5   6
HETATM    6  C   UNL     1     -41.278 -47.349  10.819  1.00  0.00     0.178 C 
BRANCH   6   7
HETATM    7  N   UNL     1     -42.358 -47.123   9.877  1.00  0.00    -0.302 N 
HETATM    8  C   UNL     1     -43.121 -45.996   9.761  1.00  0.00     0.111 A 
HETATM    9  C   UNL     1     -44.022 -46.249   8.754  1.00  0.00     0.037 A 
HETATM   10  C   UNL     1     -43.724 -47.555   8.329  1.00  0.00     0.108 A 
HETATM   11  N   UNL     1     -42.706 -48.091   9.007  1.00  0.00    -0.310 N 
ATOM     12  HN  UNL     1     -42.291 -49.015   8.893  1.00  0.00     0.186 HD
ENDBRANCH   6   7
ENDBRANCH   5   6
ENDBRANCH   3   5
ENDBRANCH   2   3
BRANCH   2  13
HETATM   13  C   UNL     1     -39.254 -51.074  12.897  1.00  0.00     0.252 C 
HETATM   14  O   UNL     1     -38.171 -51.539  12.534  1.00  0.00    -0.271 OA
HETATM   15  N   UNL     1     -40.273 -51.891  13.394  1.00  0.00    -0.350 N 
HETATM   16  C   UNL     1     -39.987 -53.290  13.706  1.00  0.00     0.126 C 
HETATM   17  C   UNL     1     -41.669 -51.482  13.572  1.00  0.00     0.126 C 
HETATM   18  C   UNL     1     -40.919 -54.234  12.946  1.00  0.00     0.024 C 
HETATM   19  C   UNL     1     -42.404 -53.851  13.094  1.00  0.00    -0.015 C 
HETATM   20  C   UNL     1     -42.944 -54.155  14.494  1.00  0.00     0.010 C 
HETATM   21  C   UNL     1     -42.584 -52.370  12.738  1.00  0.00     0.024 C 
ENDBRANCH   2  13
TORSDOF 5
ENDMDL
MODEL 3
REMARK VINA RESULT:      -5.8      4.772      6.504
REMARK  5 active torsions:
REMARK  status: ('A' for Active; 'I' for Inactive)
REMARK    1  A    between atoms: C_2  and  N_3 
REMARK    2  A    between atoms: C_2  and  C_12 
REMARK    3  A    between atoms: N_3  and  C_4 
REMARK    4  A    between atoms: C_4  and  C_5 
REMARK    5  A    between atoms: C_5  and  N_6 
REMARK       I    between atoms: C_12  and  N_14 
ROOT
HETATM    1  C   UNL     1     -42.772 -47.533  12.009  1.00  0.00     0.053 C 
HETATM    2  C   UNL     1     -41.824 -48.466  11.254  1.00  0.00     0.307 C 
ENDROOT
BRANCH   2   3
HETATM    3  N   UNL     1     -41.854 -48.181   9.798  1.00  0.00     0.098 N 
HETATM    4  H   UNL     1     -42.180 -49.028   9.322  1.00  0.00     0.317 HD
BRANCH   3   5
HETATM    5  C   UNL     1     -42.721 -47.040   9.481  1.00  0.00     0.292 C 
BRANCH   5   6
HETATM    6  C   UNL     1     -43.434 -47.229   8.140  1.00  0.00     0.178 C 
BRANCH   6   7
HETATM    7  N   UNL     1     -44.770 -47.762   8.327  1.00  0.00    -0.302 N 
HETATM    8  C   UNL     1     -45.604 -47.531   9.384  1.00  0.00     0.111 A 
HETATM    9  C   UNL     1     -46.744 -48.257   9.135  1.00  0.00     0.037 A 
HETATM   10  C   UNL     1     -46.500 -48.895   7.906  1.00  0.00     0.108 A 
HETATM   11  N   UNL     1     -45.299 -48.593   7.406  1.00  0.00    -0.310 N 
ATOM     12  HN  UNL     1     -44.880 -48.914   6.534  1.00  0.00     0.186 HD
ENDBRANCH   6   7
ENDBRANCH   5   6
ENDBRANCH   3   5
ENDBRANCH   2   3
BRANCH   2  13
HETATM   13  C   UNL     1     -40.379 -48.294  11.806  1.00  0.00     0.252 C 
HETATM   14  O   UNL     1     -39.633 -47.405  11.391  1.00  0.00    -0.271 OA
HETATM   15  N   UNL     1     -39.972 -49.189  12.800  1.00  0.00    -0.350 N 
HETATM   16  C   UNL     1     -38.730 -48.940  13.528  1.00  0.00     0.126 C 
HETATM   17  C   UNL     1     -40.663 -50.434  13.146  1.00  0.00     0.126 C 
HETATM   18  C   UNL     1     -37.772 -50.126  13.421  1.00  0.00     0.024 C 
HETATM   19  C   UNL     1     -38.443 -51.467  13.771  1.00  0.00    -0.015 C 
HETATM   20  C   UNL     1     -38.726 -51.600  15.269  1.00  0.00     0.010 C 
HETATM   21  C   UNL     1     -39.729 -51.622  12.947  1.00  0.00     0.024 C 
ENDBRANCH   2  13
TORSDOF 5
ENDMDL
MODEL 4
REMARK VINA RESULT:      -5.8      1.705      2.465
REMARK  5 active torsions:
REMARK  status: ('A' for Active; 'I' for Inactive)
REMARK    1  A    between atoms: C_2  and  N_3 
REMARK    2  A    between atoms: C_2  and  C_12 
REMARK    3  A    between atoms: N_3  and  C_4 
REMARK    4  A    between atoms: C_4  and  C_5 
REMARK    5  A    between atoms: C_5  and  N_6 
REMARK       I    between atoms: C_12  and  N_14 
ROOT
HETATM    1  C   UNL     1     -41.337 -53.669  12.797  1.00  0.00     0.053 C 
HETATM    2  C   UNL     1     -42.413 -52.621  13.089  1.00  0.00     0.307 C 
ENDROOT
BRANCH   2   3
HETATM    3  N   UNL     1     -42.429 -51.576  12.035  1.00  0.00     0.098 N 
HETATM    4  H   UNL     1     -43.408 -51.374  11.813  1.00  0.00     0.317 HD
BRANCH   3   5
HETATM    5  C   UNL     1     -41.731 -50.358  12.460  1.00  0.00     0.292 C 
BRANCH   5   6
HETATM    6  C   UNL     1     -40.793 -49.834  11.370  1.00  0.00     0.178 C 
BRANCH   6   7
HETATM    7  N   UNL     1     -39.409 -50.144  11.677  1.00  0.00    -0.302 N 
HETATM    8  C   UNL     1     -38.931 -50.709  12.824  1.00  0.00     0.111 A 
HETATM    9  C   UNL     1     -37.567 -50.790  12.668  1.00  0.00     0.037 A 
HETATM   10  C   UNL     1     -37.321 -50.245  11.396  1.00  0.00     0.108 A 
HETATM   11  N   UNL     1     -38.441 -49.853  10.784  1.00  0.00    -0.310 N 
ATOM     12  HN  UNL     1     -38.542 -49.433   9.861  1.00  0.00     0.186 HD
ENDBRANCH   6   7
ENDBRANCH   5   6
ENDBRANCH   3   5
ENDBRANCH   2   3
BRANCH   2  13
HETATM   13  C   UNL     1     -43.802 -53.316  13.179  1.00  0.00     0.252 C 
HETATM   14  O   UNL     1     -44.184 -54.107  12.314  1.00  0.00    -0.271 OA
HETATM   15  N   UNL     1     -44.591 -53.009  14.291  1.00  0.00    -0.350 N 
HETATM   16  C   UNL     1     -45.791 -53.798  14.563  1.00  0.00     0.126 C 
HETATM   17  C   UNL     1     -44.359 -51.886  15.204  1.00  0.00     0.126 C 
HETATM   18  C   UNL     1     -47.035 -52.913  14.645  1.00  0.00     0.024 C 
HETATM   19  C   UNL     1     -46.850 -51.711  15.589  1.00  0.00    -0.015 C 
HETATM   20  C   UNL     1     -46.831 -52.129  17.062  1.00  0.00     0.010 C 
HETATM   21  C   UNL     1     -45.568 -50.958  15.208  1.00  0.00     0.024 C 
ENDBRANCH   2  13
TORSDOF 5
ENDMDL
MODEL 5
REMARK VINA RESULT:      -5.7      1.879      3.010
REMARK  5 active torsions:
REMARK  status: ('A' for Active; 'I' for Inactive)
REMARK    1  A    between atoms: C_2  and  N_3 
REMARK    2  A    between atoms: C_2  and  C_12 
REMARK    3  A    between atoms: N_3  and  C_4 
REMARK    4  A    between atoms: C_4  and  C_5 
REMARK    5  A    between atoms: C_5  and  N_6 
REMARK       I    between atoms: C_12  and  N_14 
ROOT
HETATM    1  C   UNL     1     -40.102 -50.133  12.787  1.00  0.00     0.053 C 
HETATM    2  C   UNL     1     -41.612 -50.338  12.649  1.00  0.00     0.307 C 
ENDROOT
BRANCH   2   3
HETATM    3  N   UNL     1     -42.123 -49.674  11.424  1.00  0.00     0.098 N 
HETATM    4  H   UNL     1     -43.017 -49.233  11.660  1.00  0.00     0.317 HD
BRANCH   3   5
HETATM    5  C   UNL     1     -41.176 -48.682  10.902  1.00  0.00     0.292 C 
BRANCH   5   6
HETATM    6  C   UNL     1     -41.859 -47.343  10.617  1.00  0.00     0.178 C 
BRANCH   6   7
HETATM    7  N   UNL     1     -42.945 -47.500   9.668  1.00  0.00    -0.302 N 
HETATM    8  C   UNL     1     -44.271 -47.265   9.893  1.00  0.00     0.111 A 
HETATM    9  C   UNL     1     -44.916 -47.567   8.717  1.00  0.00     0.037 A 
HETATM   10  C   UNL     1     -43.894 -47.980   7.845  1.00  0.00     0.108 A 
HETATM   11  N   UNL     1     -42.688 -47.936   8.418  1.00  0.00    -0.310 N 
ATOM     12  HN  UNL     1     -41.786 -48.176   8.008  1.00  0.00     0.186 HD
ENDBRANCH   6   7
ENDBRANCH   5   6
ENDBRANCH   3   5
ENDBRANCH   2   3
BRANCH   2  13
HETATM   13  C   UNL     1     -41.926 -51.861  12.607  1.00  0.00     0.252 C 
HETATM   14  O   UNL     1     -41.199 -52.652  12.002  1.00  0.00    -0.271 OA
HETATM   15  N   UNL     1     -43.065 -52.290  13.293  1.00  0.00    -0.350 N 
HETATM   16  C   UNL     1     -43.288 -53.720  13.497  1.00  0.00     0.126 C 
HETATM   17  C   UNL     1     -44.132 -51.414  13.786  1.00  0.00     0.126 C 
HETATM   18  C   UNL     1     -44.640 -54.162  12.936  1.00  0.00     0.024 C 
HETATM   19  C   UNL     1     -45.802 -53.273  13.418  1.00  0.00    -0.015 C 
HETATM   20  C   UNL     1     -46.136 -53.506  14.893  1.00  0.00     0.010 C 
HETATM   21  C   UNL     1     -45.461 -51.801  13.150  1.00  0.00     0.024 C 
ENDBRANCH   2  13
TORSDOF 5
ENDMDL
MODEL 6
REMARK VINA RESULT:      -5.5      1.425      1.602
REMARK  5 active torsions:
REMARK  status: ('A' for Active; 'I' for Inactive)
REMARK    1  A    between atoms: C_2  and  N_3 
REMARK    2  A    between atoms: C_2  and  C_12 
REMARK    3  A    between atoms: N_3  and  C_4 
REMARK    4  A    between atoms: C_4  and  C_5 
REMARK    5  A    between atoms: C_5  and  N_6 
REMARK       I    between atoms: C_12  and  N_14 
ROOT
HETATM    1  C   UNL     1     -41.067 -54.512  15.632  1.00  0.00     0.053 C 
HETATM    2  C   UNL     1     -42.040 -53.825  14.673  1.00  0.00     0.307 C 
ENDROOT
BRANCH   2   3
HETATM    3  N   UNL     1     -41.628 -54.037  13.263  1.00  0.00     0.098 N 
HETATM    4  H   UNL     1     -42.089 -54.889  12.929  1.00  0.00     0.317 HD
BRANCH   3   5
HETATM    5  C   UNL     1     -41.974 -52.892  12.412  1.00  0.00     0.292 C 
BRANCH   5   6
HETATM    6  C   UNL     1     -40.751 -52.024  12.111  1.00  0.00     0.178 C 
BRANCH   6   7
HETATM    7  N   UNL     1     -41.141 -50.665  11.785  1.00  0.00    -0.302 N 
HETATM    8  C   UNL     1     -42.138 -49.936  12.369  1.00  0.00     0.111 A 
HETATM    9  C   UNL     1     -42.149 -48.722  11.724  1.00  0.00     0.037 A 
HETATM   10  C   UNL     1     -41.125 -48.817  10.766  1.00  0.00     0.108 A 
HETATM   11  N   UNL     1     -40.503 -49.999  10.802  1.00  0.00    -0.310 N 
ATOM     12  HN  UNL     1     -39.729 -50.321  10.223  1.00  0.00     0.186 HD
ENDBRANCH   6   7
ENDBRANCH   5   6
ENDBRANCH   3   5
ENDBRANCH   2   3
BRANCH   2  13
HETATM   13  C   UNL     1     -43.474 -54.381  14.904  1.00  0.00     0.252 C 
HETATM   14  O   UNL     1     -43.729 -55.581  14.773  1.00  0.00    -0.271 OA
HETATM   15  N   UNL     1     -44.457 -53.460  15.275  1.00  0.00    -0.350 N 
HETATM   16  C   UNL     1     -45.758 -53.941  15.739  1.00  0.00     0.126 C 
HETATM   17  C   UNL     1     -44.327 -52.004  15.175  1.00  0.00     0.126 C 
HETATM   18  C   UNL     1     -46.899 -53.361  14.902  1.00  0.00     0.024 C 
HETATM   19  C   UNL     1     -46.813 -51.830  14.758  1.00  0.00    -0.015 C 
HETATM   20  C   UNL     1     -47.161 -51.106  16.061  1.00  0.00     0.010 C 
HETATM   21  C   UNL     1     -45.413 -51.444  14.264  1.00  0.00     0.024 C 
ENDBRANCH   2  13
TORSDOF 5
ENDMDL
MODEL 7
REMARK VINA RESULT:      -5.4      1.416      1.601
REMARK  5 active torsions:
REMARK  status: ('A' for Active; 'I' for Inactive)
REMARK    1  A    between atoms: C_2  and  N_3 
REMARK    2  A    between atoms: C_2  and  C_12 
REMARK    3  A    between atoms: N_3  and  C_4 
REMARK    4  A    between atoms: C_4  and  C_5 
REMARK    5  A    between atoms: C_5  and  N_6 
REMARK       I    between atoms: C_12  and  N_14 
ROOT
HETATM    1  C   UNL     1     -40.061 -52.838  15.084  1.00  0.00     0.053 C 
HETATM    2  C   UNL     1     -41.091 -52.375  14.051  1.00  0.00     0.307 C 
ENDROOT
BRANCH   2   3
HETATM    3  N   UNL     1     -40.488 -52.318  12.696  1.00  0.00     0.098 N 
HETATM    4  H   UNL     1     -40.522 -53.262  12.301  1.00  0.00     0.317 HD
BRANCH   3   5
HETATM    5  C   UNL     1     -41.186 -51.364  11.826  1.00  0.00     0.292 C 
BRANCH   5   6
HETATM    6  C   UNL     1     -41.007 -49.924  12.308  1.00  0.00     0.178 C 
BRANCH   6   7
HETATM    7  N   UNL     1     -41.825 -49.007  11.537  1.00  0.00    -0.302 N 
HETATM    8  C   UNL     1     -42.977 -48.395  11.944  1.00  0.00     0.111 A 
HETATM    9  C   UNL     1     -43.404 -47.641  10.878  1.00  0.00     0.037 A 
HETATM   10  C   UNL     1     -42.447 -47.867   9.874  1.00  0.00     0.108 A 
HETATM   11  N   UNL     1     -41.478 -48.696  10.272  1.00  0.00    -0.310 N 
ATOM     12  HN  UNL     1     -40.667 -49.018   9.744  1.00  0.00     0.186 HD
ENDBRANCH   6   7
ENDBRANCH   5   6
ENDBRANCH   3   5
ENDBRANCH   2   3
BRANCH   2  13
HETATM   13  C   UNL     1     -42.305 -53.347  14.059  1.00  0.00     0.252 C 
HETATM   14  O   UNL     1     -42.171 -54.548  13.818  1.00  0.00    -0.271 OA
HETATM   15  N   UNL     1     -43.554 -52.795  14.362  1.00  0.00    -0.350 N 
HETATM   16  C   UNL     1     -44.688 -53.679  14.621  1.00  0.00     0.126 C 
HETATM   17  C   UNL     1     -43.860 -51.362  14.375  1.00  0.00     0.126 C 
HETATM   18  C   UNL     1     -45.859 -53.377  13.686  1.00  0.00     0.024 C 
HETATM   19  C   UNL     1     -46.225 -51.882  13.655  1.00  0.00    -0.015 C 
HETATM   20  C   UNL     1     -46.908 -51.426  14.948  1.00  0.00     0.010 C 
HETATM   21  C   UNL     1     -44.964 -51.055  13.371  1.00  0.00     0.024 C 
ENDBRANCH   2  13
TORSDOF 5
ENDMDL
MODEL 8
REMARK VINA RESULT:      -5.2      2.921      4.798
REMARK  5 active torsions:
REMARK  status: ('A' for Active; 'I' for Inactive)
REMARK    1  A    between atoms: C_2  and  N_3 
REMARK    2  A    between atoms: C_2  and  C_12 
REMARK    3  A    between atoms: N_3  and  C_4 
REMARK    4  A    between atoms: C_4  and  C_5 
REMARK    5  A    between atoms: C_5  and  N_6 
REMARK       I    between atoms: C_12  and  N_14 
ROOT
HETATM    1  C   UNL     1     -42.131 -47.992  13.074  1.00  0.00     0.053 C 
HETATM    2  C   UNL     1     -42.455 -49.161  12.141  1.00  0.00     0.307 C 
ENDROOT
BRANCH   2   3
HETATM    3  N   UNL     1     -42.595 -48.693  10.740  1.00  0.00     0.098 N 
HETATM    4  H   UNL     1     -43.017 -49.453  10.199  1.00  0.00     0.317 HD
BRANCH   3   5
HETATM    5  C   UNL     1     -43.409 -47.476  10.648  1.00  0.00     0.292 C 
BRANCH   5   6
HETATM    6  C   UNL     1     -42.815 -46.473   9.656  1.00  0.00     0.178 C 
BRANCH   6   7
HETATM    7  N   UNL     1     -41.758 -45.692  10.270  1.00  0.00    -0.302 N 
HETATM    8  C   UNL     1     -41.908 -44.630  11.115  1.00  0.00     0.111 A 
HETATM    9  C   UNL     1     -40.638 -44.204  11.421  1.00  0.00     0.037 A 
HETATM   10  C   UNL     1     -39.790 -45.070  10.710  1.00  0.00     0.108 A 
HETATM   11  N   UNL     1     -40.468 -45.984  10.010  1.00  0.00    -0.310 N 
ATOM     12  HN  UNL     1     -40.097 -46.727   9.417  1.00  0.00     0.186 HD
ENDBRANCH   6   7
ENDBRANCH   5   6
ENDBRANCH   3   5
ENDBRANCH   2   3
BRANCH   2  13
HETATM   13  C   UNL     1     -41.329 -50.230  12.242  1.00  0.00     0.252 C 
HETATM   14  O   UNL     1     -40.232 -50.063  11.706  1.00  0.00    -0.271 OA
HETATM   15  N   UNL     1     -41.618 -51.384  12.975  1.00  0.00    -0.350 N 
HETATM   16  C   UNL     1     -40.541 -52.313  13.311  1.00  0.00     0.126 C 
HETATM   17  C   UNL     1     -42.959 -51.802  13.395  1.00  0.00     0.126 C 
HETATM   18  C   UNL     1     -40.841 -53.724  12.805  1.00  0.00     0.024 C 
HETATM   19  C   UNL     1     -42.242 -54.218  13.214  1.00  0.00    -0.015 C 
HETATM   20  C   UNL     1     -42.329 -54.541  14.708  1.00  0.00     0.010 C 
HETATM   21  C   UNL     1     -43.287 -53.170  12.809  1.00  0.00     0.024 C 
ENDBRANCH   2  13
TORSDOF 5
ENDMDL
MODEL 9
REMARK VINA RESULT:      -5.0      2.301      3.323
REMARK  5 active torsions:
REMARK  status: ('A' for Active; 'I' for Inactive)
REMARK    1  A    between atoms: C_2  and  N_3 
REMARK    2  A    between atoms: C_2  and  C_12 
REMARK    3  A    between atoms: N_3  and  C_4 
REMARK    4  A    between atoms: C_4  and  C_5 
REMARK    5  A    between atoms: C_5  and  N_6 
REMARK       I    between atoms: C_12  and  N_14 
ROOT
HETATM    1  C   UNL     1     -41.932 -49.335  13.757  1.00  0.00     0.053 C 
HETATM    2  C   UNL     1     -42.481 -50.180  12.605  1.00  0.00     0.307 C 
ENDROOT
BRANCH   2   3
HETATM    3  N   UNL     1     -41.762 -49.878  11.343  1.00  0.00     0.098 N 
HETATM    4  H   UNL     1     -42.448 -49.894  10.582  1.00  0.00     0.317 HD
BRANCH   3   5
HETATM    5  C   UNL     1     -41.077 -48.581  11.398  1.00  0.00     0.292 C 
BRANCH   5   6
HETATM    6  C   UNL     1     -41.713 -47.566  10.446  1.00  0.00     0.178 C 
BRANCH   6   7
HETATM    7  N   UNL     1     -41.109 -46.256  10.596  1.00  0.00    -0.302 N 
HETATM    8  C   UNL     1     -41.715 -45.122  11.058  1.00  0.00     0.111 A 
HETATM    9  C   UNL     1     -40.761 -44.133  11.004  1.00  0.00     0.037 A 
HETATM   10  C   UNL     1     -39.616 -44.768  10.493  1.00  0.00     0.108 A 
HETATM   11  N   UNL     1     -39.821 -46.065  10.247  1.00  0.00    -0.310 N 
ATOM     12  HN  UNL     1     -39.160 -46.749   9.881  1.00  0.00     0.186 HD
ENDBRANCH   6   7
ENDBRANCH   5   6
ENDBRANCH   3   5
ENDBRANCH   2   3
BRANCH   2  13
HETATM   13  C   UNL     1     -42.342 -51.689  12.957  1.00  0.00     0.252 C 
HETATM   14  O   UNL     1     -41.317 -52.320  12.692  1.00  0.00    -0.271 OA
HETATM   15  N   UNL     1     -43.430 -52.291  13.595  1.00  0.00    -0.350 N 
HETATM   16  C   UNL     1     -43.280 -53.628  14.166  1.00  0.00     0.126 C 
HETATM   17  C   UNL     1     -44.775 -51.717  13.689  1.00  0.00     0.126 C 
HETATM   18  C   UNL     1     -44.313 -54.599  13.595  1.00  0.00     0.024 C 
HETATM   19  C   UNL     1     -45.750 -54.048  13.664  1.00  0.00    -0.015 C 
HETATM   20  C   UNL     1     -46.294 -54.027  15.095  1.00  0.00     0.010 C 
HETATM   21  C   UNL     1     -45.787 -52.649  13.035  1.00  0.00     0.024 C 
ENDBRANCH   2  13
TORSDOF 5
ENDMDL
