MODEL 1
REMARK VINA RESULT:      -5.8      0.000      0.000
REMARK  6 active torsions:
REMARK  status: ('A' for Active; 'I' for Inactive)
REMARK    1  A    between atoms: C_2  and  S_5 
REMARK    2  A    between atoms: S_5  and  C_6 
REMARK    3  A    between atoms: C_6  and  C_7 
REMARK       I    between atoms: C_7  and  N_9 
REMARK    4  A    between atoms: N_9  and  C_10 
REMARK    5  A    between atoms: C_10  and  C_11 
REMARK    6  A    between atoms: C_16  and  N_18 
ROOT
HETATM    1  C   UNL     1     -40.939 -50.928  12.293  1.00  0.00    -0.036 A 
HETATM    2  C   UNL     1     -39.958 -50.708  13.252  1.00  0.00     0.026 A 
HETATM    3  C   UNL     1     -39.759 -49.407  13.691  1.00  0.00     0.090 A 
HETATM    4  N   UNL     1     -40.469 -48.336  13.264  1.00  0.00    -0.352 N 
ATOM      5  HN  UNL     1     -40.270 -47.400  13.617  1.00  0.00     0.166 HD
HETATM    6  C   UNL     1     -41.448 -48.545  12.361  1.00  0.00     0.103 A 
HETATM    7  C   UNL     1     -41.685 -49.828  11.856  1.00  0.00     0.057 A 
ENDROOT
BRANCH   1   8
HETATM    8  C   UNL     1     -41.224 -52.293  11.738  1.00  0.00     0.161 C 
BRANCH   8   9
HETATM    9  N   UNL     1     -42.618 -52.641  11.876  1.00  0.00    -0.356 N 
HETATM   10  C   UNL     1     -43.010 -53.580  12.806  1.00  0.00     0.227 C 
HETATM   11  O   UNL     1     -42.230 -54.081  13.616  1.00  0.00    -0.273 OA
HETATM   12  H   UNL     1     -43.255 -52.430  11.118  1.00  0.00     0.162 HD
BRANCH  10  13
HETATM   13  C   UNL     1     -44.495 -53.899  12.811  1.00  0.00     0.177 C 
BRANCH  13  14
HETATM   14  S   UNL     1     -45.244 -53.485  14.427  1.00  0.00    -0.151 SA
BRANCH  14  15
HETATM   15  C   UNL     1     -45.879 -51.768  14.121  1.00  0.00    -0.003 C 
HETATM   16  C   UNL     1     -46.966 -51.413  15.142  1.00  0.00     0.026 C 
HETATM   17  C   UNL     1     -46.412 -51.615  12.692  1.00  0.00     0.026 C 
HETATM   18  C   UNL     1     -44.688 -50.812  14.309  1.00  0.00     0.026 C 
ENDBRANCH  14  15
ENDBRANCH  13  14
ENDBRANCH  10  13
ENDBRANCH   8   9
ENDBRANCH   1   8
BRANCH   6  19
HETATM   19  N   UNL     1     -42.203 -47.485  11.889  1.00  0.00    -0.363 N 
HETATM   20  C   UNL     1     -43.279 -47.720  10.919  1.00  0.00     0.150 C 
HETATM   21  C   UNL     1     -42.972 -47.110   9.543  1.00  0.00     0.187 C 
HETATM   22  O   UNL     1     -42.538 -45.742   9.643  1.00  0.00    -0.388 OA
HETATM   23  C   UNL     1     -41.346 -45.672  10.436  1.00  0.00     0.187 C 
HETATM   24  C   UNL     1     -41.605 -46.143  11.874  1.00  0.00     0.150 C 
ENDBRANCH   6  19
TORSDOF 6
ENDMDL
MODEL 2
REMARK VINA RESULT:      -5.7      2.720      6.251
REMARK  6 active torsions:
REMARK  status: ('A' for Active; 'I' for Inactive)
REMARK    1  A    between atoms: C_2  and  S_5 
REMARK    2  A    between atoms: S_5  and  C_6 
REMARK    3  A    between atoms: C_6  and  C_7 
REMARK       I    between atoms: C_7  and  N_9 
REMARK    4  A    between atoms: N_9  and  C_10 
REMARK    5  A    between atoms: C_10  and  C_11 
REMARK    6  A    between atoms: C_16  and  N_18 
ROOT
HETATM    1  C   UNL     1     -41.004 -51.987  12.720  1.00  0.00    -0.036 A 
HETATM    2  C   UNL     1     -40.723 -53.346  12.637  1.00  0.00     0.026 A 
HETATM    3  C   UNL     1     -41.589 -54.228  13.264  1.00  0.00     0.090 A 
HETATM    4  N   UNL     1     -42.706 -53.860  13.936  1.00  0.00    -0.352 N 
ATOM      5  HN  UNL     1     -43.301 -54.555  14.387  1.00  0.00     0.166 HD
HETATM    6  C   UNL     1     -43.007 -52.546  13.992  1.00  0.00     0.103 A 
HETATM    7  C   UNL     1     -42.161 -51.600  13.403  1.00  0.00     0.057 A 
ENDROOT
BRANCH   1   8
HETATM    8  C   UNL     1     -40.122 -50.948  12.093  1.00  0.00     0.161 C 
BRANCH   8   9
HETATM    9  N   UNL     1     -40.820 -50.208  11.069  1.00  0.00    -0.356 N 
HETATM   10  C   UNL     1     -41.089 -48.868  11.243  1.00  0.00     0.227 C 
HETATM   11  O   UNL     1     -40.671 -48.223  12.204  1.00  0.00    -0.273 OA
HETATM   12  H   UNL     1     -41.361 -50.715  10.379  1.00  0.00     0.162 HD
BRANCH  10  13
HETATM   13  C   UNL     1     -41.881 -48.220  10.119  1.00  0.00     0.177 C 
BRANCH  13  14
HETATM   14  S   UNL     1     -43.494 -47.611  10.726  1.00  0.00    -0.151 SA
BRANCH  14  15
HETATM   15  C   UNL     1     -44.307 -47.058   9.152  1.00  0.00    -0.003 C 
HETATM   16  C   UNL     1     -43.650 -47.738   7.946  1.00  0.00     0.026 C 
HETATM   17  C   UNL     1     -44.257 -45.532   9.003  1.00  0.00     0.026 C 
HETATM   18  C   UNL     1     -45.779 -47.498   9.231  1.00  0.00     0.026 C 
ENDBRANCH  14  15
ENDBRANCH  13  14
ENDBRANCH  10  13
ENDBRANCH   8   9
ENDBRANCH   1   8
BRANCH   6  19
HETATM   19  N   UNL     1     -44.134 -52.115  14.668  1.00  0.00    -0.363 N 
HETATM   20  C   UNL     1     -44.827 -53.016  15.597  1.00  0.00     0.150 C 
HETATM   21  C   UNL     1     -46.223 -53.417  15.096  1.00  0.00     0.187 C 
HETATM   22  O   UNL     1     -46.993 -52.277  14.675  1.00  0.00    -0.388 OA
HETATM   23  C   UNL     1     -46.313 -51.605  13.607  1.00  0.00     0.187 C 
HETATM   24  C   UNL     1     -44.956 -51.055  14.068  1.00  0.00     0.150 C 
ENDBRANCH   6  19
TORSDOF 6
ENDMDL
MODEL 3
REMARK VINA RESULT:      -5.5      0.858      1.666
REMARK  6 active torsions:
REMARK  status: ('A' for Active; 'I' for Inactive)
REMARK    1  A    between atoms: C_2  and  S_5 
REMARK    2  A    between atoms: S_5  and  C_6 
REMARK    3  A    between atoms: C_6  and  C_7 
REMARK       I    between atoms: C_7  and  N_9 
REMARK    4  A    between atoms: N_9  and  C_10 
REMARK    5  A    between atoms: C_10  and  C_11 
REMARK    6  A    between atoms: C_16  and  N_18 
ROOT
HETATM    1  C   UNL     1     -40.196 -50.973  12.672  1.00  0.00    -0.036 A 
HETATM    2  C   UNL     1     -39.301 -50.508  13.628  1.00  0.00     0.026 A 
HETATM    3  C   UNL     1     -38.958 -49.164  13.597  1.00  0.00     0.090 A 
HETATM    4  N   UNL     1     -39.453 -48.266  12.712  1.00  0.00    -0.352 N 
ATOM      5  HN  UNL     1     -39.156 -47.291  12.732  1.00  0.00     0.166 HD
HETATM    6  C   UNL     1     -40.351 -48.701  11.804  1.00  0.00     0.103 A 
HETATM    7  C   UNL     1     -40.720 -50.050  11.762  1.00  0.00     0.057 A 
ENDROOT
BRANCH   1   8
HETATM    8  C   UNL     1     -40.619 -52.412  12.606  1.00  0.00     0.161 C 
BRANCH   8   9
HETATM    9  N   UNL     1     -42.036 -52.537  12.362  1.00  0.00    -0.356 N 
HETATM   10  C   UNL     1     -42.747 -53.578  12.917  1.00  0.00     0.227 C 
HETATM   11  O   UNL     1     -42.249 -54.375  13.712  1.00  0.00    -0.273 OA
HETATM   12  H   UNL     1     -42.443 -52.054  11.569  1.00  0.00     0.162 HD
BRANCH  10  13
HETATM   13  C   UNL     1     -44.217 -53.629  12.536  1.00  0.00     0.177 C 
BRANCH  13  14
HETATM   14  S   UNL     1     -45.279 -53.539  14.022  1.00  0.00    -0.151 SA
BRANCH  14  15
HETATM   15  C   UNL     1     -45.864 -51.778  13.963  1.00  0.00    -0.003 C 
HETATM   16  C   UNL     1     -44.674 -50.818  14.082  1.00  0.00     0.026 C 
HETATM   17  C   UNL     1     -46.896 -51.495  15.062  1.00  0.00     0.026 C 
HETATM   18  C   UNL     1     -46.532 -51.575  12.593  1.00  0.00     0.026 C 
ENDBRANCH  14  15
ENDBRANCH  13  14
ENDBRANCH  10  13
ENDBRANCH   8   9
ENDBRANCH   1   8
BRANCH   6  19
HETATM   19  N   UNL     1     -40.886 -47.826  10.875  1.00  0.00    -0.363 N 
HETATM   20  C   UNL     1     -40.482 -46.415  10.873  1.00  0.00     0.150 C 
HETATM   21  C   UNL     1     -41.630 -45.476  11.275  1.00  0.00     0.187 C 
HETATM   22  O   UNL     1     -42.838 -45.758  10.547  1.00  0.00    -0.388 OA
HETATM   23  C   UNL     1     -43.254 -47.105  10.809  1.00  0.00     0.187 C 
HETATM   24  C   UNL     1     -42.212 -48.117  10.312  1.00  0.00     0.150 C 
ENDBRANCH   6  19
TORSDOF 6
ENDMDL
MODEL 4
REMARK VINA RESULT:      -5.4      2.096      2.856
REMARK  6 active torsions:
REMARK  status: ('A' for Active; 'I' for Inactive)
REMARK    1  A    between atoms: C_2  and  S_5 
REMARK    2  A    between atoms: S_5  and  C_6 
REMARK    3  A    between atoms: C_6  and  C_7 
REMARK       I    between atoms: C_7  and  N_9 
REMARK    4  A    between atoms: N_9  and  C_10 
REMARK    5  A    between atoms: C_10  and  C_11 
REMARK    6  A    between atoms: C_16  and  N_18 
ROOT
HETATM    1  C   UNL     1     -38.519 -50.765  13.518  1.00  0.00    -0.036 A 
HETATM    2  C   UNL     1     -37.522 -50.826  12.552  1.00  0.00     0.026 A 
HETATM    3  C   UNL     1     -37.619 -49.972  11.464  1.00  0.00     0.090 A 
HETATM    4  N   UNL     1     -38.609 -49.065  11.286  1.00  0.00    -0.352 N 
ATOM      5  HN  UNL     1     -38.633 -48.469  10.458  1.00  0.00     0.166 HD
HETATM    6  C   UNL     1     -39.561 -48.973  12.236  1.00  0.00     0.103 A 
HETATM    7  C   UNL     1     -39.538 -49.823  13.347  1.00  0.00     0.057 A 
ENDROOT
BRANCH   1   8
HETATM    8  C   UNL     1     -38.519 -51.657  14.725  1.00  0.00     0.161 C 
BRANCH   8   9
HETATM    9  N   UNL     1     -39.743 -52.416  14.823  1.00  0.00    -0.356 N 
HETATM   10  C   UNL     1     -39.856 -53.635  14.190  1.00  0.00     0.227 C 
HETATM   11  O   UNL     1     -38.914 -54.174  13.611  1.00  0.00    -0.273 OA
HETATM   12  H   UNL     1     -40.596 -51.941  15.095  1.00  0.00     0.162 HD
BRANCH  10  13
HETATM   13  C   UNL     1     -41.214 -54.304  14.323  1.00  0.00     0.177 C 
BRANCH  13  14
HETATM   14  S   UNL     1     -42.490 -53.095  14.826  1.00  0.00    -0.151 SA
BRANCH  14  15
HETATM   15  C   UNL     1     -43.289 -52.689  13.200  1.00  0.00    -0.003 C 
HETATM   16  C   UNL     1     -44.098 -53.887  12.691  1.00  0.00     0.026 C 
HETATM   17  C   UNL     1     -42.248 -52.259  12.158  1.00  0.00     0.026 C 
HETATM   18  C   UNL     1     -44.247 -51.513  13.455  1.00  0.00     0.026 C 
ENDBRANCH  14  15
ENDBRANCH  13  14
ENDBRANCH  10  13
ENDBRANCH   8   9
ENDBRANCH   1   8
BRANCH   6  19
HETATM   19  N   UNL     1     -40.597 -48.065  12.103  1.00  0.00    -0.363 N 
HETATM   20  C   UNL     1     -41.876 -48.485  11.517  1.00  0.00     0.150 C 
HETATM   21  C   UNL     1     -42.145 -47.821  10.158  1.00  0.00     0.187 C 
HETATM   22  O   UNL     1     -41.941 -46.398  10.203  1.00  0.00    -0.388 OA
HETATM   23  C   UNL     1     -40.585 -46.117  10.574  1.00  0.00     0.187 C 
HETATM   24  C   UNL     1     -40.274 -46.637  11.984  1.00  0.00     0.150 C 
ENDBRANCH   6  19
TORSDOF 6
ENDMDL
MODEL 5
REMARK VINA RESULT:      -5.2      2.970      6.761
REMARK  6 active torsions:
REMARK  status: ('A' for Active; 'I' for Inactive)
REMARK    1  A    between atoms: C_2  and  S_5 
REMARK    2  A    between atoms: S_5  and  C_6 
REMARK    3  A    between atoms: C_6  and  C_7 
REMARK       I    between atoms: C_7  and  N_9 
REMARK    4  A    between atoms: N_9  and  C_10 
REMARK    5  A    between atoms: C_10  and  C_11 
REMARK    6  A    between atoms: C_16  and  N_18 
ROOT
HETATM    1  C   UNL     1     -41.770 -50.907  13.408  1.00  0.00    -0.036 A 
HETATM    2  C   UNL     1     -41.895 -49.905  14.364  1.00  0.00     0.026 A 
HETATM    3  C   UNL     1     -42.648 -50.177  15.496  1.00  0.00     0.090 A 
HETATM    4  N   UNL     1     -43.256 -51.361  15.747  1.00  0.00    -0.352 N 
ATOM      5  HN  UNL     1     -43.807 -51.499  16.594  1.00  0.00     0.166 HD
HETATM    6  C   UNL     1     -43.111 -52.351  14.843  1.00  0.00     0.103 A 
HETATM    7  C   UNL     1     -42.386 -52.136  13.666  1.00  0.00     0.057 A 
ENDROOT
BRANCH   1   8
HETATM    8  C   UNL     1     -40.993 -50.710  12.140  1.00  0.00     0.161 C 
BRANCH   8   9
HETATM    9  N   UNL     1     -41.622 -49.738  11.278  1.00  0.00    -0.356 N 
HETATM   10  C   UNL     1     -41.055 -48.494  11.105  1.00  0.00     0.227 C 
HETATM   11  O   UNL     1     -39.961 -48.189  11.579  1.00  0.00    -0.273 OA
HETATM   12  H   UNL     1     -42.601 -49.850  11.042  1.00  0.00     0.162 HD
BRANCH  10  13
HETATM   13  C   UNL     1     -41.846 -47.544  10.221  1.00  0.00     0.177 C 
BRANCH  13  14
HETATM   14  S   UNL     1     -43.614 -47.540  10.687  1.00  0.00    -0.151 SA
BRANCH  14  15
HETATM   15  C   UNL     1     -44.425 -47.049   9.092  1.00  0.00    -0.003 C 
HETATM   16  C   UNL     1     -44.358 -45.528   8.907  1.00  0.00     0.026 C 
HETATM   17  C   UNL     1     -45.878 -47.535   9.031  1.00  0.00     0.026 C 
HETATM   18  C   UNL     1     -43.630 -47.723   7.960  1.00  0.00     0.026 C 
ENDBRANCH  14  15
ENDBRANCH  13  14
ENDBRANCH  10  13
ENDBRANCH   8   9
ENDBRANCH   1   8
BRANCH   6  19
HETATM   19  N   UNL     1     -43.713 -53.580  15.049  1.00  0.00    -0.363 N 
HETATM   20  C   UNL     1     -44.312 -54.306  13.922  1.00  0.00     0.150 C 
HETATM   21  C   UNL     1     -45.842 -54.402  14.033  1.00  0.00     0.187 C 
HETATM   22  O   UNL     1     -46.261 -54.854  15.333  1.00  0.00    -0.388 OA
HETATM   23  C   UNL     1     -45.799 -53.937  16.334  1.00  0.00     0.187 C 
HETATM   24  C   UNL     1     -44.266 -53.882  16.376  1.00  0.00     0.150 C 
ENDBRANCH   6  19
TORSDOF 6
ENDMDL
MODEL 6
REMARK VINA RESULT:      -5.2      2.247      3.047
REMARK  6 active torsions:
REMARK  status: ('A' for Active; 'I' for Inactive)
REMARK    1  A    between atoms: C_2  and  S_5 
REMARK    2  A    between atoms: S_5  and  C_6 
REMARK    3  A    between atoms: C_6  and  C_7 
REMARK       I    between atoms: C_7  and  N_9 
REMARK    4  A    between atoms: N_9  and  C_10 
REMARK    5  A    between atoms: C_10  and  C_11 
REMARK    6  A    between atoms: C_16  and  N_18 
ROOT
HETATM    1  C   UNL     1     -38.508 -49.016  12.668  1.00  0.00    -0.036 A 
HETATM    2  C   UNL     1     -37.725 -48.851  13.804  1.00  0.00     0.026 A 
HETATM    3  C   UNL     1     -37.815 -47.647  14.486  1.00  0.00     0.090 A 
HETATM    4  N   UNL     1     -38.631 -46.625  14.133  1.00  0.00    -0.352 N 
ATOM      5  HN  UNL     1     -38.647 -45.757  14.669  1.00  0.00     0.166 HD
HETATM    6  C   UNL     1     -39.421 -46.789  13.053  1.00  0.00     0.103 A 
HETATM    7  C   UNL     1     -39.361 -47.969  12.304  1.00  0.00     0.057 A 
ENDROOT
BRANCH   1   8
HETATM    8  C   UNL     1     -38.473 -50.272  11.847  1.00  0.00     0.161 C 
BRANCH   8   9
HETATM    9  N   UNL     1     -39.785 -50.860  11.722  1.00  0.00    -0.356 N 
HETATM   10  C   UNL     1     -40.117 -51.979  12.454  1.00  0.00     0.227 C 
HETATM   11  O   UNL     1     -39.372 -52.463  13.306  1.00  0.00    -0.273 OA
HETATM   12  H   UNL     1     -40.345 -50.644  10.906  1.00  0.00     0.162 HD
BRANCH  10  13
HETATM   13  C   UNL     1     -41.506 -52.534  12.187  1.00  0.00     0.177 C 
BRANCH  13  14
HETATM   14  S   UNL     1     -41.877 -53.928  13.311  1.00  0.00    -0.151 SA
BRANCH  14  15
HETATM   15  C   UNL     1     -43.651 -53.599  13.749  1.00  0.00    -0.003 C 
HETATM   16  C   UNL     1     -44.468 -53.317  12.483  1.00  0.00     0.026 C 
HETATM   17  C   UNL     1     -43.775 -52.436  14.741  1.00  0.00     0.026 C 
HETATM   18  C   UNL     1     -44.190 -54.877  14.415  1.00  0.00     0.026 C 
ENDBRANCH  14  15
ENDBRANCH  13  14
ENDBRANCH  10  13
ENDBRANCH   8   9
ENDBRANCH   1   8
BRANCH   6  19
HETATM   19  N   UNL     1     -40.271 -45.776  12.647  1.00  0.00    -0.363 N 
HETATM   20  C   UNL     1     -41.633 -46.090  12.198  1.00  0.00     0.150 C 
HETATM   21  C   UNL     1     -41.836 -45.812  10.701  1.00  0.00     0.187 C 
HETATM   22  O   UNL     1     -41.365 -44.505  10.326  1.00  0.00    -0.388 OA
HETATM   23  C   UNL     1     -39.964 -44.399  10.612  1.00  0.00     0.187 C 
HETATM   24  C   UNL     1     -39.690 -44.535  12.116  1.00  0.00     0.150 C 
ENDBRANCH   6  19
TORSDOF 6
ENDMDL
MODEL 7
REMARK VINA RESULT:      -5.2      2.078      2.968
REMARK  6 active torsions:
REMARK  status: ('A' for Active; 'I' for Inactive)
REMARK    1  A    between atoms: C_2  and  S_5 
REMARK    2  A    between atoms: S_5  and  C_6 
REMARK    3  A    between atoms: C_6  and  C_7 
REMARK       I    between atoms: C_7  and  N_9 
REMARK    4  A    between atoms: N_9  and  C_10 
REMARK    5  A    between atoms: C_10  and  C_11 
REMARK    6  A    between atoms: C_16  and  N_18 
ROOT
HETATM    1  C   UNL     1     -41.465 -49.305  11.885  1.00  0.00    -0.036 A 
HETATM    2  C   UNL     1     -42.341 -49.220  12.960  1.00  0.00     0.026 A 
HETATM    3  C   UNL     1     -42.933 -47.993  13.220  1.00  0.00     0.090 A 
HETATM    4  N   UNL     1     -42.733 -46.873  12.485  1.00  0.00    -0.352 N 
ATOM      5  HN  UNL     1     -43.189 -45.994  12.731  1.00  0.00     0.166 HD
HETATM    6  C   UNL     1     -41.912 -46.955  11.418  1.00  0.00     0.103 A 
HETATM    7  C   UNL     1     -41.262 -48.156  11.114  1.00  0.00     0.057 A 
ENDROOT
BRANCH   1   8
HETATM    8  C   UNL     1     -40.758 -50.580  11.529  1.00  0.00     0.161 C 
BRANCH   8   9
HETATM    9  N   UNL     1     -41.497 -51.737  11.973  1.00  0.00    -0.356 N 
HETATM   10  C   UNL     1     -40.851 -52.765  12.625  1.00  0.00     0.227 C 
HETATM   11  O   UNL     1     -39.665 -52.708  12.947  1.00  0.00    -0.273 OA
HETATM   12  H   UNL     1     -42.401 -51.932  11.559  1.00  0.00     0.162 HD
BRANCH  10  13
HETATM   13  C   UNL     1     -41.730 -53.950  12.987  1.00  0.00     0.177 C 
BRANCH  13  14
HETATM   14  S   UNL     1     -43.500 -53.532  12.792  1.00  0.00    -0.151 SA
BRANCH  14  15
HETATM   15  C   UNL     1     -44.257 -54.395  14.251  1.00  0.00    -0.003 C 
HETATM   16  C   UNL     1     -43.200 -55.233  14.980  1.00  0.00     0.026 C 
HETATM   17  C   UNL     1     -45.442 -55.272  13.828  1.00  0.00     0.026 C 
HETATM   18  C   UNL     1     -44.767 -53.300  15.203  1.00  0.00     0.026 C 
ENDBRANCH  14  15
ENDBRANCH  13  14
ENDBRANCH  10  13
ENDBRANCH   8   9
ENDBRANCH   1   8
BRANCH   6  19
HETATM   19  N   UNL     1     -41.671 -45.841  10.634  1.00  0.00    -0.363 N 
HETATM   20  C   UNL     1     -40.293 -45.404  10.377  1.00  0.00     0.150 C 
HETATM   21  C   UNL     1     -39.971 -44.055  11.038  1.00  0.00     0.187 C 
HETATM   22  O   UNL     1     -40.978 -43.065  10.763  1.00  0.00    -0.388 OA
HETATM   23  C   UNL     1     -42.244 -43.515  11.264  1.00  0.00     0.187 C 
HETATM   24  C   UNL     1     -42.701 -44.796  10.553  1.00  0.00     0.150 C 
ENDBRANCH   6  19
TORSDOF 6
ENDMDL
MODEL 8
REMARK VINA RESULT:      -5.2      2.972      6.703
REMARK  6 active torsions:
REMARK  status: ('A' for Active; 'I' for Inactive)
REMARK    1  A    between atoms: C_2  and  S_5 
REMARK    2  A    between atoms: S_5  and  C_6 
REMARK    3  A    between atoms: C_6  and  C_7 
REMARK       I    between atoms: C_7  and  N_9 
REMARK    4  A    between atoms: N_9  and  C_10 
REMARK    5  A    between atoms: C_10  and  C_11 
REMARK    6  A    between atoms: C_16  and  N_18 
ROOT
HETATM    1  C   UNL     1     -41.635 -53.454  12.931  1.00  0.00    -0.036 A 
HETATM    2  C   UNL     1     -41.020 -54.172  13.950  1.00  0.00     0.026 A 
HETATM    3  C   UNL     1     -41.818 -54.661  14.973  1.00  0.00     0.090 A 
HETATM    4  N   UNL     1     -43.162 -54.506  15.039  1.00  0.00    -0.352 N 
ATOM      5  HN  UNL     1     -43.696 -54.880  15.823  1.00  0.00     0.166 HD
HETATM    6  C   UNL     1     -43.772 -53.842  14.036  1.00  0.00     0.103 A 
HETATM    7  C   UNL     1     -43.024 -53.300  12.986  1.00  0.00     0.057 A 
ENDROOT
BRANCH   1   8
HETATM    8  C   UNL     1     -40.862 -52.867  11.787  1.00  0.00     0.161 C 
BRANCH   8   9
HETATM    9  N   UNL     1     -41.293 -51.521  11.492  1.00  0.00    -0.356 N 
HETATM   10  C   UNL     1     -40.460 -50.454  11.747  1.00  0.00     0.227 C 
HETATM   11  O   UNL     1     -39.299 -50.592  12.132  1.00  0.00    -0.273 OA
HETATM   12  H   UNL     1     -42.283 -51.334  11.381  1.00  0.00     0.162 HD
BRANCH  10  13
HETATM   13  C   UNL     1     -41.054 -49.088  11.447  1.00  0.00     0.177 C 
BRANCH  13  14
HETATM   14  S   UNL     1     -39.857 -47.759  11.829  1.00  0.00    -0.151 SA
BRANCH  14  15
HETATM   15  C   UNL     1     -40.772 -46.249  11.256  1.00  0.00    -0.003 C 
HETATM   16  C   UNL     1     -41.231 -45.417  12.459  1.00  0.00     0.026 C 
HETATM   17  C   UNL     1     -41.968 -46.622  10.372  1.00  0.00     0.026 C 
HETATM   18  C   UNL     1     -39.782 -45.416  10.424  1.00  0.00     0.026 C 
ENDBRANCH  14  15
ENDBRANCH  13  14
ENDBRANCH  10  13
ENDBRANCH   8   9
ENDBRANCH   1   8
BRANCH   6  19
HETATM   19  N   UNL     1     -45.143 -53.654  14.055  1.00  0.00    -0.363 N 
HETATM   20  C   UNL     1     -45.759 -52.632  13.200  1.00  0.00     0.150 C 
HETATM   21  C   UNL     1     -46.363 -51.475  14.011  1.00  0.00     0.187 C 
HETATM   22  O   UNL     1     -47.198 -51.946  15.084  1.00  0.00    -0.388 OA
HETATM   23  C   UNL     1     -46.423 -52.756  15.976  1.00  0.00     0.187 C 
HETATM   24  C   UNL     1     -45.889 -54.010  15.270  1.00  0.00     0.150 C 
ENDBRANCH   6  19
TORSDOF 6
ENDMDL
MODEL 9
REMARK VINA RESULT:      -5.1      1.961      2.766
REMARK  6 active torsions:
REMARK  status: ('A' for Active; 'I' for Inactive)
REMARK    1  A    between atoms: C_2  and  S_5 
REMARK    2  A    between atoms: S_5  and  C_6 
REMARK    3  A    between atoms: C_6  and  C_7 
REMARK       I    between atoms: C_7  and  N_9 
REMARK    4  A    between atoms: N_9  and  C_10 
REMARK    5  A    between atoms: C_10  and  C_11 
REMARK    6  A    between atoms: C_16  and  N_18 
ROOT
HETATM    1  C   UNL     1     -42.004 -53.070  13.203  1.00  0.00    -0.036 A 
HETATM    2  C   UNL     1     -40.774 -53.501  13.686  1.00  0.00     0.026 A 
HETATM    3  C   UNL     1     -39.776 -52.554  13.858  1.00  0.00     0.090 A 
HETATM    4  N   UNL     1     -39.923 -51.230  13.609  1.00  0.00    -0.352 N 
ATOM      5  HN  UNL     1     -39.148 -50.581  13.745  1.00  0.00     0.166 HD
HETATM    6  C   UNL     1     -41.124 -50.797  13.174  1.00  0.00     0.103 A 
HETATM    7  C   UNL     1     -42.166 -51.703  12.954  1.00  0.00     0.057 A 
ENDROOT
BRANCH   1   8
HETATM    8  C   UNL     1     -43.145 -54.015  12.964  1.00  0.00     0.161 C 
BRANCH   8   9
HETATM    9  N   UNL     1     -44.330 -53.608  13.682  1.00  0.00    -0.356 N 
HETATM   10  C   UNL     1     -45.179 -54.554  14.212  1.00  0.00     0.227 C 
HETATM   11  O   UNL     1     -44.929 -55.759  14.193  1.00  0.00    -0.273 OA
HETATM   12  H   UNL     1     -44.689 -52.670  13.547  1.00  0.00     0.162 HD
BRANCH  10  13
HETATM   13  C   UNL     1     -46.419 -53.997  14.892  1.00  0.00     0.177 C 
BRANCH  13  14
HETATM   14  S   UNL     1     -45.987 -53.194  16.477  1.00  0.00    -0.151 SA
BRANCH  14  15
HETATM   15  C   UNL     1     -46.562 -51.453  16.188  1.00  0.00    -0.003 C 
HETATM   16  C   UNL     1     -45.475 -50.456  16.606  1.00  0.00     0.026 C 
HETATM   17  C   UNL     1     -47.871 -51.166  16.935  1.00  0.00     0.026 C 
HETATM   18  C   UNL     1     -46.814 -51.310  14.677  1.00  0.00     0.026 C 
ENDBRANCH  14  15
ENDBRANCH  13  14
ENDBRANCH  10  13
ENDBRANCH   8   9
ENDBRANCH   1   8
BRANCH   6  19
HETATM   19  N   UNL     1     -41.327 -49.456  12.902  1.00  0.00    -0.363 N 
HETATM   20  C   UNL     1     -42.261 -49.051  11.845  1.00  0.00     0.150 C 
HETATM   21  C   UNL     1     -41.550 -48.394  10.652  1.00  0.00     0.187 C 
HETATM   22  O   UNL     1     -40.632 -47.368  11.069  1.00  0.00    -0.388 OA
HETATM   23  C   UNL     1     -39.632 -47.937  11.925  1.00  0.00     0.187 C 
HETATM   24  C   UNL     1     -40.253 -48.501  13.210  1.00  0.00     0.150 C 
ENDBRANCH   6  19
TORSDOF 6
ENDMDL
