MODEL 1
REMARK VINA RESULT:      -5.7      0.000      0.000
REMARK  4 active torsions:
REMARK  status: ('A' for Active; 'I' for Inactive)
REMARK    1  A    between atoms: N_1  and  C_3 
REMARK    2  A    between atoms: C_2  and  C_4 
REMARK    3  A    between atoms: C_4  and  O_15 
REMARK    4  A    between atoms: C_11  and  O_16 
ROOT
HETATM    1  N   UNL     1     -42.615 -47.020  10.694  1.00  0.00    -0.350 N 
HETATM    2  C   UNL     1     -42.169 -47.838  11.830  1.00  0.00     0.186 C 
HETATM    3  C   UNL     1     -41.086 -46.960  12.494  1.00  0.00     0.069 C 
HETATM    4  C   UNL     1     -41.976 -45.726  10.726  1.00  0.00     0.157 C 
HETATM    5  C   UNL     1     -40.637 -46.017  11.368  1.00  0.00     0.138 C 
ENDROOT
BRANCH   1   6
HETATM    6  C   UNL     1     -43.471 -47.423   9.621  1.00  0.00     0.106 A 
HETATM    7  N   UNL     1     -42.909 -47.797   8.432  1.00  0.00    -0.339 N 
HETATM    8  C   UNL     1     -43.654 -48.223   7.384  1.00  0.00     0.181 A 
ATOM      9  HN  UNL     1     -41.895 -47.752   8.330  1.00  0.00     0.168 HD
HETATM   10  N   UNL     1     -45.005 -48.279   7.494  1.00  0.00    -0.362 N 
HETATM   11  C   UNL     1     -45.623 -47.913   8.645  1.00  0.00     0.092 A 
ATOM     12  HN  UNL     1     -45.563 -48.600   6.702  1.00  0.00     0.165 HD
HETATM   13  C   UNL     1     -44.873 -47.472   9.736  1.00  0.00     0.065 A 
ENDBRANCH   1   6
BRANCH   2  14
HETATM   14  C   UNL     1     -41.573 -49.182  11.449  1.00  0.00     0.163 C 
HETATM   15  O   UNL     1     -41.666 -50.154  12.177  1.00  0.00    -0.648 OA
BRANCH  14  16
HETATM   16  O   UNL     1     -40.885 -49.292  10.291  1.00  0.00    -0.775 OA
HETATM   17  H   UNL     1     -40.705 -50.153   9.881  1.00  0.00     0.167 HD
ENDBRANCH  14  16
ENDBRANCH   2  14
BRANCH   5  18
HETATM   18  O   UNL     1     -39.813 -46.701  10.460  1.00  0.00    -0.394 OA
HETATM   19  H   UNL     1     -40.410 -47.238   9.871  1.00  0.00     0.210 HD
ENDBRANCH   5  18
TORSDOF 4
ENDMDL
MODEL 2
REMARK VINA RESULT:      -5.5      1.943      2.645
REMARK  4 active torsions:
REMARK  status: ('A' for Active; 'I' for Inactive)
REMARK    1  A    between atoms: N_1  and  C_3 
REMARK    2  A    between atoms: C_2  and  C_4 
REMARK    3  A    between atoms: C_4  and  O_15 
REMARK    4  A    between atoms: C_11  and  O_16 
ROOT
HETATM    1  N   UNL     1     -42.547 -47.349  11.008  1.00  0.00    -0.350 N 
HETATM    2  C   UNL     1     -41.220 -46.718  11.046  1.00  0.00     0.186 C 
HETATM    3  C   UNL     1     -40.961 -46.533  12.556  1.00  0.00     0.069 C 
HETATM    4  C   UNL     1     -43.000 -47.643  12.346  1.00  0.00     0.157 C 
HETATM    5  C   UNL     1     -42.366 -46.548  13.176  1.00  0.00     0.138 C 
ENDROOT
BRANCH   1   6
HETATM    6  C   UNL     1     -43.367 -47.570   9.856  1.00  0.00     0.106 A 
HETATM    7  N   UNL     1     -42.766 -47.871   8.665  1.00  0.00    -0.339 N 
HETATM    8  C   UNL     1     -43.477 -48.128   7.543  1.00  0.00     0.181 A 
ATOM      9  HN  UNL     1     -41.747 -47.902   8.621  1.00  0.00     0.168 HD
HETATM   10  N   UNL     1     -44.833 -48.080   7.576  1.00  0.00    -0.362 N 
HETATM   11  C   UNL     1     -45.488 -47.778   8.725  1.00  0.00     0.092 A 
ATOM     12  HN  UNL     1     -45.366 -48.273   6.728  1.00  0.00     0.165 HD
HETATM   13  C   UNL     1     -44.772 -47.511   9.893  1.00  0.00     0.065 A 
ENDBRANCH   1   6
BRANCH   2  14
HETATM   14  C   UNL     1     -41.137 -45.373  10.346  1.00  0.00     0.163 C 
HETATM   15  O   UNL     1     -42.007 -44.530  10.468  1.00  0.00    -0.648 OA
BRANCH  14  16
HETATM   16  O   UNL     1     -40.089 -45.121   9.530  1.00  0.00    -0.775 OA
HETATM   17  H   UNL     1     -39.193 -44.976   9.875  1.00  0.00     0.167 HD
ENDBRANCH  14  16
ENDBRANCH   2  14
BRANCH   5  18
HETATM   18  O   UNL     1     -43.018 -45.328  12.932  1.00  0.00    -0.394 OA
HETATM   19  H   UNL     1     -42.313 -44.655  12.728  1.00  0.00     0.210 HD
ENDBRANCH   5  18
TORSDOF 4
ENDMDL
MODEL 3
REMARK VINA RESULT:      -5.3      4.719      6.467
REMARK  4 active torsions:
REMARK  status: ('A' for Active; 'I' for Inactive)
REMARK    1  A    between atoms: N_1  and  C_3 
REMARK    2  A    between atoms: C_2  and  C_4 
REMARK    3  A    between atoms: C_4  and  O_15 
REMARK    4  A    between atoms: C_11  and  O_16 
ROOT
HETATM    1  N   UNL     1     -39.819 -50.695  12.843  1.00  0.00    -0.350 N 
HETATM    2  C   UNL     1     -38.612 -49.899  12.585  1.00  0.00     0.186 C 
HETATM    3  C   UNL     1     -39.162 -48.640  11.881  1.00  0.00     0.069 C 
HETATM    4  C   UNL     1     -40.999 -49.955  12.462  1.00  0.00     0.157 C 
HETATM    5  C   UNL     1     -40.514 -49.098  11.313  1.00  0.00     0.138 C 
ENDROOT
BRANCH   1   6
HETATM    6  C   UNL     1     -39.881 -52.049  13.303  1.00  0.00     0.106 A 
HETATM    7  N   UNL     1     -39.042 -52.444  14.307  1.00  0.00    -0.339 N 
HETATM    8  C   UNL     1     -39.069 -53.698  14.817  1.00  0.00     0.181 A 
ATOM      9  HN  UNL     1     -38.374 -51.772  14.685  1.00  0.00     0.168 HD
HETATM   10  N   UNL     1     -39.942 -54.611  14.322  1.00  0.00    -0.362 N 
HETATM   11  C   UNL     1     -40.794 -54.283  13.319  1.00  0.00     0.092 A 
ATOM     12  HN  UNL     1     -39.958 -55.555  14.708  1.00  0.00     0.165 HD
HETATM   13  C   UNL     1     -40.783 -52.995  12.780  1.00  0.00     0.065 A 
ENDBRANCH   1   6
BRANCH   2  14
HETATM   14  C   UNL     1     -37.585 -50.574  11.694  1.00  0.00     0.163 C 
HETATM   15  O   UNL     1     -36.889 -51.489  12.096  1.00  0.00    -0.648 OA
BRANCH  14  16
HETATM   16  O   UNL     1     -37.408 -50.118  10.433  1.00  0.00    -0.775 OA
HETATM   17  H   UNL     1     -36.710 -50.467   9.855  1.00  0.00     0.167 HD
ENDBRANCH  14  16
ENDBRANCH   2  14
BRANCH   5  18
HETATM   18  O   UNL     1     -40.317 -49.897  10.175  1.00  0.00    -0.394 OA
HETATM   19  H   UNL     1     -39.777 -50.683  10.459  1.00  0.00     0.210 HD
ENDBRANCH   5  18
TORSDOF 4
ENDMDL
MODEL 4
REMARK VINA RESULT:      -5.2      5.998      7.361
REMARK  4 active torsions:
REMARK  status: ('A' for Active; 'I' for Inactive)
REMARK    1  A    between atoms: N_1  and  C_3 
REMARK    2  A    between atoms: C_2  and  C_4 
REMARK    3  A    between atoms: C_4  and  O_15 
REMARK    4  A    between atoms: C_11  and  O_16 
ROOT
HETATM    1  N   UNL     1     -44.220 -51.993  14.018  1.00  0.00    -0.350 N 
HETATM    2  C   UNL     1     -45.484 -51.586  13.389  1.00  0.00     0.186 C 
HETATM    3  C   UNL     1     -46.411 -51.325  14.595  1.00  0.00     0.069 C 
HETATM    4  C   UNL     1     -44.312 -51.870  15.453  1.00  0.00     0.157 C 
HETATM    5  C   UNL     1     -45.775 -52.140  15.731  1.00  0.00     0.138 C 
ENDROOT
BRANCH   1   6
HETATM    6  C   UNL     1     -43.068 -52.540  13.369  1.00  0.00     0.106 A 
HETATM    7  N   UNL     1     -42.478 -51.830  12.361  1.00  0.00    -0.339 N 
HETATM    8  C   UNL     1     -41.365 -52.267  11.726  1.00  0.00     0.181 A 
ATOM      9  HN  UNL     1     -42.891 -50.942  12.076  1.00  0.00     0.168 HD
HETATM   10  N   UNL     1     -40.806 -53.453  12.080  1.00  0.00    -0.362 N 
HETATM   11  C   UNL     1     -41.350 -54.208  13.067  1.00  0.00     0.092 A 
ATOM     12  HN  UNL     1     -39.969 -53.779  11.598  1.00  0.00     0.165 HD
HETATM   13  C   UNL     1     -42.497 -53.774  13.734  1.00  0.00     0.065 A 
ENDBRANCH   1   6
BRANCH   2  14
HETATM   14  C   UNL     1     -46.108 -52.633  12.483  1.00  0.00     0.163 C 
HETATM   15  O   UNL     1     -46.753 -52.326  11.497  1.00  0.00    -0.648 OA
BRANCH  14  16
HETATM   16  O   UNL     1     -45.981 -53.940  12.804  1.00  0.00    -0.775 OA
HETATM   17  H   UNL     1     -45.398 -54.536  12.307  1.00  0.00     0.167 HD
ENDBRANCH  14  16
ENDBRANCH   2  14
BRANCH   5  18
HETATM   18  O   UNL     1     -46.047 -53.507  15.560  1.00  0.00    -0.394 OA
HETATM   19  H   UNL     1     -46.937 -53.575  15.117  1.00  0.00     0.210 HD
ENDBRANCH   5  18
TORSDOF 4
ENDMDL
MODEL 5
REMARK VINA RESULT:      -5.2      2.606      4.313
REMARK  4 active torsions:
REMARK  status: ('A' for Active; 'I' for Inactive)
REMARK    1  A    between atoms: N_1  and  C_3 
REMARK    2  A    between atoms: C_2  and  C_4 
REMARK    3  A    between atoms: C_4  and  O_15 
REMARK    4  A    between atoms: C_11  and  O_16 
ROOT
HETATM    1  N   UNL     1     -40.898 -47.560  11.755  1.00  0.00    -0.350 N 
HETATM    2  C   UNL     1     -42.250 -48.134  11.734  1.00  0.00     0.186 C 
HETATM    3  C   UNL     1     -42.000 -49.638  11.976  1.00  0.00     0.069 C 
HETATM    4  C   UNL     1     -39.930 -48.572  12.104  1.00  0.00     0.157 C 
HETATM    5  C   UNL     1     -40.539 -49.841  11.548  1.00  0.00     0.138 C 
ENDROOT
BRANCH   1   6
HETATM    6  C   UNL     1     -40.516 -46.230  11.392  1.00  0.00     0.106 A 
HETATM    7  N   UNL     1     -39.818 -46.037  10.232  1.00  0.00    -0.339 N 
HETATM    8  C   UNL     1     -39.454 -44.804   9.807  1.00  0.00     0.181 A 
ATOM      9  HN  UNL     1     -39.563 -46.848   9.669  1.00  0.00     0.168 HD
HETATM   10  N   UNL     1     -39.773 -43.712  10.546  1.00  0.00    -0.362 N 
HETATM   11  C   UNL     1     -40.456 -43.839  11.711  1.00  0.00     0.092 A 
ATOM     12  HN  UNL     1     -39.496 -42.785  10.223  1.00  0.00     0.165 HD
HETATM   13  C   UNL     1     -40.841 -45.101  12.166  1.00  0.00     0.065 A 
ENDBRANCH   1   6
BRANCH   2  14
HETATM   14  C   UNL     1     -42.998 -47.946  10.426  1.00  0.00     0.163 C 
HETATM   15  O   UNL     1     -44.196 -47.726  10.398  1.00  0.00    -0.648 OA
BRANCH  14  16
HETATM   16  O   UNL     1     -42.325 -48.067   9.260  1.00  0.00    -0.775 OA
HETATM   17  H   UNL     1     -41.847 -47.322   8.863  1.00  0.00     0.167 HD
ENDBRANCH  14  16
ENDBRANCH   2  14
BRANCH   5  18
HETATM   18  O   UNL     1     -40.438 -49.843  10.148  1.00  0.00    -0.394 OA
HETATM   19  H   UNL     1     -39.477 -49.972   9.924  1.00  0.00     0.210 HD
ENDBRANCH   5  18
TORSDOF 4
ENDMDL
MODEL 6
REMARK VINA RESULT:      -5.0      4.834      6.777
REMARK  4 active torsions:
REMARK  status: ('A' for Active; 'I' for Inactive)
REMARK    1  A    between atoms: N_1  and  C_3 
REMARK    2  A    between atoms: C_2  and  C_4 
REMARK    3  A    between atoms: C_4  and  O_15 
REMARK    4  A    between atoms: C_11  and  O_16 
ROOT
HETATM    1  N   UNL     1     -39.623 -51.919  13.699  1.00  0.00    -0.350 N 
HETATM    2  C   UNL     1     -40.953 -52.541  13.753  1.00  0.00     0.186 C 
HETATM    3  C   UNL     1     -40.732 -53.772  14.656  1.00  0.00     0.069 C 
HETATM    4  C   UNL     1     -38.711 -52.611  14.577  1.00  0.00     0.157 C 
HETATM    5  C   UNL     1     -39.222 -54.036  14.556  1.00  0.00     0.138 C 
ENDROOT
BRANCH   1   6
HETATM    6  C   UNL     1     -39.201 -50.851  12.846  1.00  0.00     0.106 A 
HETATM    7  N   UNL     1     -40.062 -49.816  12.606  1.00  0.00    -0.339 N 
HETATM    8  C   UNL     1     -39.719 -48.755  11.839  1.00  0.00     0.181 A 
ATOM      9  HN  UNL     1     -40.994 -49.845  13.019  1.00  0.00     0.168 HD
HETATM   10  N   UNL     1     -38.488 -48.702  11.270  1.00  0.00    -0.362 N 
HETATM   11  C   UNL     1     -37.592 -49.702  11.462  1.00  0.00     0.092 A 
ATOM     12  HN  UNL     1     -38.234 -47.901  10.692  1.00  0.00     0.165 HD
HETATM   13  C   UNL     1     -37.926 -50.804  12.251  1.00  0.00     0.065 A 
ENDBRANCH   1   6
BRANCH   2  14
HETATM   14  C   UNL     1     -41.500 -52.987  12.408  1.00  0.00     0.163 C 
HETATM   15  O   UNL     1     -42.687 -52.919  12.144  1.00  0.00    -0.648 OA
BRANCH  14  16
HETATM   16  O   UNL     1     -40.652 -53.512  11.495  1.00  0.00    -0.775 OA
HETATM   17  H   UNL     1     -39.808 -53.915  11.752  1.00  0.00     0.167 HD
ENDBRANCH  14  16
ENDBRANCH   2  14
BRANCH   5  18
HETATM   18  O   UNL     1     -38.914 -54.632  13.322  1.00  0.00    -0.394 OA
HETATM   19  H   UNL     1     -38.612 -53.905  12.713  1.00  0.00     0.210 HD
ENDBRANCH   5  18
TORSDOF 4
ENDMDL
MODEL 7
REMARK VINA RESULT:      -4.9      2.388      3.683
REMARK  4 active torsions:
REMARK  status: ('A' for Active; 'I' for Inactive)
REMARK    1  A    between atoms: N_1  and  C_3 
REMARK    2  A    between atoms: C_2  and  C_4 
REMARK    3  A    between atoms: C_4  and  O_15 
REMARK    4  A    between atoms: C_11  and  O_16 
ROOT
HETATM    1  N   UNL     1     -42.051 -44.643  11.512  1.00  0.00    -0.350 N 
HETATM    2  C   UNL     1     -40.590 -44.606  11.653  1.00  0.00     0.186 C 
HETATM    3  C   UNL     1     -40.314 -43.154  12.099  1.00  0.00     0.069 C 
HETATM    4  C   UNL     1     -42.629 -43.395  11.949  1.00  0.00     0.157 C 
HETATM    5  C   UNL     1     -41.553 -42.381  11.622  1.00  0.00     0.138 C 
ENDROOT
BRANCH   1   6
HETATM    6  C   UNL     1     -42.839 -45.689  10.935  1.00  0.00     0.106 A 
HETATM    7  N   UNL     1     -43.494 -45.452   9.759  1.00  0.00    -0.339 N 
HETATM    8  C   UNL     1     -44.228 -46.404   9.137  1.00  0.00     0.181 A 
ATOM      9  HN  UNL     1     -43.427 -44.526   9.336  1.00  0.00     0.168 HD
HETATM   10  N   UNL     1     -44.340 -47.639   9.688  1.00  0.00    -0.362 N 
HETATM   11  C   UNL     1     -43.721 -47.934  10.859  1.00  0.00     0.092 A 
ATOM     12  HN  UNL     1     -44.895 -48.353   9.217  1.00  0.00     0.165 HD
HETATM   13  C   UNL     1     -42.959 -46.966  11.515  1.00  0.00     0.065 A 
ENDBRANCH   1   6
BRANCH   2  14
HETATM   14  C   UNL     1     -39.821 -44.901  10.376  1.00  0.00     0.163 C 
HETATM   15  O   UNL     1     -39.589 -44.036   9.552  1.00  0.00    -0.648 OA
BRANCH  14  16
HETATM   16  O   UNL     1     -39.422 -46.169  10.129  1.00  0.00    -0.775 OA
HETATM   17  H   UNL     1     -39.212 -46.474   9.232  1.00  0.00     0.167 HD
ENDBRANCH  14  16
ENDBRANCH   2  14
BRANCH   5  18
HETATM   18  O   UNL     1     -41.496 -42.180  10.234  1.00  0.00    -0.394 OA
HETATM   19  H   UNL     1     -42.430 -42.031   9.921  1.00  0.00     0.210 HD
ENDBRANCH   5  18
TORSDOF 4
ENDMDL
MODEL 8
REMARK VINA RESULT:      -4.9     21.810     23.503
REMARK  4 active torsions:
REMARK  status: ('A' for Active; 'I' for Inactive)
REMARK    1  A    between atoms: N_1  and  C_3 
REMARK    2  A    between atoms: C_2  and  C_4 
REMARK    3  A    between atoms: C_4  and  O_15 
REMARK    4  A    between atoms: C_11  and  O_16 
ROOT
HETATM    1  N   UNL     1     -26.666 -63.184  15.427  1.00  0.00    -0.350 N 
HETATM    2  C   UNL     1     -28.107 -62.953  15.256  1.00  0.00     0.186 C 
HETATM    3  C   UNL     1     -28.329 -61.587  15.940  1.00  0.00     0.069 C 
HETATM    4  C   UNL     1     -26.042 -62.031  16.031  1.00  0.00     0.157 C 
HETATM    5  C   UNL     1     -27.140 -61.459  16.902  1.00  0.00     0.138 C 
ENDROOT
BRANCH   1   6
HETATM    6  C   UNL     1     -25.944 -64.389  15.154  1.00  0.00     0.106 A 
HETATM    7  N   UNL     1     -26.152 -65.028  13.964  1.00  0.00    -0.339 N 
HETATM    8  C   UNL     1     -25.480 -66.152  13.622  1.00  0.00     0.181 A 
ATOM      9  HN  UNL     1     -26.836 -64.645  13.311  1.00  0.00     0.168 HD
HETATM   10  N   UNL     1     -24.573 -66.685  14.480  1.00  0.00    -0.362 N 
HETATM   11  C   UNL     1     -24.330 -66.103  15.681  1.00  0.00     0.092 A 
ATOM     12  HN  UNL     1     -24.070 -67.533  14.219  1.00  0.00     0.165 HD
HETATM   13  C   UNL     1     -25.012 -64.943  16.051  1.00  0.00     0.065 A 
ENDBRANCH   1   6
BRANCH   2  14
HETATM   14  C   UNL     1     -28.999 -63.998  15.902  1.00  0.00     0.163 C 
HETATM   15  O   UNL     1     -28.775 -64.430  17.019  1.00  0.00    -0.648 OA
BRANCH  14  16
HETATM   16  O   UNL     1     -30.043 -64.494  15.203  1.00  0.00    -0.775 OA
HETATM   17  H   UNL     1     -29.921 -64.972  14.367  1.00  0.00     0.167 HD
ENDBRANCH  14  16
ENDBRANCH   2  14
BRANCH   5  18
HETATM   18  O   UNL     1     -27.332 -62.281  18.025  1.00  0.00    -0.394 OA
HETATM   19  H   UNL     1     -26.758 -61.919  18.754  1.00  0.00     0.210 HD
ENDBRANCH   5  18
TORSDOF 4
ENDMDL
MODEL 9
REMARK VINA RESULT:      -4.9      4.781      5.940
REMARK  4 active torsions:
REMARK  status: ('A' for Active; 'I' for Inactive)
REMARK    1  A    between atoms: N_1  and  C_3 
REMARK    2  A    between atoms: C_2  and  C_4 
REMARK    3  A    between atoms: C_4  and  O_15 
REMARK    4  A    between atoms: C_11  and  O_16 
ROOT
HETATM    1  N   UNL     1     -42.248 -51.752  13.342  1.00  0.00    -0.350 N 
HETATM    2  C   UNL     1     -40.894 -52.228  13.658  1.00  0.00     0.186 C 
HETATM    3  C   UNL     1     -39.995 -51.053  13.219  1.00  0.00     0.069 C 
HETATM    4  C   UNL     1     -42.203 -50.384  12.883  1.00  0.00     0.157 C 
HETATM    5  C   UNL     1     -40.855 -50.292  12.200  1.00  0.00     0.138 C 
ENDROOT
BRANCH   1   6
HETATM    6  C   UNL     1     -43.460 -52.512  13.364  1.00  0.00     0.106 A 
HETATM    7  N   UNL     1     -44.519 -52.087  12.611  1.00  0.00    -0.339 N 
HETATM    8  C   UNL     1     -45.685 -52.773  12.554  1.00  0.00     0.181 A 
ATOM      9  HN  UNL     1     -44.429 -51.224  12.074  1.00  0.00     0.168 HD
HETATM   10  N   UNL     1     -45.831 -53.918  13.269  1.00  0.00    -0.362 N 
HETATM   11  C   UNL     1     -44.820 -54.386  14.043  1.00  0.00     0.092 A 
ATOM     12  HN  UNL     1     -46.711 -54.431  13.224  1.00  0.00     0.165 HD
HETATM   13  C   UNL     1     -43.610 -53.693  14.113  1.00  0.00     0.065 A 
ENDBRANCH   1   6
BRANCH   2  14
HETATM   14  C   UNL     1     -40.479 -53.491  12.924  1.00  0.00     0.163 C 
HETATM   15  O   UNL     1     -39.956 -54.426  13.503  1.00  0.00    -0.648 OA
BRANCH  14  16
HETATM   16  O   UNL     1     -40.654 -53.561  11.586  1.00  0.00    -0.775 OA
HETATM   17  H   UNL     1     -39.967 -53.276  10.963  1.00  0.00     0.167 HD
ENDBRANCH  14  16
ENDBRANCH   2  14
BRANCH   5  18
HETATM   18  O   UNL     1     -40.892 -50.985  10.980  1.00  0.00    -0.394 OA
HETATM   19  H   UNL     1     -41.144 -51.926  11.186  1.00  0.00     0.210 HD
ENDBRANCH   5  18
TORSDOF 4
ENDMDL
