MODEL 1
REMARK VINA RESULT:      -7.7      0.000      0.000
REMARK  6 active torsions:
REMARK  status: ('A' for Active; 'I' for Inactive)
REMARK    1  A    between atoms: N_1  and  C_12 
REMARK    2  A    between atoms: N_2  and  C_11 
REMARK    3  A    between atoms: C_7  and  C_10 
REMARK    4  A    between atoms: C_8  and  C_9 
REMARK    5  A    between atoms: C_12  and  C_13 
REMARK       I    between atoms: C_13  and  N_17 
REMARK    6  A    between atoms: C_15  and  N_17 
ROOT
HETATM    1  C   UNL     1     -39.977 -49.611  12.805  1.00  0.00     0.240 C 
HETATM    2  N   UNL     1     -41.124 -48.836  12.651  1.00  0.00    -0.326 N 
HETATM    3  O   UNL     1     -39.060 -49.708  11.989  1.00  0.00    -0.271 OA
HETATM    4  H   UNL     1     -41.890 -49.033  13.291  1.00  0.00     0.169 HD
ENDROOT
BRANCH   1   5
HETATM    5  C   UNL     1     -39.945 -50.427  14.102  1.00  0.00     0.240 C 
BRANCH   5   6
HETATM    6  N   UNL     1     -40.927 -51.496  14.041  1.00  0.00    -0.255 N 
HETATM    7  C   UNL     1     -42.130 -51.273  14.709  1.00  0.00     0.334 C 
HETATM    8  N   UNL     1     -43.126 -52.218  14.498  1.00  0.00    -0.279 N 
HETATM    9  O   UNL     1     -42.295 -50.279  15.420  1.00  0.00    -0.246 OA
HETATM   10  C   UNL     1     -42.848 -53.441  13.913  1.00  0.00     0.146 C 
HETATM   11  C   UNL     1     -41.645 -53.724  13.427  1.00  0.00     0.200 C 
HETATM   12  C   UNL     1     -40.575 -52.699  13.447  1.00  0.00     0.292 C 
HETATM   13  F   UNL     1     -41.346 -54.923  12.894  1.00  0.00    -0.199 F 
HETATM   14  O   UNL     1     -39.460 -52.955  13.001  1.00  0.00    -0.264 OA
BRANCH   8  15
HETATM   15  C   UNL     1     -44.468 -51.888  14.976  1.00  0.00     0.232 C 
HETATM   16  O   UNL     1     -45.206 -53.064  15.340  1.00  0.00    -0.366 OA
HETATM   17  C   UNL     1     -46.594 -52.838  15.067  1.00  0.00     0.170 C 
HETATM   18  C   UNL     1     -46.725 -51.534  14.311  1.00  0.00     0.031 C 
HETATM   19  C   UNL     1     -45.313 -51.203  13.908  1.00  0.00     0.056 C 
ENDBRANCH   8  15
ENDBRANCH   5   6
ENDBRANCH   1   5
BRANCH   2  20
HETATM   20  C   UNL     1     -41.353 -47.840  11.673  1.00  0.00     0.036 A 
HETATM   21  C   UNL     1     -40.539 -46.715  11.541  1.00  0.00     0.045 A 
HETATM   22  C   UNL     1     -40.852 -45.680  10.646  1.00  0.00     0.050 A 
HETATM   23  C   UNL     1     -42.005 -45.783   9.861  1.00  0.00     0.032 A 
HETATM   24  C   UNL     1     -42.855 -46.894   9.986  1.00  0.00     0.050 A 
HETATM   25  C   UNL     1     -42.496 -47.938  10.865  1.00  0.00     0.045 A 
BRANCH  22  26
HETATM   26  C   UNL     1     -39.972 -44.454  10.621  1.00  0.00     0.417 C 
HETATM   27  F   UNL     1     -39.249 -44.330   9.474  1.00  0.00    -0.166 F 
HETATM   28  F   UNL     1     -40.694 -43.305  10.730  1.00  0.00    -0.166 F 
HETATM   29  F   UNL     1     -39.071 -44.433  11.639  1.00  0.00    -0.166 F 
ENDBRANCH  22  26
BRANCH  24  30
HETATM   30  C   UNL     1     -44.188 -46.916   9.269  1.00  0.00     0.417 C 
HETATM   31  F   UNL     1     -45.202 -47.418  10.029  1.00  0.00    -0.166 F 
HETATM   32  F   UNL     1     -44.597 -45.686   8.860  1.00  0.00    -0.166 F 
HETATM   33  F   UNL     1     -44.149 -47.693   8.149  1.00  0.00    -0.166 F 
ENDBRANCH  24  30
ENDBRANCH   2  20
TORSDOF 6
ENDMDL
MODEL 2
REMARK VINA RESULT:      -7.6      0.296      3.112
REMARK  6 active torsions:
REMARK  status: ('A' for Active; 'I' for Inactive)
REMARK    1  A    between atoms: N_1  and  C_12 
REMARK    2  A    between atoms: N_2  and  C_11 
REMARK    3  A    between atoms: C_7  and  C_10 
REMARK    4  A    between atoms: C_8  and  C_9 
REMARK    5  A    between atoms: C_12  and  C_13 
REMARK       I    between atoms: C_13  and  N_17 
REMARK    6  A    between atoms: C_15  and  N_17 
ROOT
HETATM    1  C   UNL     1     -40.253 -49.516  12.737  1.00  0.00     0.240 C 
HETATM    2  N   UNL     1     -41.367 -48.681  12.788  1.00  0.00    -0.326 N 
HETATM    3  O   UNL     1     -39.473 -49.617  11.790  1.00  0.00    -0.271 OA
HETATM    4  H   UNL     1     -42.039 -48.871  13.528  1.00  0.00     0.169 HD
ENDROOT
BRANCH   1   5
HETATM    5  C   UNL     1     -40.074 -50.394  13.981  1.00  0.00     0.240 C 
BRANCH   5   6
HETATM    6  N   UNL     1     -41.046 -51.473  13.971  1.00  0.00    -0.255 N 
HETATM    7  C   UNL     1     -42.208 -51.270  14.714  1.00  0.00     0.334 C 
HETATM    8  N   UNL     1     -43.204 -52.225  14.556  1.00  0.00    -0.279 N 
HETATM    9  O   UNL     1     -42.339 -50.284  15.442  1.00  0.00    -0.246 OA
HETATM   10  C   UNL     1     -42.950 -53.440  13.944  1.00  0.00     0.146 C 
HETATM   11  C   UNL     1     -41.776 -53.705  13.382  1.00  0.00     0.200 C 
HETATM   12  C   UNL     1     -40.718 -52.667  13.345  1.00  0.00     0.292 C 
HETATM   13  F   UNL     1     -41.497 -54.896  12.821  1.00  0.00    -0.199 F 
HETATM   14  O   UNL     1     -39.630 -52.906  12.829  1.00  0.00    -0.264 OA
BRANCH   8  15
HETATM   15  C   UNL     1     -44.518 -51.914  15.119  1.00  0.00     0.232 C 
HETATM   16  O   UNL     1     -45.233 -53.104  15.483  1.00  0.00    -0.366 OA
HETATM   17  C   UNL     1     -46.635 -52.873  15.296  1.00  0.00     0.170 C 
HETATM   18  C   UNL     1     -46.808 -51.544  14.593  1.00  0.00     0.031 C 
HETATM   19  C   UNL     1     -45.422 -51.196  14.124  1.00  0.00     0.056 C 
ENDBRANCH   8  15
ENDBRANCH   5   6
ENDBRANCH   1   5
BRANCH   2  20
HETATM   20  C   UNL     1     -41.684 -47.629  11.897  1.00  0.00     0.036 A 
HETATM   21  C   UNL     1     -42.756 -47.695  11.007  1.00  0.00     0.045 A 
HETATM   22  C   UNL     1     -42.982 -46.693  10.051  1.00  0.00     0.050 A 
HETATM   23  C   UNL     1     -42.116 -45.595   9.995  1.00  0.00     0.032 A 
HETATM   24  C   UNL     1     -41.018 -45.510  10.865  1.00  0.00     0.050 A 
HETATM   25  C   UNL     1     -40.836 -46.513  11.843  1.00  0.00     0.045 A 
BRANCH  22  26
HETATM   26  C   UNL     1     -44.109 -46.877   9.063  1.00  0.00     0.417 C 
HETATM   27  F   UNL     1     -44.792 -45.728   8.801  1.00  0.00    -0.166 F 
HETATM   28  F   UNL     1     -43.662 -47.325   7.858  1.00  0.00    -0.166 F 
HETATM   29  F   UNL     1     -45.035 -47.779   9.484  1.00  0.00    -0.166 F 
ENDBRANCH  22  26
BRANCH  24  30
HETATM   30  C   UNL     1     -39.986 -44.418  10.683  1.00  0.00     0.417 C 
HETATM   31  F   UNL     1     -40.521 -43.163  10.688  1.00  0.00    -0.166 F 
HETATM   32  F   UNL     1     -39.026 -44.421  11.644  1.00  0.00    -0.166 F 
HETATM   33  F   UNL     1     -39.331 -44.531   9.493  1.00  0.00    -0.166 F 
ENDBRANCH  24  30
ENDBRANCH   2  20
TORSDOF 6
ENDMDL
MODEL 3
REMARK VINA RESULT:      -7.6      2.891      7.648
REMARK  6 active torsions:
REMARK  status: ('A' for Active; 'I' for Inactive)
REMARK    1  A    between atoms: N_1  and  C_12 
REMARK    2  A    between atoms: N_2  and  C_11 
REMARK    3  A    between atoms: C_7  and  C_10 
REMARK    4  A    between atoms: C_8  and  C_9 
REMARK    5  A    between atoms: C_12  and  C_13 
REMARK       I    between atoms: C_13  and  N_17 
REMARK    6  A    between atoms: C_15  and  N_17 
ROOT
HETATM    1  C   UNL     1     -40.911 -49.059  12.828  1.00  0.00     0.240 C 
HETATM    2  N   UNL     1     -41.980 -49.808  12.343  1.00  0.00    -0.326 N 
HETATM    3  O   UNL     1     -40.537 -49.015  14.000  1.00  0.00    -0.271 OA
HETATM    4  H   UNL     1     -42.311 -49.569  11.410  1.00  0.00     0.169 HD
ENDROOT
BRANCH   1   5
HETATM    5  C   UNL     1     -40.218 -48.199  11.765  1.00  0.00     0.240 C 
BRANCH   5   6
HETATM    6  N   UNL     1     -41.083 -47.099  11.374  1.00  0.00    -0.255 N 
HETATM    7  C   UNL     1     -41.982 -47.353  10.340  1.00  0.00     0.334 C 
HETATM    8  N   UNL     1     -42.921 -46.360  10.095  1.00  0.00    -0.279 N 
HETATM    9  O   UNL     1     -41.951 -48.411   9.708  1.00  0.00    -0.246 OA
HETATM   10  C   UNL     1     -42.787 -45.091  10.631  1.00  0.00     0.146 C 
HETATM   11  C   UNL     1     -41.819 -44.796  11.491  1.00  0.00     0.200 C 
HETATM   12  C   UNL     1     -40.884 -45.852  11.948  1.00  0.00     0.292 C 
HETATM   13  F   UNL     1     -41.647 -43.558  11.988  1.00  0.00    -0.199 F 
HETATM   14  O   UNL     1     -39.985 -45.585  12.740  1.00  0.00    -0.264 OA
BRANCH   8  15
HETATM   15  C   UNL     1     -44.026 -46.696   9.197  1.00  0.00     0.232 C 
HETATM   16  O   UNL     1     -44.805 -45.539   8.859  1.00  0.00    -0.366 OA
HETATM   17  C   UNL     1     -46.168 -45.941   8.672  1.00  0.00     0.170 C 
HETATM   18  C   UNL     1     -46.301 -47.385   9.104  1.00  0.00     0.031 C 
HETATM   19  C   UNL     1     -45.014 -47.669   9.829  1.00  0.00     0.056 C 
ENDBRANCH   8  15
ENDBRANCH   5   6
ENDBRANCH   1   5
BRANCH   2  20
HETATM   20  C   UNL     1     -42.681 -50.831  13.022  1.00  0.00     0.036 A 
HETATM   21  C   UNL     1     -42.067 -52.011  13.443  1.00  0.00     0.045 A 
HETATM   22  C   UNL     1     -42.803 -53.064  14.008  1.00  0.00     0.050 A 
HETATM   23  C   UNL     1     -44.187 -52.923  14.161  1.00  0.00     0.032 A 
HETATM   24  C   UNL     1     -44.836 -51.756  13.729  1.00  0.00     0.050 A 
HETATM   25  C   UNL     1     -44.066 -50.697  13.200  1.00  0.00     0.045 A 
BRANCH  22  26
HETATM   26  C   UNL     1     -42.084 -54.344  14.358  1.00  0.00     0.417 C 
HETATM   27  F   UNL     1     -42.923 -55.369  14.670  1.00  0.00    -0.166 F 
HETATM   28  F   UNL     1     -41.315 -54.795  13.329  1.00  0.00    -0.166 F 
HETATM   29  F   UNL     1     -41.248 -54.203  15.422  1.00  0.00    -0.166 F 
ENDBRANCH  22  26
BRANCH  24  30
HETATM   30  C   UNL     1     -46.348 -51.681  13.731  1.00  0.00     0.417 C 
HETATM   31  F   UNL     1     -46.850 -50.922  14.746  1.00  0.00    -0.166 F 
HETATM   32  F   UNL     1     -46.861 -51.163  12.585  1.00  0.00    -0.166 F 
HETATM   33  F   UNL     1     -46.917 -52.911  13.878  1.00  0.00    -0.166 F 
ENDBRANCH  24  30
ENDBRANCH   2  20
TORSDOF 6
ENDMDL
MODEL 4
REMARK VINA RESULT:      -7.6      1.586      3.627
REMARK  6 active torsions:
REMARK  status: ('A' for Active; 'I' for Inactive)
REMARK    1  A    between atoms: N_1  and  C_12 
REMARK    2  A    between atoms: N_2  and  C_11 
REMARK    3  A    between atoms: C_7  and  C_10 
REMARK    4  A    between atoms: C_8  and  C_9 
REMARK    5  A    between atoms: C_12  and  C_13 
REMARK       I    between atoms: C_13  and  N_17 
REMARK    6  A    between atoms: C_15  and  N_17 
ROOT
HETATM    1  C   UNL     1     -40.039 -49.821  12.484  1.00  0.00     0.240 C 
HETATM    2  N   UNL     1     -40.404 -49.374  11.217  1.00  0.00    -0.326 N 
HETATM    3  O   UNL     1     -40.005 -49.136  13.506  1.00  0.00    -0.271 OA
HETATM    4  H   UNL     1     -40.165 -49.984  10.437  1.00  0.00     0.169 HD
ENDROOT
BRANCH   1   5
HETATM    5  C   UNL     1     -39.604 -51.290  12.526  1.00  0.00     0.240 C 
BRANCH   5   6
HETATM    6  N   UNL     1     -40.413 -52.021  13.486  1.00  0.00    -0.255 N 
HETATM    7  C   UNL     1     -41.720 -52.315  13.101  1.00  0.00     0.334 C 
HETATM    8  N   UNL     1     -42.425 -53.163  13.946  1.00  0.00    -0.279 N 
HETATM    9  O   UNL     1     -42.198 -51.866  12.058  1.00  0.00    -0.246 OA
HETATM   10  C   UNL     1     -41.973 -53.451  15.221  1.00  0.00     0.146 C 
HETATM   11  C   UNL     1     -40.793 -53.022  15.657  1.00  0.00     0.200 C 
HETATM   12  C   UNL     1     -39.897 -52.266  14.751  1.00  0.00     0.292 C 
HETATM   13  F   UNL     1     -40.358 -53.256  16.908  1.00  0.00    -0.199 F 
HETATM   14  O   UNL     1     -38.807 -51.864  15.148  1.00  0.00    -0.264 OA
BRANCH   8  15
HETATM   15  C   UNL     1     -43.696 -53.689  13.449  1.00  0.00     0.232 C 
HETATM   16  O   UNL     1     -44.783 -52.791  13.718  1.00  0.00    -0.366 OA
HETATM   17  C   UNL     1     -45.972 -53.560  13.936  1.00  0.00     0.170 C 
HETATM   18  C   UNL     1     -45.587 -55.021  14.007  1.00  0.00     0.031 C 
HETATM   19  C   UNL     1     -44.087 -54.998  14.126  1.00  0.00     0.056 C 
ENDBRANCH   8  15
ENDBRANCH   5   6
ENDBRANCH   1   5
BRANCH   2  20
HETATM   20  C   UNL     1     -41.031 -48.148  10.893  1.00  0.00     0.036 A 
HETATM   21  C   UNL     1     -42.307 -48.079  10.335  1.00  0.00     0.045 A 
HETATM   22  C   UNL     1     -42.862 -46.862   9.911  1.00  0.00     0.050 A 
HETATM   23  C   UNL     1     -42.119 -45.685  10.061  1.00  0.00     0.032 A 
HETATM   24  C   UNL     1     -40.825 -45.725  10.602  1.00  0.00     0.050 A 
HETATM   25  C   UNL     1     -40.306 -46.958  11.056  1.00  0.00     0.045 A 
BRANCH  22  26
HETATM   26  C   UNL     1     -44.211 -46.878   9.235  1.00  0.00     0.417 C 
HETATM   27  F   UNL     1     -45.208 -47.360  10.028  1.00  0.00    -0.166 F 
HETATM   28  F   UNL     1     -44.608 -45.631   8.858  1.00  0.00    -0.166 F 
HETATM   29  F   UNL     1     -44.225 -47.637   8.108  1.00  0.00    -0.166 F 
ENDBRANCH  22  26
BRANCH  24  30
HETATM   30  C   UNL     1     -39.960 -44.482  10.597  1.00  0.00     0.417 C 
HETATM   31  F   UNL     1     -39.198 -44.359   9.474  1.00  0.00    -0.166 F 
HETATM   32  F   UNL     1     -40.676 -43.331  10.695  1.00  0.00    -0.166 F 
HETATM   33  F   UNL     1     -39.082 -44.470  11.640  1.00  0.00    -0.166 F 
ENDBRANCH  24  30
ENDBRANCH   2  20
TORSDOF 6
ENDMDL
MODEL 5
REMARK VINA RESULT:      -7.4      2.351      4.759
REMARK  6 active torsions:
REMARK  status: ('A' for Active; 'I' for Inactive)
REMARK    1  A    between atoms: N_1  and  C_12 
REMARK    2  A    between atoms: N_2  and  C_11 
REMARK    3  A    between atoms: C_7  and  C_10 
REMARK    4  A    between atoms: C_8  and  C_9 
REMARK    5  A    between atoms: C_12  and  C_13 
REMARK       I    between atoms: C_13  and  N_17 
REMARK    6  A    between atoms: C_15  and  N_17 
ROOT
HETATM    1  C   UNL     1     -41.474 -50.855  12.121  1.00  0.00     0.240 C 
HETATM    2  N   UNL     1     -41.132 -49.944  11.125  1.00  0.00    -0.326 N 
HETATM    3  O   UNL     1     -41.917 -50.572  13.233  1.00  0.00    -0.271 OA
HETATM    4  H   UNL     1     -40.570 -50.304  10.357  1.00  0.00     0.169 HD
ENDROOT
BRANCH   1   5
HETATM    5  C   UNL     1     -41.200 -52.317  11.749  1.00  0.00     0.240 C 
BRANCH   5   6
HETATM    6  N   UNL     1     -41.439 -53.175  12.896  1.00  0.00    -0.255 N 
HETATM    7  C   UNL     1     -40.318 -53.559  13.629  1.00  0.00     0.334 C 
HETATM    8  N   UNL     1     -40.572 -54.228  14.820  1.00  0.00    -0.279 N 
HETATM    9  O   UNL     1     -39.178 -53.292  13.246  1.00  0.00    -0.246 OA
HETATM   10  C   UNL     1     -41.825 -54.739  15.109  1.00  0.00     0.146 C 
HETATM   11  C   UNL     1     -42.868 -54.518  14.315  1.00  0.00     0.200 C 
HETATM   12  C   UNL     1     -42.721 -53.657  13.118  1.00  0.00     0.292 C 
HETATM   13  F   UNL     1     -44.083 -55.044  14.558  1.00  0.00    -0.199 F 
HETATM   14  O   UNL     1     -43.680 -53.452  12.379  1.00  0.00    -0.264 OA
BRANCH   8  15
HETATM   15  C   UNL     1     -39.441 -54.421  15.728  1.00  0.00     0.232 C 
HETATM   16  O   UNL     1     -38.863 -55.727  15.585  1.00  0.00    -0.366 OA
HETATM   17  C   UNL     1     -38.359 -56.148  16.858  1.00  0.00     0.170 C 
HETATM   18  C   UNL     1     -38.811 -55.152  17.903  1.00  0.00     0.031 C 
HETATM   19  C   UNL     1     -39.850 -54.327  17.194  1.00  0.00     0.056 C 
ENDBRANCH   8  15
ENDBRANCH   5   6
ENDBRANCH   1   5
BRANCH   2  20
HETATM   20  C   UNL     1     -41.445 -48.564  11.089  1.00  0.00     0.036 A 
HETATM   21  C   UNL     1     -42.450 -48.042  10.275  1.00  0.00     0.045 A 
HETATM   22  C   UNL     1     -42.665 -46.659  10.164  1.00  0.00     0.050 A 
HETATM   23  C   UNL     1     -41.855 -45.783  10.895  1.00  0.00     0.032 A 
HETATM   24  C   UNL     1     -40.823 -46.278  11.708  1.00  0.00     0.050 A 
HETATM   25  C   UNL     1     -40.654 -47.675  11.831  1.00  0.00     0.045 A 
BRANCH  22  26
HETATM   26  C   UNL     1     -43.712 -46.165   9.197  1.00  0.00     0.417 C 
HETATM   27  F   UNL     1     -43.956 -44.829   9.299  1.00  0.00    -0.166 F 
HETATM   28  F   UNL     1     -43.351 -46.378   7.901  1.00  0.00    -0.166 F 
HETATM   29  F   UNL     1     -44.913 -46.781   9.362  1.00  0.00    -0.166 F 
ENDBRANCH  22  26
BRANCH  24  30
HETATM   30  C   UNL     1     -39.840 -45.325  12.353  1.00  0.00     0.417 C 
HETATM   31  F   UNL     1     -38.966 -45.940  13.200  1.00  0.00    -0.166 F 
HETATM   32  F   UNL     1     -39.079 -44.648  11.453  1.00  0.00    -0.166 F 
HETATM   33  F   UNL     1     -40.469 -44.376  13.103  1.00  0.00    -0.166 F 
ENDBRANCH  24  30
ENDBRANCH   2  20
TORSDOF 6
ENDMDL
MODEL 6
REMARK VINA RESULT:      -7.3      2.450      4.009
REMARK  6 active torsions:
REMARK  status: ('A' for Active; 'I' for Inactive)
REMARK    1  A    between atoms: N_1  and  C_12 
REMARK    2  A    between atoms: N_2  and  C_11 
REMARK    3  A    between atoms: C_7  and  C_10 
REMARK    4  A    between atoms: C_8  and  C_9 
REMARK    5  A    between atoms: C_12  and  C_13 
REMARK       I    between atoms: C_13  and  N_17 
REMARK    6  A    between atoms: C_15  and  N_17 
ROOT
HETATM    1  C   UNL     1     -41.425 -51.010  12.107  1.00  0.00     0.240 C 
HETATM    2  N   UNL     1     -40.857 -50.159  11.161  1.00  0.00    -0.326 N 
HETATM    3  O   UNL     1     -41.938 -50.662  13.170  1.00  0.00    -0.271 OA
HETATM    4  H   UNL     1     -40.273 -50.599  10.453  1.00  0.00     0.169 HD
ENDROOT
BRANCH   1   5
HETATM    5  C   UNL     1     -41.318 -52.497  11.751  1.00  0.00     0.240 C 
BRANCH   5   6
HETATM    6  N   UNL     1     -41.512 -53.307  12.941  1.00  0.00    -0.255 N 
HETATM    7  C   UNL     1     -40.363 -53.662  13.646  1.00  0.00     0.334 C 
HETATM    8  N   UNL     1     -40.569 -54.281  14.872  1.00  0.00    -0.279 N 
HETATM    9  O   UNL     1     -39.239 -53.410  13.207  1.00  0.00    -0.246 OA
HETATM   10  C   UNL     1     -41.810 -54.779  15.229  1.00  0.00     0.146 C 
HETATM   11  C   UNL     1     -42.883 -54.591  14.468  1.00  0.00     0.200 C 
HETATM   12  C   UNL     1     -42.784 -53.780  13.232  1.00  0.00     0.292 C 
HETATM   13  F   UNL     1     -44.087 -55.106  14.779  1.00  0.00    -0.199 F 
HETATM   14  O   UNL     1     -43.771 -53.605  12.523  1.00  0.00    -0.264 OA
BRANCH   8  15
HETATM   15  C   UNL     1     -39.405 -54.437  15.742  1.00  0.00     0.232 C 
HETATM   16  O   UNL     1     -38.816 -55.740  15.612  1.00  0.00    -0.366 OA
HETATM   17  C   UNL     1     -38.260 -56.121  16.876  1.00  0.00     0.170 C 
HETATM   18  C   UNL     1     -38.687 -55.103  17.911  1.00  0.00     0.031 C 
HETATM   19  C   UNL     1     -39.761 -54.309  17.219  1.00  0.00     0.056 C 
ENDBRANCH   8  15
ENDBRANCH   5   6
ENDBRANCH   1   5
BRANCH   2  20
HETATM   20  C   UNL     1     -40.969 -48.750  11.106  1.00  0.00     0.036 A 
HETATM   21  C   UNL     1     -40.235 -47.905  11.938  1.00  0.00     0.045 A 
HETATM   22  C   UNL     1     -40.447 -46.517  11.951  1.00  0.00     0.050 A 
HETATM   23  C   UNL     1     -41.413 -45.967  11.102  1.00  0.00     0.032 A 
HETATM   24  C   UNL     1     -42.181 -46.795  10.267  1.00  0.00     0.050 A 
HETATM   25  C   UNL     1     -41.920 -48.182  10.246  1.00  0.00     0.045 A 
BRANCH  22  26
HETATM   26  C   UNL     1     -39.678 -45.677  12.942  1.00  0.00     0.417 C 
HETATM   27  F   UNL     1     -40.436 -45.239  13.984  1.00  0.00    -0.166 F 
HETATM   28  F   UNL     1     -38.644 -46.365  13.500  1.00  0.00    -0.166 F 
HETATM   29  F   UNL     1     -39.133 -44.567  12.378  1.00  0.00    -0.166 F 
ENDBRANCH  22  26
BRANCH  24  30
HETATM   30  C   UNL     1     -43.342 -46.219   9.486  1.00  0.00     0.417 C 
HETATM   31  F   UNL     1     -43.172 -46.288   8.135  1.00  0.00    -0.166 F 
HETATM   32  F   UNL     1     -44.525 -46.836   9.748  1.00  0.00    -0.166 F 
HETATM   33  F   UNL     1     -43.536 -44.898   9.763  1.00  0.00    -0.166 F 
ENDBRANCH  24  30
ENDBRANCH   2  20
TORSDOF 6
ENDMDL
MODEL 7
REMARK VINA RESULT:      -7.2      3.083      5.059
REMARK  6 active torsions:
REMARK  status: ('A' for Active; 'I' for Inactive)
REMARK    1  A    between atoms: N_1  and  C_12 
REMARK    2  A    between atoms: N_2  and  C_11 
REMARK    3  A    between atoms: C_7  and  C_10 
REMARK    4  A    between atoms: C_8  and  C_9 
REMARK    5  A    between atoms: C_12  and  C_13 
REMARK       I    between atoms: C_13  and  N_17 
REMARK    6  A    between atoms: C_15  and  N_17 
ROOT
HETATM    1  C   UNL     1     -42.347 -52.594  13.180  1.00  0.00     0.240 C 
HETATM    2  N   UNL     1     -42.338 -51.670  12.138  1.00  0.00    -0.326 N 
HETATM    3  O   UNL     1     -41.488 -52.698  14.056  1.00  0.00    -0.271 OA
HETATM    4  H   UNL     1     -42.982 -51.850  11.370  1.00  0.00     0.169 HD
ENDROOT
BRANCH   1   5
HETATM    5  C   UNL     1     -43.531 -53.566  13.142  1.00  0.00     0.240 C 
BRANCH   5   6
HETATM    6  N   UNL     1     -44.513 -53.194  14.145  1.00  0.00    -0.255 N 
HETATM    7  C   UNL     1     -44.522 -53.949  15.316  1.00  0.00     0.334 C 
HETATM    8  N   UNL     1     -45.338 -53.477  16.337  1.00  0.00    -0.279 N 
HETATM    9  O   UNL     1     -43.824 -54.958  15.435  1.00  0.00    -0.246 OA
HETATM   10  C   UNL     1     -46.295 -52.505  16.105  1.00  0.00     0.146 C 
HETATM   11  C   UNL     1     -46.403 -51.900  14.927  1.00  0.00     0.200 C 
HETATM   12  C   UNL     1     -45.448 -52.216  13.839  1.00  0.00     0.292 C 
HETATM   13  F   UNL     1     -47.355 -50.984  14.671  1.00  0.00    -0.199 F 
HETATM   14  O   UNL     1     -45.544 -51.662  12.747  1.00  0.00    -0.264 OA
BRANCH   8  15
HETATM   15  C   UNL     1     -45.182 -54.096  17.653  1.00  0.00     0.232 C 
HETATM   16  O   UNL     1     -46.194 -55.083  17.898  1.00  0.00    -0.366 OA
HETATM   17  C   UNL     1     -46.491 -55.098  19.300  1.00  0.00     0.170 C 
HETATM   18  C   UNL     1     -45.780 -53.931  19.950  1.00  0.00     0.031 C 
HETATM   19  C   UNL     1     -45.325 -53.089  18.789  1.00  0.00     0.056 C 
ENDBRANCH   8  15
ENDBRANCH   5   6
ENDBRANCH   1   5
BRANCH   2  20
HETATM   20  C   UNL     1     -41.502 -50.536  12.011  1.00  0.00     0.036 A 
HETATM   21  C   UNL     1     -41.987 -49.282  11.639  1.00  0.00     0.045 A 
HETATM   22  C   UNL     1     -41.126 -48.199  11.404  1.00  0.00     0.050 A 
HETATM   23  C   UNL     1     -39.747 -48.379  11.554  1.00  0.00     0.032 A 
HETATM   24  C   UNL     1     -39.227 -49.634  11.909  1.00  0.00     0.050 A 
HETATM   25  C   UNL     1     -40.119 -50.696  12.178  1.00  0.00     0.045 A 
BRANCH  22  26
HETATM   26  C   UNL     1     -41.717 -46.898  10.918  1.00  0.00     0.417 C 
HETATM   27  F   UNL     1     -40.796 -45.904  10.778  1.00  0.00    -0.166 F 
HETATM   28  F   UNL     1     -42.308 -47.029   9.699  1.00  0.00    -0.166 F 
HETATM   29  F   UNL     1     -42.673 -46.411  11.752  1.00  0.00    -0.166 F 
ENDBRANCH  22  26
BRANCH  24  30
HETATM   30  C   UNL     1     -37.732 -49.869  11.896  1.00  0.00     0.417 C 
HETATM   31  F   UNL     1     -37.157 -49.623  10.685  1.00  0.00    -0.166 F 
HETATM   32  F   UNL     1     -37.061 -49.102  12.795  1.00  0.00    -0.166 F 
HETATM   33  F   UNL     1     -37.419 -51.162  12.194  1.00  0.00    -0.166 F 
ENDBRANCH  24  30
ENDBRANCH   2  20
TORSDOF 6
ENDMDL
MODEL 8
REMARK VINA RESULT:      -7.1      2.550      5.490
REMARK  6 active torsions:
REMARK  status: ('A' for Active; 'I' for Inactive)
REMARK    1  A    between atoms: N_1  and  C_12 
REMARK    2  A    between atoms: N_2  and  C_11 
REMARK    3  A    between atoms: C_7  and  C_10 
REMARK    4  A    between atoms: C_8  and  C_9 
REMARK    5  A    between atoms: C_12  and  C_13 
REMARK       I    between atoms: C_13  and  N_17 
REMARK    6  A    between atoms: C_15  and  N_17 
ROOT
HETATM    1  C   UNL     1     -41.221 -50.346  12.199  1.00  0.00     0.240 C 
HETATM    2  N   UNL     1     -40.580 -49.326  11.500  1.00  0.00    -0.326 N 
HETATM    3  O   UNL     1     -42.331 -50.269  12.726  1.00  0.00    -0.271 OA
HETATM    4  H   UNL     1     -39.586 -49.457  11.323  1.00  0.00     0.169 HD
ENDROOT
BRANCH   1   5
HETATM    5  C   UNL     1     -40.394 -51.630  12.326  1.00  0.00     0.240 C 
BRANCH   5   6
HETATM    6  N   UNL     1     -39.742 -51.674  13.624  1.00  0.00    -0.255 N 
HETATM    7  C   UNL     1     -38.524 -51.004  13.729  1.00  0.00     0.334 C 
HETATM    8  N   UNL     1     -37.998 -50.900  15.011  1.00  0.00    -0.279 N 
HETATM    9  O   UNL     1     -37.973 -50.515  12.741  1.00  0.00    -0.246 OA
HETATM   10  C   UNL     1     -38.489 -51.661  16.057  1.00  0.00     0.146 C 
HETATM   11  C   UNL     1     -39.555 -52.441  15.912  1.00  0.00     0.200 C 
HETATM   12  C   UNL     1     -40.287 -52.466  14.624  1.00  0.00     0.292 C 
HETATM   13  F   UNL     1     -40.020 -53.220  16.906  1.00  0.00    -0.199 F 
HETATM   14  O   UNL     1     -41.271 -53.187  14.482  1.00  0.00    -0.264 OA
BRANCH   8  15
HETATM   15  C   UNL     1     -36.862 -49.996  15.192  1.00  0.00     0.232 C 
HETATM   16  O   UNL     1     -36.057 -50.376  16.318  1.00  0.00    -0.366 OA
HETATM   17  C   UNL     1     -35.500 -49.193  16.904  1.00  0.00     0.170 C 
HETATM   18  C   UNL     1     -36.137 -47.989  16.244  1.00  0.00     0.031 C 
HETATM   19  C   UNL     1     -37.299 -48.565  15.481  1.00  0.00     0.056 C 
ENDBRANCH   8  15
ENDBRANCH   5   6
ENDBRANCH   1   5
BRANCH   2  20
HETATM   20  C   UNL     1     -41.150 -48.112  11.050  1.00  0.00     0.036 A 
HETATM   21  C   UNL     1     -42.377 -48.057  10.390  1.00  0.00     0.045 A 
HETATM   22  C   UNL     1     -42.869 -46.860   9.847  1.00  0.00     0.050 A 
HETATM   23  C   UNL     1     -42.113 -45.690   9.979  1.00  0.00     0.032 A 
HETATM   24  C   UNL     1     -40.865 -45.718  10.622  1.00  0.00     0.050 A 
HETATM   25  C   UNL     1     -40.412 -46.927  11.193  1.00  0.00     0.045 A 
BRANCH  22  26
HETATM   26  C   UNL     1     -44.162 -46.895   9.070  1.00  0.00     0.417 C 
HETATM   27  F   UNL     1     -45.198 -47.440   9.766  1.00  0.00    -0.166 F 
HETATM   28  F   UNL     1     -44.574 -45.649   8.708  1.00  0.00    -0.166 F 
HETATM   29  F   UNL     1     -44.064 -47.611   7.918  1.00  0.00    -0.166 F 
ENDBRANCH  22  26
BRANCH  24  30
HETATM   30  C   UNL     1     -39.974 -44.494  10.605  1.00  0.00     0.417 C 
HETATM   31  F   UNL     1     -39.229 -44.383   9.469  1.00  0.00    -0.166 F 
HETATM   32  F   UNL     1     -40.662 -43.328  10.719  1.00  0.00    -0.166 F 
HETATM   33  F   UNL     1     -39.077 -44.505  11.631  1.00  0.00    -0.166 F 
ENDBRANCH  24  30
ENDBRANCH   2  20
TORSDOF 6
ENDMDL
MODEL 9
REMARK VINA RESULT:      -7.1      2.911      4.777
REMARK  6 active torsions:
REMARK  status: ('A' for Active; 'I' for Inactive)
REMARK    1  A    between atoms: N_1  and  C_12 
REMARK    2  A    between atoms: N_2  and  C_11 
REMARK    3  A    between atoms: C_7  and  C_10 
REMARK    4  A    between atoms: C_8  and  C_9 
REMARK    5  A    between atoms: C_12  and  C_13 
REMARK       I    between atoms: C_13  and  N_17 
REMARK    6  A    between atoms: C_15  and  N_17 
ROOT
HETATM    1  C   UNL     1     -43.672 -50.403  13.225  1.00  0.00     0.240 C 
HETATM    2  N   UNL     1     -42.777 -50.568  12.170  1.00  0.00    -0.326 N 
HETATM    3  O   UNL     1     -43.535 -49.626  14.169  1.00  0.00    -0.271 OA
HETATM    4  H   UNL     1     -42.906 -51.397  11.595  1.00  0.00     0.169 HD
ENDROOT
BRANCH   1   5
HETATM    5  C   UNL     1     -44.885 -51.338  13.165  1.00  0.00     0.240 C 
BRANCH   5   6
HETATM    6  N   UNL     1     -44.857 -52.259  14.289  1.00  0.00    -0.255 N 
HETATM    7  C   UNL     1     -43.977 -53.335  14.189  1.00  0.00     0.334 C 
HETATM    8  N   UNL     1     -43.828 -54.105  15.335  1.00  0.00    -0.279 N 
HETATM    9  O   UNL     1     -43.356 -53.561  13.149  1.00  0.00    -0.246 OA
HETATM   10  C   UNL     1     -44.707 -53.997  16.397  1.00  0.00     0.146 C 
HETATM   11  C   UNL     1     -45.666 -53.077  16.418  1.00  0.00     0.200 C 
HETATM   12  C   UNL     1     -45.776 -52.094  15.315  1.00  0.00     0.292 C 
HETATM   13  F   UNL     1     -46.556 -52.986  17.423  1.00  0.00    -0.199 F 
HETATM   14  O   UNL     1     -46.661 -51.243  15.327  1.00  0.00    -0.264 OA
BRANCH   8  15
HETATM   15  C   UNL     1     -42.736 -55.079  15.344  1.00  0.00     0.232 C 
HETATM   16  O   UNL     1     -42.969 -56.129  16.294  1.00  0.00    -0.366 OA
HETATM   17  C   UNL     1     -41.708 -56.566  16.815  1.00  0.00     0.170 C 
HETATM   18  C   UNL     1     -40.636 -55.619  16.323  1.00  0.00     0.031 C 
HETATM   19  C   UNL     1     -41.406 -54.457  15.758  1.00  0.00     0.056 C 
ENDBRANCH   8  15
ENDBRANCH   5   6
ENDBRANCH   1   5
BRANCH   2  20
HETATM   20  C   UNL     1     -41.684 -49.732  11.842  1.00  0.00     0.036 A 
HETATM   21  C   UNL     1     -40.363 -50.072  12.135  1.00  0.00     0.045 A 
HETATM   22  C   UNL     1     -39.305 -49.178  11.910  1.00  0.00     0.050 A 
HETATM   23  C   UNL     1     -39.580 -47.918  11.369  1.00  0.00     0.032 A 
HETATM   24  C   UNL     1     -40.901 -47.540  11.082  1.00  0.00     0.050 A 
HETATM   25  C   UNL     1     -41.942 -48.473  11.282  1.00  0.00     0.045 A 
BRANCH  22  26
HETATM   26  C   UNL     1     -37.914 -49.582  12.334  1.00  0.00     0.417 C 
HETATM   27  F   UNL     1     -37.851 -50.837  12.858  1.00  0.00    -0.166 F 
HETATM   28  F   UNL     1     -37.039 -49.572  11.291  1.00  0.00    -0.166 F 
HETATM   29  F   UNL     1     -37.390 -48.754  13.276  1.00  0.00    -0.166 F 
ENDBRANCH  22  26
BRANCH  24  30
HETATM   30  C   UNL     1     -41.212 -46.118  10.667  1.00  0.00     0.417 C 
HETATM   31  F   UNL     1     -41.645 -45.336  11.697  1.00  0.00    -0.166 F 
HETATM   32  F   UNL     1     -40.146 -45.471  10.127  1.00  0.00    -0.166 F 
HETATM   33  F   UNL     1     -42.200 -46.066   9.729  1.00  0.00    -0.166 F 
ENDBRANCH  24  30
ENDBRANCH   2  20
TORSDOF 6
ENDMDL
