MODEL 1
REMARK VINA RESULT:      -5.3      0.000      0.000
REMARK  6 active torsions:
REMARK  status: ('A' for Active; 'I' for Inactive)
REMARK    1  A    between atoms: O_2  and  C_3 
REMARK    2  A    between atoms: C_3  and  C_4 
REMARK    3  A    between atoms: C_4  and  O_5 
REMARK    4  A    between atoms: O_5  and  C_6 
REMARK    5  A    between atoms: C_9  and  N_10 
REMARK       I    between atoms: N_10  and  C_11 
REMARK    6  A    between atoms: C_11  and  C_13 
ROOT
HETATM    1  C   UNL     1     -41.715 -46.089  10.533  1.00  0.00     0.141 A 
HETATM    2  C   UNL     1     -40.830 -47.066  10.941  1.00  0.00     0.058 A 
HETATM    3  C   UNL     1     -41.339 -48.227  11.515  1.00  0.00     0.035 A 
HETATM    4  C   UNL     1     -42.716 -48.397  11.661  1.00  0.00     0.050 A 
HETATM    5  C   UNL     1     -43.520 -47.362  11.179  1.00  0.00     0.119 A 
HETATM    6  N   UNL     1     -43.056 -46.208  10.625  1.00  0.00    -0.345 N 
ATOM      7  HN  UNL     1     -43.686 -45.476  10.297  1.00  0.00     0.167 HD
ENDROOT
BRANCH   4   8
HETATM    8  N   UNL     1     -43.306 -49.549  12.252  1.00  0.00    -0.326 N 
HETATM    9  C   UNL     1     -43.459 -49.745  13.614  1.00  0.00     0.228 C 
HETATM   10  O   UNL     1     -43.221 -48.892  14.468  1.00  0.00    -0.273 OA
HETATM   11  H   UNL     1     -43.704 -50.230  11.616  1.00  0.00     0.169 HD
BRANCH   9  12
HETATM   12  C   UNL     1     -44.081 -51.058  14.048  1.00  0.00     0.105 C 
HETATM   13  C   UNL     1     -42.937 -52.033  14.328  1.00  0.00     0.139 C 
HETATM   14  N   UNL     1     -43.503 -53.330  14.103  1.00  0.00    -0.356 N 
HETATM   15  C   UNL     1     -42.698 -54.525  14.201  1.00  0.00     0.152 C 
HETATM   16  C   UNL     1     -44.623 -53.263  13.289  1.00  0.00     0.220 C 
HETATM   17  O   UNL     1     -45.224 -54.204  12.798  1.00  0.00    -0.273 OA
HETATM   18  C   UNL     1     -44.943 -51.806  13.038  1.00  0.00     0.118 C 
ENDBRANCH   9  12
ENDBRANCH   4   8
BRANCH   1  19
HETATM   19  O   UNL     1     -41.148 -44.989   9.929  1.00  0.00    -0.334 OA
BRANCH  19  20
HETATM   20  C   UNL     1     -40.214 -44.298  10.758  1.00  0.00     0.203 C 
BRANCH  20  21
HETATM   21  C   UNL     1     -40.961 -43.132  11.405  1.00  0.00     0.193 C 
BRANCH  21  22
HETATM   22  O   UNL     1     -41.908 -42.581  10.492  1.00  0.00    -0.394 OA
HETATM   23  C   UNL     1     -43.195 -42.468  11.087  1.00  0.00     0.201 C 
ENDBRANCH  21  22
ENDBRANCH  20  21
ENDBRANCH  19  20
ENDBRANCH   1  19
TORSDOF 6
ENDMDL
MODEL 2
REMARK VINA RESULT:      -5.3      1.815      2.349
REMARK  6 active torsions:
REMARK  status: ('A' for Active; 'I' for Inactive)
REMARK    1  A    between atoms: O_2  and  C_3 
REMARK    2  A    between atoms: C_3  and  C_4 
REMARK    3  A    between atoms: C_4  and  O_5 
REMARK    4  A    between atoms: O_5  and  C_6 
REMARK    5  A    between atoms: C_9  and  N_10 
REMARK       I    between atoms: N_10  and  C_11 
REMARK    6  A    between atoms: C_11  and  C_13 
ROOT
HETATM    1  C   UNL     1     -40.618 -47.094  11.065  1.00  0.00     0.141 A 
HETATM    2  C   UNL     1     -41.972 -47.341  11.174  1.00  0.00     0.058 A 
HETATM    3  C   UNL     1     -42.393 -48.645  11.420  1.00  0.00     0.035 A 
HETATM    4  C   UNL     1     -41.459 -49.672  11.562  1.00  0.00     0.050 A 
HETATM    5  C   UNL     1     -40.116 -49.303  11.471  1.00  0.00     0.119 A 
HETATM    6  N   UNL     1     -39.670 -48.041  11.220  1.00  0.00    -0.345 N 
ATOM      7  HN  UNL     1     -38.675 -47.824  11.152  1.00  0.00     0.167 HD
ENDROOT
BRANCH   4   8
HETATM    8  N   UNL     1     -41.817 -51.029  11.797  1.00  0.00    -0.326 N 
HETATM    9  C   UNL     1     -42.051 -51.577  13.047  1.00  0.00     0.228 C 
HETATM   10  O   UNL     1     -42.103 -50.927  14.090  1.00  0.00    -0.273 OA
HETATM   11  H   UNL     1     -41.981 -51.602  10.978  1.00  0.00     0.169 HD
BRANCH   9  12
HETATM   12  C   UNL     1     -42.387 -53.055  13.091  1.00  0.00     0.105 C 
HETATM   13  C   UNL     1     -43.908 -53.180  12.999  1.00  0.00     0.139 C 
HETATM   14  N   UNL     1     -44.210 -54.416  13.657  1.00  0.00    -0.356 N 
HETATM   15  C   UNL     1     -45.575 -54.852  13.839  1.00  0.00     0.152 C 
HETATM   16  C   UNL     1     -43.197 -54.793  14.524  1.00  0.00     0.220 C 
HETATM   17  O   UNL     1     -43.232 -55.705  15.333  1.00  0.00    -0.273 OA
HETATM   18  C   UNL     1     -42.045 -53.825  14.361  1.00  0.00     0.118 C 
ENDBRANCH   9  12
ENDBRANCH   4   8
BRANCH   1  19
HETATM   19  O   UNL     1     -40.269 -45.776  10.873  1.00  0.00    -0.334 OA
BRANCH  19  20
HETATM   20  C   UNL     1     -40.485 -44.953  12.018  1.00  0.00     0.203 C 
BRANCH  20  21
HETATM   21  C   UNL     1     -40.944 -43.586  11.513  1.00  0.00     0.193 C 
BRANCH  21  22
HETATM   22  O   UNL     1     -42.071 -43.729  10.650  1.00  0.00    -0.394 OA
HETATM   23  C   UNL     1     -43.099 -42.804  10.983  1.00  0.00     0.201 C 
ENDBRANCH  21  22
ENDBRANCH  20  21
ENDBRANCH  19  20
ENDBRANCH   1  19
TORSDOF 6
ENDMDL
MODEL 3
REMARK VINA RESULT:      -5.2      3.805      4.695
REMARK  6 active torsions:
REMARK  status: ('A' for Active; 'I' for Inactive)
REMARK    1  A    between atoms: O_2  and  C_3 
REMARK    2  A    between atoms: C_3  and  C_4 
REMARK    3  A    between atoms: C_4  and  O_5 
REMARK    4  A    between atoms: O_5  and  C_6 
REMARK    5  A    between atoms: C_9  and  N_10 
REMARK       I    between atoms: N_10  and  C_11 
REMARK    6  A    between atoms: C_11  and  C_13 
ROOT
HETATM    1  C   UNL     1     -41.830 -43.261  11.168  1.00  0.00     0.141 A 
HETATM    2  C   UNL     1     -40.476 -43.441  10.975  1.00  0.00     0.058 A 
HETATM    3  C   UNL     1     -39.982 -44.740  10.896  1.00  0.00     0.035 A 
HETATM    4  C   UNL     1     -40.846 -45.831  10.999  1.00  0.00     0.050 A 
HETATM    5  C   UNL     1     -42.200 -45.533  11.155  1.00  0.00     0.119 A 
HETATM    6  N   UNL     1     -42.716 -44.276  11.249  1.00  0.00    -0.345 N 
ATOM      7  HN  UNL     1     -43.715 -44.111  11.374  1.00  0.00     0.167 HD
ENDROOT
BRANCH   4   8
HETATM    8  N   UNL     1     -40.410 -47.184  10.944  1.00  0.00    -0.326 N 
HETATM    9  C   UNL     1     -39.803 -47.860  11.989  1.00  0.00     0.228 C 
HETATM   10  O   UNL     1     -39.685 -47.412  13.129  1.00  0.00    -0.273 OA
HETATM   11  H   UNL     1     -40.634 -47.697  10.099  1.00  0.00     0.169 HD
BRANCH   9  12
HETATM   12  C   UNL     1     -39.379 -49.291  11.719  1.00  0.00     0.105 C 
HETATM   13  C   UNL     1     -39.835 -50.134  12.910  1.00  0.00     0.139 C 
HETATM   14  N   UNL     1     -38.923 -51.238  12.944  1.00  0.00    -0.356 N 
HETATM   15  C   UNL     1     -38.988 -52.231  13.990  1.00  0.00     0.152 C 
HETATM   16  C   UNL     1     -37.739 -50.941  12.286  1.00  0.00     0.220 C 
HETATM   17  O   UNL     1     -36.722 -51.613  12.278  1.00  0.00    -0.273 OA
HETATM   18  C   UNL     1     -37.886 -49.586  11.629  1.00  0.00     0.118 C 
ENDBRANCH   9  12
ENDBRANCH   4   8
BRANCH   1  19
HETATM   19  O   UNL     1     -42.258 -41.952  11.187  1.00  0.00    -0.334 OA
BRANCH  19  20
HETATM   20  C   UNL     1     -43.502 -41.766  11.861  1.00  0.00     0.203 C 
BRANCH  20  21
HETATM   21  C   UNL     1     -43.180 -41.380  13.305  1.00  0.00     0.193 C 
BRANCH  21  22
HETATM   22  O   UNL     1     -43.777 -42.305  14.210  1.00  0.00    -0.394 OA
HETATM   23  C   UNL     1     -42.804 -43.176  14.777  1.00  0.00     0.201 C 
ENDBRANCH  21  22
ENDBRANCH  20  21
ENDBRANCH  19  20
ENDBRANCH   1  19
TORSDOF 6
ENDMDL
MODEL 4
REMARK VINA RESULT:      -5.2      2.113      8.519
REMARK  6 active torsions:
REMARK  status: ('A' for Active; 'I' for Inactive)
REMARK    1  A    between atoms: O_2  and  C_3 
REMARK    2  A    between atoms: C_3  and  C_4 
REMARK    3  A    between atoms: C_4  and  O_5 
REMARK    4  A    between atoms: O_5  and  C_6 
REMARK    5  A    between atoms: C_9  and  N_10 
REMARK       I    between atoms: N_10  and  C_11 
REMARK    6  A    between atoms: C_11  and  C_13 
ROOT
HETATM    1  C   UNL     1     -43.013 -52.595  12.515  1.00  0.00     0.141 A 
HETATM    2  C   UNL     1     -43.598 -51.504  13.125  1.00  0.00     0.058 A 
HETATM    3  C   UNL     1     -42.971 -50.266  13.018  1.00  0.00     0.035 A 
HETATM    4  C   UNL     1     -41.783 -50.137  12.299  1.00  0.00     0.050 A 
HETATM    5  C   UNL     1     -41.300 -51.297  11.691  1.00  0.00     0.119 A 
HETATM    6  N   UNL     1     -41.880 -52.526  11.786  1.00  0.00    -0.345 N 
ATOM      7  HN  UNL     1     -41.480 -53.347  11.331  1.00  0.00     0.167 HD
ENDROOT
BRANCH   4   8
HETATM    8  N   UNL     1     -41.079 -48.908  12.161  1.00  0.00    -0.326 N 
HETATM    9  C   UNL     1     -41.213 -48.040  11.091  1.00  0.00     0.228 C 
HETATM   10  O   UNL     1     -42.048 -48.164  10.197  1.00  0.00    -0.273 OA
HETATM   11  H   UNL     1     -40.501 -48.627  12.945  1.00  0.00     0.169 HD
BRANCH   9  12
HETATM   12  C   UNL     1     -40.347 -46.795  11.112  1.00  0.00     0.105 C 
HETATM   13  C   UNL     1     -40.346 -46.264  12.546  1.00  0.00     0.139 C 
HETATM   14  N   UNL     1     -40.102 -44.859  12.413  1.00  0.00    -0.356 N 
HETATM   15  C   UNL     1     -40.100 -43.988  13.564  1.00  0.00     0.152 C 
HETATM   16  C   UNL     1     -40.433 -44.402  11.147  1.00  0.00     0.220 C 
HETATM   17  O   UNL     1     -40.484 -43.240  10.781  1.00  0.00    -0.273 OA
HETATM   18  C   UNL     1     -40.806 -45.594  10.292  1.00  0.00     0.118 C 
ENDBRANCH   9  12
ENDBRANCH   4   8
BRANCH   1  19
HETATM   19  O   UNL     1     -43.710 -53.777  12.618  1.00  0.00    -0.334 OA
BRANCH  19  20
HETATM   20  C   UNL     1     -44.240 -54.020  13.921  1.00  0.00     0.203 C 
BRANCH  20  21
HETATM   21  C   UNL     1     -45.369 -55.038  13.768  1.00  0.00     0.193 C 
BRANCH  21  22
HETATM   22  O   UNL     1     -46.309 -54.898  14.832  1.00  0.00    -0.394 OA
HETATM   23  C   UNL     1     -45.891 -53.908  15.765  1.00  0.00     0.201 C 
ENDBRANCH  21  22
ENDBRANCH  20  21
ENDBRANCH  19  20
ENDBRANCH   1  19
TORSDOF 6
ENDMDL
MODEL 5
REMARK VINA RESULT:      -5.2      1.739      2.148
REMARK  6 active torsions:
REMARK  status: ('A' for Active; 'I' for Inactive)
REMARK    1  A    between atoms: O_2  and  C_3 
REMARK    2  A    between atoms: C_3  and  C_4 
REMARK    3  A    between atoms: C_4  and  O_5 
REMARK    4  A    between atoms: O_5  and  C_6 
REMARK    5  A    between atoms: C_9  and  N_10 
REMARK       I    between atoms: N_10  and  C_11 
REMARK    6  A    between atoms: C_11  and  C_13 
ROOT
HETATM    1  C   UNL     1     -41.002 -46.170  10.520  1.00  0.00     0.141 A 
HETATM    2  C   UNL     1     -40.100 -46.751  11.388  1.00  0.00     0.058 A 
HETATM    3  C   UNL     1     -40.219 -48.111  11.660  1.00  0.00     0.035 A 
HETATM    4  C   UNL     1     -41.224 -48.865  11.055  1.00  0.00     0.050 A 
HETATM    5  C   UNL     1     -42.057 -48.184  10.166  1.00  0.00     0.119 A 
HETATM    6  N   UNL     1     -41.977 -46.854   9.886  1.00  0.00    -0.345 N 
ATOM      7  HN  UNL     1     -42.618 -46.400   9.235  1.00  0.00     0.167 HD
ENDROOT
BRANCH   4   8
HETATM    8  N   UNL     1     -41.416 -50.254  11.298  1.00  0.00    -0.326 N 
HETATM    9  C   UNL     1     -42.090 -50.778  12.387  1.00  0.00     0.228 C 
HETATM   10  O   UNL     1     -42.713 -50.104  13.207  1.00  0.00    -0.273 OA
HETATM   11  H   UNL     1     -41.096 -50.888  10.575  1.00  0.00     0.169 HD
BRANCH   9  12
HETATM   12  C   UNL     1     -42.156 -52.290  12.486  1.00  0.00     0.105 C 
HETATM   13  C   UNL     1     -43.633 -52.680  12.525  1.00  0.00     0.139 C 
HETATM   14  N   UNL     1     -43.660 -53.928  13.228  1.00  0.00    -0.356 N 
HETATM   15  C   UNL     1     -44.907 -54.589  13.532  1.00  0.00     0.152 C 
HETATM   16  C   UNL     1     -42.529 -54.096  14.012  1.00  0.00     0.220 C 
HETATM   17  O   UNL     1     -42.337 -54.974  14.837  1.00  0.00    -0.273 OA
HETATM   18  C   UNL     1     -41.583 -52.948  13.735  1.00  0.00     0.118 C 
ENDBRANCH   9  12
ENDBRANCH   4   8
BRANCH   1  19
HETATM   19  O   UNL     1     -40.797 -44.834  10.257  1.00  0.00    -0.334 OA
BRANCH  19  20
HETATM   20  C   UNL     1     -40.075 -44.152  11.282  1.00  0.00     0.203 C 
BRANCH  20  21
HETATM   21  C   UNL     1     -40.933 -42.968  11.728  1.00  0.00     0.193 C 
BRANCH  21  22
HETATM   22  O   UNL     1     -40.105 -41.865  12.089  1.00  0.00    -0.394 OA
HETATM   23  C   UNL     1     -40.175 -41.600  13.485  1.00  0.00     0.201 C 
ENDBRANCH  21  22
ENDBRANCH  20  21
ENDBRANCH  19  20
ENDBRANCH   1  19
TORSDOF 6
ENDMDL
MODEL 6
REMARK VINA RESULT:      -5.2      3.323      8.446
REMARK  6 active torsions:
REMARK  status: ('A' for Active; 'I' for Inactive)
REMARK    1  A    between atoms: O_2  and  C_3 
REMARK    2  A    between atoms: C_3  and  C_4 
REMARK    3  A    between atoms: C_4  and  O_5 
REMARK    4  A    between atoms: O_5  and  C_6 
REMARK    5  A    between atoms: C_9  and  N_10 
REMARK       I    between atoms: N_10  and  C_11 
REMARK    6  A    between atoms: C_11  and  C_13 
ROOT
HETATM    1  C   UNL     1     -40.873 -53.450  13.374  1.00  0.00     0.141 A 
HETATM    2  C   UNL     1     -41.375 -52.550  14.292  1.00  0.00     0.058 A 
HETATM    3  C   UNL     1     -41.902 -51.349  13.827  1.00  0.00     0.035 A 
HETATM    4  C   UNL     1     -41.929 -51.073  12.459  1.00  0.00     0.050 A 
HETATM    5  C   UNL     1     -41.430 -52.069  11.619  1.00  0.00     0.119 A 
HETATM    6  N   UNL     1     -40.896 -53.249  12.040  1.00  0.00    -0.345 N 
ATOM      7  HN  UNL     1     -40.534 -53.942  11.384  1.00  0.00     0.167 HD
ENDROOT
BRANCH   4   8
HETATM    8  N   UNL     1     -42.437 -49.861  11.914  1.00  0.00    -0.326 N 
HETATM    9  C   UNL     1     -41.836 -48.621  12.053  1.00  0.00     0.228 C 
HETATM   10  O   UNL     1     -40.727 -48.440  12.555  1.00  0.00    -0.273 OA
HETATM   11  H   UNL     1     -43.256 -49.940  11.322  1.00  0.00     0.169 HD
BRANCH   9  12
HETATM   12  C   UNL     1     -42.554 -47.442  11.426  1.00  0.00     0.105 C 
HETATM   13  C   UNL     1     -43.903 -47.949  10.915  1.00  0.00     0.139 C 
HETATM   14  N   UNL     1     -44.238 -47.066   9.838  1.00  0.00    -0.356 N 
HETATM   15  C   UNL     1     -45.428 -47.269   9.046  1.00  0.00     0.152 C 
HETATM   16  C   UNL     1     -43.114 -46.435   9.327  1.00  0.00     0.220 C 
HETATM   17  O   UNL     1     -43.056 -45.753   8.318  1.00  0.00    -0.273 OA
HETATM   18  C   UNL     1     -41.928 -46.800  10.194  1.00  0.00     0.118 C 
ENDBRANCH   9  12
ENDBRANCH   4   8
BRANCH   1  19
HETATM   19  O   UNL     1     -40.414 -54.638  13.897  1.00  0.00    -0.334 OA
BRANCH  19  20
HETATM   20  C   UNL     1     -39.020 -54.628  14.204  1.00  0.00     0.203 C 
BRANCH  20  21
HETATM   21  C   UNL     1     -38.880 -54.978  15.685  1.00  0.00     0.193 C 
BRANCH  21  22
HETATM   22  O   UNL     1     -37.936 -56.032  15.858  1.00  0.00    -0.394 OA
HETATM   23  C   UNL     1     -37.254 -55.918  17.101  1.00  0.00     0.201 C 
ENDBRANCH  21  22
ENDBRANCH  20  21
ENDBRANCH  19  20
ENDBRANCH   1  19
TORSDOF 6
ENDMDL
MODEL 7
REMARK VINA RESULT:      -4.7      2.994      3.916
REMARK  6 active torsions:
REMARK  status: ('A' for Active; 'I' for Inactive)
REMARK    1  A    between atoms: O_2  and  C_3 
REMARK    2  A    between atoms: C_3  and  C_4 
REMARK    3  A    between atoms: C_4  and  O_5 
REMARK    4  A    between atoms: O_5  and  C_6 
REMARK    5  A    between atoms: C_9  and  N_10 
REMARK       I    between atoms: N_10  and  C_11 
REMARK    6  A    between atoms: C_11  and  C_13 
ROOT
HETATM    1  C   UNL     1     -41.181 -48.238  11.280  1.00  0.00     0.141 A 
HETATM    2  C   UNL     1     -41.466 -48.359  12.624  1.00  0.00     0.058 A 
HETATM    3  C   UNL     1     -41.227 -49.580  13.248  1.00  0.00     0.035 A 
HETATM    4  C   UNL     1     -40.701 -50.650  12.525  1.00  0.00     0.050 A 
HETATM    5  C   UNL     1     -40.414 -50.406  11.180  1.00  0.00     0.119 A 
HETATM    6  N   UNL     1     -40.647 -49.229  10.536  1.00  0.00    -0.345 N 
ATOM      7  HN  UNL     1     -40.429 -49.104   9.547  1.00  0.00     0.167 HD
ENDROOT
BRANCH   4   8
HETATM    8  N   UNL     1     -40.446 -51.931  13.092  1.00  0.00    -0.326 N 
HETATM    9  C   UNL     1     -41.375 -52.953  13.176  1.00  0.00     0.228 C 
HETATM   10  O   UNL     1     -42.490 -52.922  12.657  1.00  0.00    -0.273 OA
HETATM   11  H   UNL     1     -39.493 -52.116  13.381  1.00  0.00     0.169 HD
BRANCH   9  12
HETATM   12  C   UNL     1     -40.920 -54.234  13.849  1.00  0.00     0.105 C 
HETATM   13  C   UNL     1     -41.329 -54.146  15.320  1.00  0.00     0.139 C 
HETATM   14  N   UNL     1     -40.388 -54.978  16.009  1.00  0.00    -0.356 N 
HETATM   15  C   UNL     1     -40.407 -55.096  17.448  1.00  0.00     0.152 C 
HETATM   16  C   UNL     1     -39.227 -55.152  15.272  1.00  0.00     0.220 C 
HETATM   17  O   UNL     1     -38.193 -55.673  15.654  1.00  0.00    -0.273 OA
HETATM   18  C   UNL     1     -39.422 -54.509  13.916  1.00  0.00     0.118 C 
ENDBRANCH   9  12
ENDBRANCH   4   8
BRANCH   1  19
HETATM   19  O   UNL     1     -41.394 -46.990  10.738  1.00  0.00    -0.334 OA
BRANCH  19  20
HETATM   20  C   UNL     1     -40.318 -46.079  10.958  1.00  0.00     0.203 C 
BRANCH  20  21
HETATM   21  C   UNL     1     -40.899 -44.854  11.663  1.00  0.00     0.193 C 
BRANCH  21  22
HETATM   22  O   UNL     1     -41.162 -43.818  10.720  1.00  0.00    -0.394 OA
HETATM   23  C   UNL     1     -40.902 -42.534  11.275  1.00  0.00     0.201 C 
ENDBRANCH  21  22
ENDBRANCH  20  21
ENDBRANCH  19  20
ENDBRANCH   1  19
TORSDOF 6
ENDMDL
MODEL 8
REMARK VINA RESULT:      -4.7      2.588      8.483
REMARK  6 active torsions:
REMARK  status: ('A' for Active; 'I' for Inactive)
REMARK    1  A    between atoms: O_2  and  C_3 
REMARK    2  A    between atoms: C_3  and  C_4 
REMARK    3  A    between atoms: C_4  and  O_5 
REMARK    4  A    between atoms: O_5  and  C_6 
REMARK    5  A    between atoms: C_9  and  N_10 
REMARK       I    between atoms: N_10  and  C_11 
REMARK    6  A    between atoms: C_11  and  C_13 
ROOT
HETATM    1  C   UNL     1     -41.672 -51.624  12.145  1.00  0.00     0.141 A 
HETATM    2  C   UNL     1     -42.568 -50.660  12.560  1.00  0.00     0.058 A 
HETATM    3  C   UNL     1     -42.327 -49.334  12.215  1.00  0.00     0.035 A 
HETATM    4  C   UNL     1     -41.206 -48.995  11.456  1.00  0.00     0.050 A 
HETATM    5  C   UNL     1     -40.387 -50.053  11.059  1.00  0.00     0.119 A 
HETATM    6  N   UNL     1     -40.586 -51.360  11.388  1.00  0.00    -0.345 N 
ATOM      7  HN  UNL     1     -39.951 -52.096  11.081  1.00  0.00     0.167 HD
ENDROOT
BRANCH   4   8
HETATM    8  N   UNL     1     -40.888 -47.660  11.081  1.00  0.00    -0.326 N 
HETATM    9  C   UNL     1     -40.056 -46.817  11.797  1.00  0.00     0.228 C 
HETATM   10  O   UNL     1     -39.392 -47.163  12.774  1.00  0.00    -0.273 OA
HETATM   11  H   UNL     1     -41.242 -47.346  10.185  1.00  0.00     0.169 HD
BRANCH   9  12
HETATM   12  C   UNL     1     -39.870 -45.416  11.249  1.00  0.00     0.105 C 
HETATM   13  C   UNL     1     -39.502 -44.511  12.425  1.00  0.00     0.139 C 
HETATM   14  N   UNL     1     -39.950 -43.208  12.034  1.00  0.00    -0.356 N 
HETATM   15  C   UNL     1     -39.841 -42.079  12.929  1.00  0.00     0.152 C 
HETATM   16  C   UNL     1     -40.930 -43.278  11.056  1.00  0.00     0.220 C 
HETATM   17  O   UNL     1     -41.609 -42.355  10.638  1.00  0.00    -0.273 OA
HETATM   18  C   UNL     1     -41.082 -44.723  10.637  1.00  0.00     0.118 C 
ENDBRANCH   9  12
ENDBRANCH   4   8
BRANCH   1  19
HETATM   19  O   UNL     1     -41.997 -52.920  12.478  1.00  0.00    -0.334 OA
BRANCH  19  20
HETATM   20  C   UNL     1     -42.436 -53.072  13.827  1.00  0.00     0.203 C 
BRANCH  20  21
HETATM   21  C   UNL     1     -41.282 -53.696  14.610  1.00  0.00     0.193 C 
BRANCH  21  22
HETATM   22  O   UNL     1     -40.043 -53.448  13.949  1.00  0.00    -0.394 OA
HETATM   23  C   UNL     1     -39.187 -54.583  14.013  1.00  0.00     0.201 C 
ENDBRANCH  21  22
ENDBRANCH  20  21
ENDBRANCH  19  20
ENDBRANCH   1  19
TORSDOF 6
ENDMDL
MODEL 9
REMARK VINA RESULT:      -4.7      5.109      6.463
REMARK  6 active torsions:
REMARK  status: ('A' for Active; 'I' for Inactive)
REMARK    1  A    between atoms: O_2  and  C_3 
REMARK    2  A    between atoms: C_3  and  C_4 
REMARK    3  A    between atoms: C_4  and  O_5 
REMARK    4  A    between atoms: O_5  and  C_6 
REMARK    5  A    between atoms: C_9  and  N_10 
REMARK       I    between atoms: N_10  and  C_11 
REMARK    6  A    between atoms: C_11  and  C_13 
ROOT
HETATM    1  C   UNL     1     -37.888 -49.418  15.104  1.00  0.00     0.141 A 
HETATM    2  C   UNL     1     -37.743 -50.694  15.610  1.00  0.00     0.058 A 
HETATM    3  C   UNL     1     -38.749 -51.625  15.367  1.00  0.00     0.035 A 
HETATM    4  C   UNL     1     -39.871 -51.271  14.618  1.00  0.00     0.050 A 
HETATM    5  C   UNL     1     -39.896 -49.966  14.123  1.00  0.00     0.119 A 
HETATM    6  N   UNL     1     -38.937 -49.027  14.351  1.00  0.00    -0.345 N 
ATOM      7  HN  UNL     1     -39.008 -48.081  13.975  1.00  0.00     0.167 HD
ENDROOT
BRANCH   4   8
HETATM    8  N   UNL     1     -40.944 -52.164  14.344  1.00  0.00    -0.326 N 
HETATM    9  C   UNL     1     -41.012 -52.998  13.241  1.00  0.00     0.228 C 
HETATM   10  O   UNL     1     -40.097 -53.160  12.435  1.00  0.00    -0.273 OA
HETATM   11  H   UNL     1     -41.664 -52.238  15.054  1.00  0.00     0.169 HD
BRANCH   9  12
HETATM   12  C   UNL     1     -42.259 -53.852  13.109  1.00  0.00     0.105 C 
HETATM   13  C   UNL     1     -43.390 -52.937  12.640  1.00  0.00     0.139 C 
HETATM   14  N   UNL     1     -44.585 -53.561  13.126  1.00  0.00    -0.356 N 
HETATM   15  C   UNL     1     -45.879 -52.946  12.940  1.00  0.00     0.152 C 
HETATM   16  C   UNL     1     -44.321 -54.410  14.189  1.00  0.00     0.220 C 
HETATM   17  O   UNL     1     -45.143 -54.957  14.906  1.00  0.00    -0.273 OA
HETATM   18  C   UNL     1     -42.822 -54.491  14.373  1.00  0.00     0.118 C 
ENDBRANCH   9  12
ENDBRANCH   4   8
BRANCH   1  19
HETATM   19  O   UNL     1     -36.834 -48.563  15.338  1.00  0.00    -0.334 OA
BRANCH  19  20
HETATM   20  C   UNL     1     -35.863 -49.085  16.243  1.00  0.00     0.203 C 
BRANCH  20  21
HETATM   21  C   UNL     1     -35.506 -47.965  17.220  1.00  0.00     0.193 C 
BRANCH  21  22
HETATM   22  O   UNL     1     -34.703 -48.473  18.284  1.00  0.00    -0.394 OA
HETATM   23  C   UNL     1     -35.231 -49.691  18.796  1.00  0.00     0.201 C 
ENDBRANCH  21  22
ENDBRANCH  20  21
ENDBRANCH  19  20
ENDBRANCH   1  19
TORSDOF 6
ENDMDL
