MODEL 1
REMARK VINA RESULT:      -6.1      0.000      0.000
REMARK  5 active torsions:
REMARK  status: ('A' for Active; 'I' for Inactive)
REMARK    1  A    between atoms: C_2  and  C_3 
REMARK    2  A    between atoms: C_2  and  N_15 
REMARK       I    between atoms: C_3  and  N_5 
REMARK    3  A    between atoms: N_5  and  C_6 
REMARK    4  A    between atoms: C_6  and  C_7 
REMARK    5  A    between atoms: C_7  and  N_8 
ROOT
HETATM    1  C   UNL     1     -41.664 -48.843  11.242  1.00  0.00     0.242 C 
HETATM    2  O   UNL     1     -40.442 -48.987  11.156  1.00  0.00    -0.271 OA
HETATM    3  N   UNL     1     -42.482 -49.825  11.768  1.00  0.00    -0.358 N 
HETATM    4  H   UNL     1     -43.450 -49.578  11.984  1.00  0.00     0.162 HD
ENDROOT
BRANCH   1   5
HETATM    5  C   UNL     1     -42.292 -47.519  10.838  1.00  0.00     0.196 C 
HETATM    6  C   UNL     1     -43.050 -46.901  12.011  1.00  0.00     0.044 C 
BRANCH   5   7
HETATM    7  N   UNL     1     -43.108 -47.624   9.644  1.00  0.00    -0.273 N 
HETATM    8  C   UNL     1     -44.442 -47.367   9.531  1.00  0.00     0.202 A 
HETATM    9  N   UNL     1     -44.832 -47.609   8.301  1.00  0.00    -0.346 N 
HETATM   10  C   UNL     1     -43.683 -48.018   7.686  1.00  0.00     0.198 A 
ATOM     11  HN  UNL     1     -45.766 -47.515   7.902  1.00  0.00     0.167 HD
HETATM   12  N   UNL     1     -42.595 -48.033   8.462  1.00  0.00    -0.292 N 
ATOM     13  HN  UNL     1     -41.635 -48.286   8.226  1.00  0.00     0.188 HD
ENDBRANCH   5   7
ENDBRANCH   1   5
BRANCH   3  14
HETATM   14  C   UNL     1     -41.894 -51.016  12.357  1.00  0.00     0.152 C 
BRANCH  14  15
HETATM   15  C   UNL     1     -42.858 -52.213  12.519  1.00  0.00     0.292 C 
BRANCH  15  16
HETATM   16  N   UNL     1     -43.490 -52.255  13.860  1.00  0.00     0.094 N 
HETATM   17  C   UNL     1     -42.832 -53.207  14.778  1.00  0.00     0.273 C 
HETATM   18  C   UNL     1     -43.052 -54.671  14.393  1.00  0.00     0.030 C 
HETATM   19  C   UNL     1     -44.539 -54.997  14.304  1.00  0.00     0.004 C 
HETATM   20  C   UNL     1     -45.305 -53.966  13.477  1.00  0.00     0.035 C 
HETATM   21  C   UNL     1     -44.947 -52.522  13.872  1.00  0.00     0.219 C 
HETATM   22  C   UNL     1     -45.771 -51.511  13.068  1.00  0.00     0.043 C 
ENDBRANCH  15  16
ENDBRANCH  14  15
ENDBRANCH   3  14
TORSDOF 5
ENDMDL
MODEL 2
REMARK VINA RESULT:      -6.0      1.030      2.034
REMARK  5 active torsions:
REMARK  status: ('A' for Active; 'I' for Inactive)
REMARK    1  A    between atoms: C_2  and  C_3 
REMARK    2  A    between atoms: C_2  and  N_15 
REMARK       I    between atoms: C_3  and  N_5 
REMARK    3  A    between atoms: N_5  and  C_6 
REMARK    4  A    between atoms: C_6  and  C_7 
REMARK    5  A    between atoms: C_7  and  N_8 
ROOT
HETATM    1  C   UNL     1     -41.986 -49.056  11.477  1.00  0.00     0.242 C 
HETATM    2  O   UNL     1     -40.922 -49.592  11.157  1.00  0.00    -0.271 OA
HETATM    3  N   UNL     1     -42.917 -49.696  12.273  1.00  0.00    -0.358 N 
HETATM    4  H   UNL     1     -43.686 -49.140  12.654  1.00  0.00     0.162 HD
ENDROOT
BRANCH   1   5
HETATM    5  C   UNL     1     -42.260 -47.621  11.057  1.00  0.00     0.196 C 
HETATM    6  C   UNL     1     -42.930 -46.846  12.189  1.00  0.00     0.044 C 
BRANCH   5   7
HETATM    7  N   UNL     1     -42.994 -47.529   9.810  1.00  0.00    -0.273 N 
HETATM    8  C   UNL     1     -44.115 -46.794   9.565  1.00  0.00     0.202 A 
HETATM    9  N   UNL     1     -44.509 -46.994   8.329  1.00  0.00    -0.346 N 
HETATM   10  C   UNL     1     -43.582 -47.874   7.847  1.00  0.00     0.198 A 
ATOM     11  HN  UNL     1     -45.312 -46.591   7.846  1.00  0.00     0.167 HD
HETATM   12  N   UNL     1     -42.625 -48.224   8.710  1.00  0.00    -0.292 N 
ATOM     13  HN  UNL     1     -41.829 -48.848   8.577  1.00  0.00     0.188 HD
ENDBRANCH   5   7
ENDBRANCH   1   5
BRANCH   3  14
HETATM   14  C   UNL     1     -42.599 -50.984  12.866  1.00  0.00     0.152 C 
BRANCH  14  15
HETATM   15  C   UNL     1     -43.647 -51.526  13.863  1.00  0.00     0.292 C 
BRANCH  15  16
HETATM   16  N   UNL     1     -44.681 -52.360  13.203  1.00  0.00     0.094 N 
HETATM   17  C   UNL     1     -45.957 -51.643  13.000  1.00  0.00     0.273 C 
HETATM   18  C   UNL     1     -46.709 -51.364  14.302  1.00  0.00     0.030 C 
HETATM   19  C   UNL     1     -46.968 -52.654  15.073  1.00  0.00     0.004 C 
HETATM   20  C   UNL     1     -45.710 -53.512  15.198  1.00  0.00     0.035 C 
HETATM   21  C   UNL     1     -44.969 -53.657  13.856  1.00  0.00     0.219 C 
HETATM   22  C   UNL     1     -43.746 -54.568  13.999  1.00  0.00     0.043 C 
ENDBRANCH  15  16
ENDBRANCH  14  15
ENDBRANCH   3  14
TORSDOF 5
ENDMDL
MODEL 3
REMARK VINA RESULT:      -5.9      1.157      2.159
REMARK  5 active torsions:
REMARK  status: ('A' for Active; 'I' for Inactive)
REMARK    1  A    between atoms: C_2  and  C_3 
REMARK    2  A    between atoms: C_2  and  N_15 
REMARK       I    between atoms: C_3  and  N_5 
REMARK    3  A    between atoms: N_5  and  C_6 
REMARK    4  A    between atoms: C_6  and  C_7 
REMARK    5  A    between atoms: C_7  and  N_8 
ROOT
HETATM    1  C   UNL     1     -41.706 -48.576  11.197  1.00  0.00     0.242 C 
HETATM    2  O   UNL     1     -40.479 -48.555  11.078  1.00  0.00    -0.271 OA
HETATM    3  N   UNL     1     -42.377 -49.689  11.668  1.00  0.00    -0.358 N 
HETATM    4  H   UNL     1     -43.363 -49.584  11.920  1.00  0.00     0.162 HD
ENDROOT
BRANCH   1   5
HETATM    5  C   UNL     1     -42.510 -47.321  10.897  1.00  0.00     0.196 C 
HETATM    6  C   UNL     1     -43.082 -46.727  12.182  1.00  0.00     0.044 C 
BRANCH   5   7
HETATM    7  N   UNL     1     -43.525 -47.531   9.883  1.00  0.00    -0.273 N 
HETATM    8  C   UNL     1     -43.333 -47.679   8.542  1.00  0.00     0.202 A 
HETATM    9  N   UNL     1     -44.494 -47.813   7.945  1.00  0.00    -0.346 N 
HETATM   10  C   UNL     1     -45.385 -47.740   8.978  1.00  0.00     0.198 A 
ATOM     11  HN  UNL     1     -44.686 -47.940   6.951  1.00  0.00     0.167 HD
HETATM   12  N   UNL     1     -44.842 -47.580  10.189  1.00  0.00    -0.292 N 
ATOM     13  HN  UNL     1     -45.297 -47.512  11.099  1.00  0.00     0.188 HD
ENDBRANCH   5   7
ENDBRANCH   1   5
BRANCH   3  14
HETATM   14  C   UNL     1     -41.626 -50.830  12.163  1.00  0.00     0.152 C 
BRANCH  14  15
HETATM   15  C   UNL     1     -42.403 -51.764  13.118  1.00  0.00     0.292 C 
BRANCH  15  16
HETATM   16  N   UNL     1     -42.628 -53.110  12.537  1.00  0.00     0.094 N 
HETATM   17  C   UNL     1     -44.061 -53.432  12.368  1.00  0.00     0.273 C 
HETATM   18  C   UNL     1     -44.793 -53.648  13.693  1.00  0.00     0.030 C 
HETATM   19  C   UNL     1     -44.122 -54.738  14.520  1.00  0.00     0.004 C 
HETATM   20  C   UNL     1     -42.610 -54.537  14.617  1.00  0.00     0.035 C 
HETATM   21  C   UNL     1     -41.974 -54.232  13.249  1.00  0.00     0.219 C 
HETATM   22  C   UNL     1     -40.454 -54.093  13.366  1.00  0.00     0.043 C 
ENDBRANCH  15  16
ENDBRANCH  14  15
ENDBRANCH   3  14
TORSDOF 5
ENDMDL
MODEL 4
REMARK VINA RESULT:      -5.8      1.791      3.039
REMARK  5 active torsions:
REMARK  status: ('A' for Active; 'I' for Inactive)
REMARK    1  A    between atoms: C_2  and  C_3 
REMARK    2  A    between atoms: C_2  and  N_15 
REMARK       I    between atoms: C_3  and  N_5 
REMARK    3  A    between atoms: N_5  and  C_6 
REMARK    4  A    between atoms: C_6  and  C_7 
REMARK    5  A    between atoms: C_7  and  N_8 
ROOT
HETATM    1  C   UNL     1     -40.598 -50.978  11.968  1.00  0.00     0.242 C 
HETATM    2  O   UNL     1     -39.911 -51.491  12.855  1.00  0.00    -0.271 OA
HETATM    3  N   UNL     1     -41.829 -51.491  11.606  1.00  0.00    -0.358 N 
HETATM    4  H   UNL     1     -42.428 -50.922  11.004  1.00  0.00     0.162 HD
ENDROOT
BRANCH   1   5
HETATM    5  C   UNL     1     -40.125 -49.696  11.301  1.00  0.00     0.196 C 
HETATM    6  C   UNL     1     -38.970 -49.076  12.083  1.00  0.00     0.044 C 
BRANCH   5   7
HETATM    7  N   UNL     1     -41.203 -48.755  11.062  1.00  0.00    -0.273 N 
HETATM    8  C   UNL     1     -41.894 -48.039  11.992  1.00  0.00     0.202 A 
HETATM    9  N   UNL     1     -42.818 -47.322  11.396  1.00  0.00    -0.346 N 
HETATM   10  C   UNL     1     -42.652 -47.637  10.077  1.00  0.00     0.198 A 
ATOM     11  HN  UNL     1     -43.495 -46.685  11.815  1.00  0.00     0.167 HD
HETATM   12  N   UNL     1     -41.667 -48.502   9.817  1.00  0.00    -0.292 N 
ATOM     13  HN  UNL     1     -41.350 -48.873   8.921  1.00  0.00     0.188 HD
ENDBRANCH   5   7
ENDBRANCH   1   5
BRANCH   3  14
HETATM   14  C   UNL     1     -42.406 -52.588  12.365  1.00  0.00     0.152 C 
BRANCH  14  15
HETATM   15  C   UNL     1     -43.612 -52.210  13.254  1.00  0.00     0.292 C 
BRANCH  15  16
HETATM   16  N   UNL     1     -44.784 -53.089  13.026  1.00  0.00     0.094 N 
HETATM   17  C   UNL     1     -45.992 -52.345  12.614  1.00  0.00     0.273 C 
HETATM   18  C   UNL     1     -46.585 -51.486  13.732  1.00  0.00     0.030 C 
HETATM   19  C   UNL     1     -46.904 -52.330  14.961  1.00  0.00     0.004 C 
HETATM   20  C   UNL     1     -45.735 -53.231  15.359  1.00  0.00     0.035 C 
HETATM   21  C   UNL     1     -45.143 -53.982  14.152  1.00  0.00     0.219 C 
HETATM   22  C   UNL     1     -44.013 -54.919  14.588  1.00  0.00     0.043 C 
ENDBRANCH  15  16
ENDBRANCH  14  15
ENDBRANCH   3  14
TORSDOF 5
ENDMDL
MODEL 5
REMARK VINA RESULT:      -5.7      3.857      5.464
REMARK  5 active torsions:
REMARK  status: ('A' for Active; 'I' for Inactive)
REMARK    1  A    between atoms: C_2  and  C_3 
REMARK    2  A    between atoms: C_2  and  N_15 
REMARK       I    between atoms: C_3  and  N_5 
REMARK    3  A    between atoms: N_5  and  C_6 
REMARK    4  A    between atoms: C_6  and  C_7 
REMARK    5  A    between atoms: C_7  and  N_8 
ROOT
HETATM    1  C   UNL     1     -41.511 -53.794  14.925  1.00  0.00     0.242 C 
HETATM    2  O   UNL     1     -41.191 -52.968  15.783  1.00  0.00    -0.271 OA
HETATM    3  N   UNL     1     -42.684 -54.521  15.009  1.00  0.00    -0.358 N 
HETATM    4  H   UNL     1     -42.983 -55.046  14.185  1.00  0.00     0.162 HD
ENDROOT
BRANCH   1   5
HETATM    5  C   UNL     1     -40.640 -53.970  13.692  1.00  0.00     0.196 C 
HETATM    6  C   UNL     1     -39.288 -54.571  14.068  1.00  0.00     0.044 C 
BRANCH   5   7
HETATM    7  N   UNL     1     -40.510 -52.752  12.915  1.00  0.00    -0.273 N 
HETATM    8  C   UNL     1     -41.216 -52.404  11.803  1.00  0.00     0.202 A 
HETATM    9  N   UNL     1     -40.792 -51.244  11.360  1.00  0.00    -0.346 N 
HETATM   10  C   UNL     1     -39.808 -50.914  12.248  1.00  0.00     0.198 A 
ATOM     11  HN  UNL     1     -41.117 -50.717  10.549  1.00  0.00     0.167 HD
HETATM   12  N   UNL     1     -39.604 -51.799  13.228  1.00  0.00    -0.292 N 
ATOM     13  HN  UNL     1     -38.942 -51.765  14.003  1.00  0.00     0.188 HD
ENDBRANCH   5   7
ENDBRANCH   1   5
BRANCH   3  14
HETATM   14  C   UNL     1     -43.642 -54.228  16.062  1.00  0.00     0.152 C 
BRANCH  14  15
HETATM   15  C   UNL     1     -44.594 -53.046  15.774  1.00  0.00     0.292 C 
BRANCH  15  16
HETATM   16  N   UNL     1     -45.909 -53.491  15.252  1.00  0.00     0.094 N 
HETATM   17  C   UNL     1     -45.812 -54.150  13.933  1.00  0.00     0.273 C 
HETATM   18  C   UNL     1     -45.448 -53.189  12.800  1.00  0.00     0.030 C 
HETATM   19  C   UNL     1     -46.441 -52.035  12.719  1.00  0.00     0.004 C 
HETATM   20  C   UNL     1     -46.692 -51.395  14.084  1.00  0.00     0.035 C 
HETATM   21  C   UNL     1     -46.955 -52.445  15.179  1.00  0.00     0.219 C 
HETATM   22  C   UNL     1     -47.260 -51.775  16.522  1.00  0.00     0.043 C 
ENDBRANCH  15  16
ENDBRANCH  14  15
ENDBRANCH   3  14
TORSDOF 5
ENDMDL
MODEL 6
REMARK VINA RESULT:      -5.7      1.736      2.452
REMARK  5 active torsions:
REMARK  status: ('A' for Active; 'I' for Inactive)
REMARK    1  A    between atoms: C_2  and  C_3 
REMARK    2  A    between atoms: C_2  and  N_15 
REMARK       I    between atoms: C_3  and  N_5 
REMARK    3  A    between atoms: N_5  and  C_6 
REMARK    4  A    between atoms: C_6  and  C_7 
REMARK    5  A    between atoms: C_7  and  N_8 
ROOT
HETATM    1  C   UNL     1     -41.671 -48.108  10.998  1.00  0.00     0.242 C 
HETATM    2  O   UNL     1     -42.104 -47.944  12.141  1.00  0.00    -0.271 OA
HETATM    3  N   UNL     1     -40.799 -49.133  10.686  1.00  0.00    -0.358 N 
HETATM    4  H   UNL     1     -40.623 -49.331   9.698  1.00  0.00     0.162 HD
ENDROOT
BRANCH   1   5
HETATM    5  C   UNL     1     -42.165 -47.214   9.873  1.00  0.00     0.196 C 
HETATM    6  C   UNL     1     -42.028 -45.742  10.253  1.00  0.00     0.044 C 
BRANCH   5   7
HETATM    7  N   UNL     1     -43.506 -47.551   9.432  1.00  0.00    -0.273 N 
HETATM    8  C   UNL     1     -43.912 -47.821   8.160  1.00  0.00     0.202 A 
HETATM    9  N   UNL     1     -45.205 -48.047   8.152  1.00  0.00    -0.346 N 
HETATM   10  C   UNL     1     -45.553 -47.902   9.464  1.00  0.00     0.198 A 
ATOM     11  HN  UNL     1     -45.804 -48.275   7.358  1.00  0.00     0.167 HD
HETATM   12  N   UNL     1     -44.547 -47.610  10.293  1.00  0.00    -0.292 N 
ATOM     13  HN  UNL     1     -44.560 -47.470  11.303  1.00  0.00     0.188 HD
ENDBRANCH   5   7
ENDBRANCH   1   5
BRANCH   3  14
HETATM   14  C   UNL     1     -40.470 -50.133  11.688  1.00  0.00     0.152 C 
BRANCH  14  15
HETATM   15  C   UNL     1     -41.427 -51.345  11.747  1.00  0.00     0.292 C 
BRANCH  15  16
HETATM   16  N   UNL     1     -41.820 -51.690  13.135  1.00  0.00     0.094 N 
HETATM   17  C   UNL     1     -40.696 -51.608  14.091  1.00  0.00     0.273 C 
HETATM   18  C   UNL     1     -39.648 -52.704  13.888  1.00  0.00     0.030 C 
HETATM   19  C   UNL     1     -40.280 -54.089  13.965  1.00  0.00     0.004 C 
HETATM   20  C   UNL     1     -41.536 -54.197  13.101  1.00  0.00     0.035 C 
HETATM   21  C   UNL     1     -42.486 -53.003  13.303  1.00  0.00     0.219 C 
HETATM   22  C   UNL     1     -43.760 -53.166  12.469  1.00  0.00     0.043 C 
ENDBRANCH  15  16
ENDBRANCH  14  15
ENDBRANCH   3  14
TORSDOF 5
ENDMDL
MODEL 7
REMARK VINA RESULT:      -5.6      2.002      3.008
REMARK  5 active torsions:
REMARK  status: ('A' for Active; 'I' for Inactive)
REMARK    1  A    between atoms: C_2  and  C_3 
REMARK    2  A    between atoms: C_2  and  N_15 
REMARK       I    between atoms: C_3  and  N_5 
REMARK    3  A    between atoms: N_5  and  C_6 
REMARK    4  A    between atoms: C_6  and  C_7 
REMARK    5  A    between atoms: C_7  and  N_8 
ROOT
HETATM    1  C   UNL     1     -40.107 -51.029  12.220  1.00  0.00     0.242 C 
HETATM    2  O   UNL     1     -39.870 -51.110  13.428  1.00  0.00    -0.271 OA
HETATM    3  N   UNL     1     -40.892 -51.959  11.565  1.00  0.00    -0.358 N 
HETATM    4  H   UNL     1     -41.204 -51.741  10.616  1.00  0.00     0.162 HD
ENDROOT
BRANCH   1   5
HETATM    5  C   UNL     1     -39.595 -49.834  11.432  1.00  0.00     0.196 C 
HETATM    6  C   UNL     1     -38.317 -49.282  12.060  1.00  0.00     0.044 C 
BRANCH   5   7
HETATM    7  N   UNL     1     -40.606 -48.812  11.239  1.00  0.00    -0.273 N 
HETATM    8  C   UNL     1     -40.887 -47.764  12.064  1.00  0.00     0.202 A 
HETATM    9  N   UNL     1     -41.890 -47.076  11.571  1.00  0.00    -0.346 N 
HETATM   10  C   UNL     1     -42.195 -47.750  10.423  1.00  0.00     0.198 A 
ATOM     11  HN  UNL     1     -42.334 -46.240  11.952  1.00  0.00     0.167 HD
HETATM   12  N   UNL     1     -41.429 -48.815  10.167  1.00  0.00    -0.292 N 
ATOM     13  HN  UNL     1     -41.458 -49.458   9.375  1.00  0.00     0.188 HD
ENDBRANCH   5   7
ENDBRANCH   1   5
BRANCH   3  14
HETATM   14  C   UNL     1     -41.571 -52.996  12.324  1.00  0.00     0.152 C 
BRANCH  14  15
HETATM   15  C   UNL     1     -43.106 -52.846  12.415  1.00  0.00     0.292 C 
BRANCH  15  16
HETATM   16  N   UNL     1     -43.557 -52.445  13.770  1.00  0.00     0.094 N 
HETATM   17  C   UNL     1     -44.310 -53.509  14.466  1.00  0.00     0.273 C 
HETATM   18  C   UNL     1     -45.687 -53.776  13.854  1.00  0.00     0.030 C 
HETATM   19  C   UNL     1     -46.525 -52.503  13.814  1.00  0.00     0.004 C 
HETATM   20  C   UNL     1     -45.751 -51.322  13.229  1.00  0.00     0.035 C 
HETATM   21  C   UNL     1     -44.343 -51.191  13.837  1.00  0.00     0.219 C 
HETATM   22  C   UNL     1     -43.613 -49.968  13.276  1.00  0.00     0.043 C 
ENDBRANCH  15  16
ENDBRANCH  14  15
ENDBRANCH   3  14
TORSDOF 5
ENDMDL
MODEL 8
REMARK VINA RESULT:      -5.6      3.505      4.803
REMARK  5 active torsions:
REMARK  status: ('A' for Active; 'I' for Inactive)
REMARK    1  A    between atoms: C_2  and  C_3 
REMARK    2  A    between atoms: C_2  and  N_15 
REMARK       I    between atoms: C_3  and  N_5 
REMARK    3  A    between atoms: N_5  and  C_6 
REMARK    4  A    between atoms: C_6  and  C_7 
REMARK    5  A    between atoms: C_7  and  N_8 
ROOT
HETATM    1  C   UNL     1     -40.241 -52.972  13.685  1.00  0.00     0.242 C 
HETATM    2  O   UNL     1     -40.477 -53.706  12.722  1.00  0.00    -0.271 OA
HETATM    3  N   UNL     1     -40.986 -53.026  14.847  1.00  0.00    -0.358 N 
HETATM    4  H   UNL     1     -40.631 -52.533  15.669  1.00  0.00     0.162 HD
ENDROOT
BRANCH   1   5
HETATM    5  C   UNL     1     -39.046 -52.033  13.637  1.00  0.00     0.196 C 
HETATM    6  C   UNL     1     -38.854 -51.335  14.981  1.00  0.00     0.044 C 
BRANCH   5   7
HETATM    7  N   UNL     1     -39.109 -51.098  12.529  1.00  0.00    -0.273 N 
HETATM    8  C   UNL     1     -38.077 -50.395  11.985  1.00  0.00     0.202 A 
HETATM    9  N   UNL     1     -38.530 -49.625  11.023  1.00  0.00    -0.346 N 
HETATM   10  C   UNL     1     -39.869 -49.896  11.014  1.00  0.00     0.198 A 
ATOM     11  HN  UNL     1     -38.010 -48.981  10.428  1.00  0.00     0.167 HD
HETATM   12  N   UNL     1     -40.273 -50.802  11.910  1.00  0.00    -0.292 N 
ATOM     13  HN  UNL     1     -41.209 -51.170  12.080  1.00  0.00     0.188 HD
ENDBRANCH   5   7
ENDBRANCH   1   5
BRANCH   3  14
HETATM   14  C   UNL     1     -41.999 -54.055  15.009  1.00  0.00     0.152 C 
BRANCH  14  15
HETATM   15  C   UNL     1     -43.457 -53.543  15.044  1.00  0.00     0.292 C 
BRANCH  15  16
HETATM   16  N   UNL     1     -44.026 -53.356  13.688  1.00  0.00     0.094 N 
HETATM   17  C   UNL     1     -43.967 -51.954  13.226  1.00  0.00     0.273 C 
HETATM   18  C   UNL     1     -44.918 -51.026  13.984  1.00  0.00     0.030 C 
HETATM   19  C   UNL     1     -46.355 -51.528  13.903  1.00  0.00     0.004 C 
HETATM   20  C   UNL     1     -46.465 -53.015  14.236  1.00  0.00     0.035 C 
HETATM   21  C   UNL     1     -45.408 -53.856  13.499  1.00  0.00     0.219 C 
HETATM   22  C   UNL     1     -45.577 -55.347  13.806  1.00  0.00     0.043 C 
ENDBRANCH  15  16
ENDBRANCH  14  15
ENDBRANCH   3  14
TORSDOF 5
ENDMDL
MODEL 9
REMARK VINA RESULT:      -5.6      3.614      4.939
REMARK  5 active torsions:
REMARK  status: ('A' for Active; 'I' for Inactive)
REMARK    1  A    between atoms: C_2  and  C_3 
REMARK    2  A    between atoms: C_2  and  N_15 
REMARK       I    between atoms: C_3  and  N_5 
REMARK    3  A    between atoms: N_5  and  C_6 
REMARK    4  A    between atoms: C_6  and  C_7 
REMARK    5  A    between atoms: C_7  and  N_8 
ROOT
HETATM    1  C   UNL     1     -42.115 -48.456  10.811  1.00  0.00     0.242 C 
HETATM    2  O   UNL     1     -42.879 -48.585  11.771  1.00  0.00    -0.271 OA
HETATM    3  N   UNL     1     -40.999 -49.256  10.652  1.00  0.00    -0.358 N 
HETATM    4  H   UNL     1     -40.513 -49.229   9.753  1.00  0.00     0.162 HD
ENDROOT
BRANCH   1   5
HETATM    5  C   UNL     1     -42.441 -47.447   9.723  1.00  0.00     0.196 C 
HETATM    6  C   UNL     1     -42.104 -46.031  10.181  1.00  0.00     0.044 C 
BRANCH   5   7
HETATM    7  N   UNL     1     -43.802 -47.565   9.235  1.00  0.00    -0.273 N 
HETATM    8  C   UNL     1     -44.203 -47.969   7.997  1.00  0.00     0.202 A 
HETATM    9  N   UNL     1     -45.512 -47.910   7.920  1.00  0.00    -0.346 N 
HETATM   10  C   UNL     1     -45.876 -47.458   9.156  1.00  0.00     0.198 A 
ATOM     11  HN  UNL     1     -46.111 -48.145   7.129  1.00  0.00     0.167 HD
HETATM   12  N   UNL     1     -44.866 -47.242  10.004  1.00  0.00    -0.292 N 
ATOM     13  HN  UNL     1     -44.892 -46.920  10.972  1.00  0.00     0.188 HD
ENDBRANCH   5   7
ENDBRANCH   1   5
BRANCH   3  14
HETATM   14  C   UNL     1     -40.771 -50.368  11.559  1.00  0.00     0.152 C 
BRANCH  14  15
HETATM   15  C   UNL     1     -40.040 -50.008  12.872  1.00  0.00     0.292 C 
BRANCH  15  16
HETATM   16  N   UNL     1     -38.807 -49.217  12.636  1.00  0.00     0.094 N 
HETATM   17  C   UNL     1     -37.573 -50.018  12.773  1.00  0.00     0.273 C 
HETATM   18  C   UNL     1     -37.282 -50.440  14.215  1.00  0.00     0.030 C 
HETATM   19  C   UNL     1     -37.206 -49.228  15.136  1.00  0.00     0.004 C 
HETATM   20  C   UNL     1     -38.391 -48.283  14.943  1.00  0.00     0.035 C 
HETATM   21  C   UNL     1     -38.667 -47.992  13.456  1.00  0.00     0.219 C 
HETATM   22  C   UNL     1     -39.821 -46.999  13.294  1.00  0.00     0.043 C 
ENDBRANCH  15  16
ENDBRANCH  14  15
ENDBRANCH   3  14
TORSDOF 5
ENDMDL
