MODEL 1
REMARK VINA RESULT:      -5.8      0.000      0.000
REMARK  3 active torsions:
REMARK  status: ('A' for Active; 'I' for Inactive)
REMARK    1  A    between atoms: C_5  and  O_6 
REMARK    2  A    between atoms: C_5  and  C_7 
REMARK    3  A    between atoms: C_7  and  N_8 
ROOT
HETATM    1  N   UNL     1     -40.634 -50.526  12.454  1.00  0.00    -0.307 N 
HETATM    2  C   UNL     1     -40.368 -50.284  11.134  1.00  0.00     0.186 C 
HETATM    3  N   UNL     1     -40.804 -49.266  10.471  1.00  0.00    -0.355 N 
ATOM      4  HN  UNL     1     -40.524 -49.104   9.504  1.00  0.00     0.166 HD
HETATM    5  C   UNL     1     -41.661 -48.408  11.117  1.00  0.00     0.017 C 
HETATM    6  C   UNL     1     -42.275 -47.351  10.241  1.00  0.00     0.069 C 
HETATM    7  C   UNL     1     -41.968 -48.508  12.423  1.00  0.00     0.028 C 
HETATM    8  C   UNL     1     -42.979 -47.708  13.182  1.00  0.00     0.056 C 
HETATM    9  C   UNL     1     -41.273 -49.560  13.202  1.00  0.00     0.256 C 
HETATM   10  O   UNL     1     -41.321 -49.561  14.428  1.00  0.00    -0.267 OA
ENDROOT
BRANCH   1  11
HETATM   11  C   UNL     1     -40.217 -51.779  13.088  1.00  0.00     0.170 C 
BRANCH  11  12
HETATM   12  C   UNL     1     -41.069 -52.999  12.620  1.00  0.00     0.074 C 
HETATM   13  C   UNL     1     -42.582 -52.718  12.529  1.00  0.00     0.040 C 
HETATM   14  C   UNL     1     -43.236 -52.534  13.898  1.00  0.00     0.007 C 
HETATM   15  C   UNL     1     -42.997 -53.721  14.836  1.00  0.00    -0.019 C 
HETATM   16  C   UNL     1     -43.856 -54.922  14.435  1.00  0.00     0.010 C 
HETATM   17  C   UNL     1     -41.505 -54.077  14.910  1.00  0.00     0.007 C 
HETATM   18  C   UNL     1     -40.843 -54.216  13.538  1.00  0.00     0.040 C 
BRANCH  12  19
HETATM   19  O   UNL     1     -40.604 -53.386  11.315  1.00  0.00    -0.388 OA
HETATM   20  H   UNL     1     -40.227 -54.282  11.385  1.00  0.00     0.210 HD
ENDBRANCH  12  19
ENDBRANCH  11  12
ENDBRANCH   1  11
TORSDOF 3
ENDMDL
MODEL 2
REMARK VINA RESULT:      -5.7      3.591      5.696
REMARK  3 active torsions:
REMARK  status: ('A' for Active; 'I' for Inactive)
REMARK    1  A    between atoms: C_5  and  O_6 
REMARK    2  A    between atoms: C_5  and  C_7 
REMARK    3  A    between atoms: C_7  and  N_8 
ROOT
HETATM    1  N   UNL     1     -43.809 -53.634  13.461  1.00  0.00    -0.307 N 
HETATM    2  C   UNL     1     -42.884 -53.208  12.545  1.00  0.00     0.186 C 
HETATM    3  N   UNL     1     -41.623 -53.474  12.597  1.00  0.00    -0.355 N 
ATOM      4  HN  UNL     1     -40.989 -53.181  11.854  1.00  0.00     0.166 HD
HETATM    5  C   UNL     1     -41.165 -54.167  13.692  1.00  0.00     0.017 C 
HETATM    6  C   UNL     1     -39.668 -54.283  13.783  1.00  0.00     0.069 C 
HETATM    7  C   UNL     1     -41.972 -54.678  14.639  1.00  0.00     0.028 C 
HETATM    8  C   UNL     1     -41.567 -55.331  15.922  1.00  0.00     0.056 C 
HETATM    9  C   UNL     1     -43.433 -54.542  14.427  1.00  0.00     0.256 C 
HETATM   10  O   UNL     1     -44.223 -55.180  15.115  1.00  0.00    -0.267 OA
ENDROOT
BRANCH   1  11
HETATM   11  C   UNL     1     -45.196 -53.166  13.402  1.00  0.00     0.170 C 
BRANCH  11  12
HETATM   12  C   UNL     1     -45.347 -51.684  13.866  1.00  0.00     0.074 C 
HETATM   13  C   UNL     1     -44.422 -51.287  15.033  1.00  0.00     0.040 C 
HETATM   14  C   UNL     1     -44.813 -51.949  16.353  1.00  0.00     0.007 C 
HETATM   15  C   UNL     1     -46.269 -51.677  16.747  1.00  0.00    -0.019 C 
HETATM   16  C   UNL     1     -46.445 -50.245  17.255  1.00  0.00     0.010 C 
HETATM   17  C   UNL     1     -47.225 -52.002  15.589  1.00  0.00     0.007 C 
HETATM   18  C   UNL     1     -46.805 -51.374  14.259  1.00  0.00     0.040 C 
BRANCH  12  19
HETATM   19  O   UNL     1     -45.044 -50.838  12.743  1.00  0.00    -0.388 OA
HETATM   20  H   UNL     1     -44.711 -51.404  12.023  1.00  0.00     0.210 HD
ENDBRANCH  12  19
ENDBRANCH  11  12
ENDBRANCH   1  11
TORSDOF 3
ENDMDL
MODEL 3
REMARK VINA RESULT:      -5.7      1.681      2.334
REMARK  3 active torsions:
REMARK  status: ('A' for Active; 'I' for Inactive)
REMARK    1  A    between atoms: C_5  and  O_6 
REMARK    2  A    between atoms: C_5  and  C_7 
REMARK    3  A    between atoms: C_7  and  N_8 
ROOT
HETATM    1  N   UNL     1     -41.484 -50.632  12.866  1.00  0.00    -0.307 N 
HETATM    2  C   UNL     1     -42.261 -49.550  12.550  1.00  0.00     0.186 C 
HETATM    3  N   UNL     1     -41.833 -48.484  11.961  1.00  0.00    -0.355 N 
ATOM      4  HN  UNL     1     -42.471 -47.734  11.696  1.00  0.00     0.166 HD
HETATM    5  C   UNL     1     -40.486 -48.398  11.707  1.00  0.00     0.017 C 
HETATM    6  C   UNL     1     -40.027 -47.062  11.190  1.00  0.00     0.069 C 
HETATM    7  C   UNL     1     -39.622 -49.405  11.928  1.00  0.00     0.028 C 
HETATM    8  C   UNL     1     -38.132 -49.366  11.804  1.00  0.00     0.056 C 
HETATM    9  C   UNL     1     -40.189 -50.691  12.397  1.00  0.00     0.256 C 
HETATM   10  O   UNL     1     -39.506 -51.710  12.394  1.00  0.00    -0.267 OA
ENDROOT
BRANCH   1  11
HETATM   11  C   UNL     1     -42.022 -51.738  13.661  1.00  0.00     0.170 C 
BRANCH  11  12
HETATM   12  C   UNL     1     -42.821 -52.762  12.796  1.00  0.00     0.074 C 
HETATM   13  C   UNL     1     -44.344 -52.533  12.788  1.00  0.00     0.040 C 
HETATM   14  C   UNL     1     -45.001 -52.854  14.130  1.00  0.00     0.007 C 
HETATM   15  C   UNL     1     -44.705 -54.278  14.612  1.00  0.00    -0.019 C 
HETATM   16  C   UNL     1     -45.511 -55.308  13.817  1.00  0.00     0.010 C 
HETATM   17  C   UNL     1     -43.198 -54.572  14.578  1.00  0.00     0.007 C 
HETATM   18  C   UNL     1     -42.536 -54.208  13.248  1.00  0.00     0.040 C 
BRANCH  12  19
HETATM   19  O   UNL     1     -42.343 -52.662  11.442  1.00  0.00    -0.388 OA
HETATM   20  H   UNL     1     -41.633 -51.995  11.424  1.00  0.00     0.210 HD
ENDBRANCH  12  19
ENDBRANCH  11  12
ENDBRANCH   1  11
TORSDOF 3
ENDMDL
MODEL 4
REMARK VINA RESULT:      -5.5      2.406      3.579
REMARK  3 active torsions:
REMARK  status: ('A' for Active; 'I' for Inactive)
REMARK    1  A    between atoms: C_5  and  O_6 
REMARK    2  A    between atoms: C_5  and  C_7 
REMARK    3  A    between atoms: C_7  and  N_8 
ROOT
HETATM    1  N   UNL     1     -41.052 -53.022  12.865  1.00  0.00    -0.307 N 
HETATM    2  C   UNL     1     -41.356 -52.259  11.770  1.00  0.00     0.186 C 
HETATM    3  N   UNL     1     -40.710 -51.201  11.409  1.00  0.00    -0.355 N 
ATOM      4  HN  UNL     1     -40.945 -50.706  10.549  1.00  0.00     0.166 HD
HETATM    5  C   UNL     1     -39.695 -50.768  12.226  1.00  0.00     0.017 C 
HETATM    6  C   UNL     1     -39.107 -49.436  11.849  1.00  0.00     0.069 C 
HETATM    7  C   UNL     1     -39.268 -51.448  13.305  1.00  0.00     0.028 C 
HETATM    8  C   UNL     1     -38.266 -51.002  14.322  1.00  0.00     0.056 C 
HETATM    9  C   UNL     1     -39.889 -52.770  13.560  1.00  0.00     0.256 C 
HETATM   10  O   UNL     1     -39.394 -53.543  14.374  1.00  0.00    -0.267 OA
ENDROOT
BRANCH   1  11
HETATM   11  C   UNL     1     -41.925 -54.122  13.281  1.00  0.00     0.170 C 
BRANCH  11  12
HETATM   12  C   UNL     1     -42.858 -53.729  14.466  1.00  0.00     0.074 C 
HETATM   13  C   UNL     1     -43.918 -54.790  14.820  1.00  0.00     0.040 C 
HETATM   14  C   UNL     1     -45.002 -54.927  13.752  1.00  0.00     0.007 C 
HETATM   15  C   UNL     1     -45.700 -53.600  13.440  1.00  0.00    -0.019 C 
HETATM   16  C   UNL     1     -46.663 -53.207  14.562  1.00  0.00     0.010 C 
HETATM   17  C   UNL     1     -44.678 -52.493  13.140  1.00  0.00     0.007 C 
HETATM   18  C   UNL     1     -43.569 -52.389  14.189  1.00  0.00     0.040 C 
BRANCH  12  19
HETATM   19  O   UNL     1     -42.032 -53.513  15.625  1.00  0.00    -0.388 OA
HETATM   20  H   UNL     1     -41.622 -54.365  15.862  1.00  0.00     0.210 HD
ENDBRANCH  12  19
ENDBRANCH  11  12
ENDBRANCH   1  11
TORSDOF 3
ENDMDL
MODEL 5
REMARK VINA RESULT:      -5.5      2.485      4.316
REMARK  3 active torsions:
REMARK  status: ('A' for Active; 'I' for Inactive)
REMARK    1  A    between atoms: C_5  and  O_6 
REMARK    2  A    between atoms: C_5  and  C_7 
REMARK    3  A    between atoms: C_7  and  N_8 
ROOT
HETATM    1  N   UNL     1     -42.083 -52.424  12.699  1.00  0.00    -0.307 N 
HETATM    2  C   UNL     1     -41.817 -51.082  12.650  1.00  0.00     0.186 C 
HETATM    3  N   UNL     1     -40.699 -50.541  13.002  1.00  0.00    -0.355 N 
ATOM      4  HN  UNL     1     -40.535 -49.541  12.886  1.00  0.00     0.166 HD
HETATM    5  C   UNL     1     -39.738 -51.363  13.539  1.00  0.00     0.017 C 
HETATM    6  C   UNL     1     -38.537 -50.648  14.096  1.00  0.00     0.069 C 
HETATM    7  C   UNL     1     -39.857 -52.701  13.604  1.00  0.00     0.028 C 
HETATM    8  C   UNL     1     -38.931 -53.663  14.278  1.00  0.00     0.056 C 
HETATM    9  C   UNL     1     -41.061 -53.304  12.986  1.00  0.00     0.256 C 
HETATM   10  O   UNL     1     -41.125 -54.514  12.798  1.00  0.00    -0.267 OA
ENDROOT
BRANCH   1  11
HETATM   11  C   UNL     1     -43.426 -52.935  12.416  1.00  0.00     0.170 C 
BRANCH  11  12
HETATM   12  C   UNL     1     -44.190 -53.358  13.708  1.00  0.00     0.074 C 
HETATM   13  C   UNL     1     -45.686 -53.659  13.492  1.00  0.00     0.040 C 
HETATM   14  C   UNL     1     -46.505 -52.407  13.180  1.00  0.00     0.007 C 
HETATM   15  C   UNL     1     -46.356 -51.317  14.246  1.00  0.00    -0.019 C 
HETATM   16  C   UNL     1     -47.135 -51.676  15.513  1.00  0.00     0.010 C 
HETATM   17  C   UNL     1     -44.877 -51.027  14.539  1.00  0.00     0.007 C 
HETATM   18  C   UNL     1     -44.051 -52.286  14.808  1.00  0.00     0.040 C 
BRANCH  12  19
HETATM   19  O   UNL     1     -43.562 -54.546  14.223  1.00  0.00    -0.388 OA
HETATM   20  H   UNL     1     -42.598 -54.447  14.112  1.00  0.00     0.210 HD
ENDBRANCH  12  19
ENDBRANCH  11  12
ENDBRANCH   1  11
TORSDOF 3
ENDMDL
MODEL 6
REMARK VINA RESULT:      -5.4      4.087      6.344
REMARK  3 active torsions:
REMARK  status: ('A' for Active; 'I' for Inactive)
REMARK    1  A    between atoms: C_5  and  O_6 
REMARK    2  A    between atoms: C_5  and  C_7 
REMARK    3  A    between atoms: C_7  and  N_8 
ROOT
HETATM    1  N   UNL     1     -42.573 -54.200  15.648  1.00  0.00    -0.307 N 
HETATM    2  C   UNL     1     -41.613 -53.771  14.772  1.00  0.00     0.186 C 
HETATM    3  N   UNL     1     -40.395 -54.199  14.747  1.00  0.00    -0.355 N 
ATOM      4  HN  UNL     1     -39.739 -53.887  14.032  1.00  0.00     0.166 HD
HETATM    5  C   UNL     1     -40.016 -55.089  15.722  1.00  0.00     0.017 C 
HETATM    6  C   UNL     1     -38.546 -55.405  15.750  1.00  0.00     0.069 C 
HETATM    7  C   UNL     1     -40.871 -55.622  16.615  1.00  0.00     0.028 C 
HETATM    8  C   UNL     1     -40.536 -56.494  17.783  1.00  0.00     0.056 C 
HETATM    9  C   UNL     1     -42.304 -55.275  16.469  1.00  0.00     0.256 C 
HETATM   10  O   UNL     1     -43.161 -55.898  17.087  1.00  0.00    -0.267 OA
ENDROOT
BRANCH   1  11
HETATM   11  C   UNL     1     -43.888 -53.558  15.697  1.00  0.00     0.170 C 
BRANCH  11  12
HETATM   12  C   UNL     1     -44.796 -53.963  14.495  1.00  0.00     0.074 C 
HETATM   13  C   UNL     1     -44.342 -53.395  13.137  1.00  0.00     0.040 C 
HETATM   14  C   UNL     1     -44.535 -51.883  13.030  1.00  0.00     0.007 C 
HETATM   15  C   UNL     1     -45.979 -51.447  13.303  1.00  0.00    -0.019 C 
HETATM   16  C   UNL     1     -46.890 -51.786  12.122  1.00  0.00     0.010 C 
HETATM   17  C   UNL     1     -46.496 -52.042  14.621  1.00  0.00     0.007 C 
HETATM   18  C   UNL     1     -46.260 -53.548  14.744  1.00  0.00     0.040 C 
BRANCH  12  19
HETATM   19  O   UNL     1     -44.794 -55.399  14.407  1.00  0.00    -0.388 OA
HETATM   20  H   UNL     1     -43.871 -55.702  14.485  1.00  0.00     0.210 HD
ENDBRANCH  12  19
ENDBRANCH  11  12
ENDBRANCH   1  11
TORSDOF 3
ENDMDL
MODEL 7
REMARK VINA RESULT:      -5.4      2.360      3.291
REMARK  3 active torsions:
REMARK  status: ('A' for Active; 'I' for Inactive)
REMARK    1  A    between atoms: C_5  and  O_6 
REMARK    2  A    between atoms: C_5  and  C_7 
REMARK    3  A    between atoms: C_7  and  N_8 
ROOT
HETATM    1  N   UNL     1     -41.713 -52.582  13.166  1.00  0.00    -0.307 N 
HETATM    2  C   UNL     1     -41.383 -52.425  11.847  1.00  0.00     0.186 C 
HETATM    3  N   UNL     1     -40.561 -51.539  11.396  1.00  0.00    -0.355 N 
ATOM      4  HN  UNL     1     -40.305 -51.507  10.409  1.00  0.00     0.166 HD
HETATM    5  C   UNL     1     -40.043 -50.638  12.295  1.00  0.00     0.017 C 
HETATM    6  C   UNL     1     -39.242 -49.523  11.680  1.00  0.00     0.069 C 
HETATM    7  C   UNL     1     -40.253 -50.708  13.622  1.00  0.00     0.028 C 
HETATM    8  C   UNL     1     -39.842 -49.713  14.660  1.00  0.00     0.056 C 
HETATM    9  C   UNL     1     -41.021 -51.872  14.124  1.00  0.00     0.256 C 
HETATM   10  O   UNL     1     -41.050 -52.127  15.323  1.00  0.00    -0.267 OA
ENDROOT
BRANCH   1  11
HETATM   11  C   UNL     1     -42.763 -53.520  13.573  1.00  0.00     0.170 C 
BRANCH  11  12
HETATM   12  C   UNL     1     -44.183 -53.056  13.127  1.00  0.00     0.074 C 
HETATM   13  C   UNL     1     -44.439 -51.546  13.292  1.00  0.00     0.040 C 
HETATM   14  C   UNL     1     -44.540 -51.116  14.755  1.00  0.00     0.007 C 
HETATM   15  C   UNL     1     -45.605 -51.897  15.532  1.00  0.00    -0.019 C 
HETATM   16  C   UNL     1     -47.013 -51.432  15.155  1.00  0.00     0.010 C 
HETATM   17  C   UNL     1     -45.427 -53.411  15.347  1.00  0.00     0.007 C 
HETATM   18  C   UNL     1     -45.280 -53.832  13.883  1.00  0.00     0.040 C 
BRANCH  12  19
HETATM   19  O   UNL     1     -44.340 -53.391  11.737  1.00  0.00    -0.388 OA
HETATM   20  H   UNL     1     -44.791 -52.646  11.299  1.00  0.00     0.210 HD
ENDBRANCH  12  19
ENDBRANCH  11  12
ENDBRANCH   1  11
TORSDOF 3
ENDMDL
MODEL 8
REMARK VINA RESULT:      -5.4      3.514      5.203
REMARK  3 active torsions:
REMARK  status: ('A' for Active; 'I' for Inactive)
REMARK    1  A    between atoms: C_5  and  O_6 
REMARK    2  A    between atoms: C_5  and  C_7 
REMARK    3  A    between atoms: C_7  and  N_8 
ROOT
HETATM    1  N   UNL     1     -44.110 -53.681  14.307  1.00  0.00    -0.307 N 
HETATM    2  C   UNL     1     -44.381 -53.504  15.637  1.00  0.00     0.186 C 
HETATM    3  N   UNL     1     -45.389 -52.846  16.100  1.00  0.00    -0.355 N 
ATOM      4  HN  UNL     1     -45.575 -52.798  17.102  1.00  0.00     0.166 HD
HETATM    5  C   UNL     1     -46.204 -52.211  15.194  1.00  0.00     0.017 C 
HETATM    6  C   UNL     1     -47.246 -51.315  15.803  1.00  0.00     0.069 C 
HETATM    7  C   UNL     1     -46.073 -52.340  13.861  1.00  0.00     0.028 C 
HETATM    8  C   UNL     1     -46.821 -51.597  12.800  1.00  0.00     0.056 C 
HETATM    9  C   UNL     1     -45.040 -53.282  13.370  1.00  0.00     0.256 C 
HETATM   10  O   UNL     1     -45.021 -53.626  12.194  1.00  0.00    -0.267 OA
ENDROOT
BRANCH   1  11
HETATM   11  C   UNL     1     -42.866 -54.321  13.871  1.00  0.00     0.170 C 
BRANCH  11  12
HETATM   12  C   UNL     1     -41.859 -53.305  13.248  1.00  0.00     0.074 C 
HETATM   13  C   UNL     1     -40.427 -53.851  13.084  1.00  0.00     0.040 C 
HETATM   14  C   UNL     1     -39.710 -54.048  14.419  1.00  0.00     0.007 C 
HETATM   15  C   UNL     1     -39.671 -52.773  15.267  1.00  0.00    -0.019 C 
HETATM   16  C   UNL     1     -38.655 -51.772  14.713  1.00  0.00     0.010 C 
HETATM   17  C   UNL     1     -41.072 -52.158  15.407  1.00  0.00     0.007 C 
HETATM   18  C   UNL     1     -41.805 -52.004  14.073  1.00  0.00     0.040 C 
BRANCH  12  19
HETATM   19  O   UNL     1     -42.352 -52.937  11.947  1.00  0.00    -0.388 OA
HETATM   20  H   UNL     1     -42.453 -51.968  11.929  1.00  0.00     0.210 HD
ENDBRANCH  12  19
ENDBRANCH  11  12
ENDBRANCH   1  11
TORSDOF 3
ENDMDL
MODEL 9
REMARK VINA RESULT:      -5.3      2.410      5.017
REMARK  3 active torsions:
REMARK  status: ('A' for Active; 'I' for Inactive)
REMARK    1  A    between atoms: C_5  and  O_6 
REMARK    2  A    between atoms: C_5  and  C_7 
REMARK    3  A    between atoms: C_7  and  N_8 
ROOT
HETATM    1  N   UNL     1     -42.414 -51.611  13.956  1.00  0.00    -0.307 N 
HETATM    2  C   UNL     1     -43.200 -50.644  13.390  1.00  0.00     0.186 C 
HETATM    3  N   UNL     1     -44.410 -50.828  12.981  1.00  0.00    -0.355 N 
ATOM      4  HN  UNL     1     -44.971 -50.055  12.622  1.00  0.00     0.166 HD
HETATM    5  C   UNL     1     -44.916 -52.104  13.047  1.00  0.00     0.017 C 
HETATM    6  C   UNL     1     -46.256 -52.286  12.388  1.00  0.00     0.069 C 
HETATM    7  C   UNL     1     -44.264 -53.132  13.619  1.00  0.00     0.028 C 
HETATM    8  C   UNL     1     -44.671 -54.572  13.628  1.00  0.00     0.056 C 
HETATM    9  C   UNL     1     -42.970 -52.832  14.275  1.00  0.00     0.256 C 
HETATM   10  O   UNL     1     -42.440 -53.656  15.012  1.00  0.00    -0.267 OA
ENDROOT
BRANCH   1  11
HETATM   11  C   UNL     1     -41.004 -51.352  14.260  1.00  0.00     0.170 C 
BRANCH  11  12
HETATM   12  C   UNL     1     -40.050 -51.824  13.120  1.00  0.00     0.074 C 
HETATM   13  C   UNL     1     -38.552 -51.736  13.469  1.00  0.00     0.040 C 
HETATM   14  C   UNL     1     -38.048 -50.297  13.564  1.00  0.00     0.007 C 
HETATM   15  C   UNL     1     -38.321 -49.485  12.293  1.00  0.00    -0.019 C 
HETATM   16  C   UNL     1     -37.368 -49.889  11.166  1.00  0.00     0.010 C 
HETATM   17  C   UNL     1     -39.793 -49.594  11.872  1.00  0.00     0.007 C 
HETATM   18  C   UNL     1     -40.307 -51.034  11.822  1.00  0.00     0.040 C 
BRANCH  12  19
HETATM   19  O   UNL     1     -40.364 -53.197  12.825  1.00  0.00    -0.388 OA
HETATM   20  H   UNL     1     -39.857 -53.759  13.439  1.00  0.00     0.210 HD
ENDBRANCH  12  19
ENDBRANCH  11  12
ENDBRANCH   1  11
TORSDOF 3
ENDMDL
