MODEL 1
REMARK VINA RESULT:      -6.0      0.000      0.000
REMARK  6 active torsions:
REMARK  status: ('A' for Active; 'I' for Inactive)
REMARK    1  A    between atoms: C_2  and  C_4 
REMARK    2  A    between atoms: C_4  and  C_5 
REMARK    3  A    between atoms: C_5  and  N_6 
REMARK       I    between atoms: N_6  and  C_7 
REMARK    4  A    between atoms: C_7  and  C_9 
REMARK    5  A    between atoms: C_9  and  C_10 
REMARK    6  A    between atoms: C_13  and  N_16 
ROOT
HETATM    1  C   UNL     1     -41.322 -50.639  12.011  1.00  0.00     0.026 A 
HETATM    2  C   UNL     1     -40.726 -51.762  12.550  1.00  0.00     0.078 A 
HETATM    3  S   UNL     1     -41.884 -52.682  13.409  1.00  0.00    -0.064 SA
HETATM    4  C   UNL     1     -43.069 -51.478  13.096  1.00  0.00     0.153 A 
HETATM    5  N   UNL     1     -42.664 -50.488  12.337  1.00  0.00    -0.339 N 
ATOM      6  HN  UNL     1     -43.253 -49.715  12.028  1.00  0.00     0.168 HD
ENDROOT
BRANCH   1   7
HETATM    7  C   UNL     1     -40.681 -49.646  11.100  1.00  0.00     0.160 C 
BRANCH   7   8
HETATM    8  C   UNL     1     -41.526 -48.411  10.867  1.00  0.00     0.223 C 
HETATM    9  N   UNL     1     -42.217 -48.395   9.677  1.00  0.00    -0.361 N 
HETATM   10  H   UNL     1     -42.299 -49.274   9.163  1.00  0.00     0.162 HD
HETATM   11  O   UNL     1     -41.525 -47.467  11.662  1.00  0.00    -0.273 OA
BRANCH   9  12
HETATM   12  C   UNL     1     -43.042 -47.275   9.271  1.00  0.00     0.123 C 
BRANCH  12  13
HETATM   13  C   UNL     1     -44.491 -47.401   9.751  1.00  0.00     0.023 C 
BRANCH  13  14
HETATM   14  C   UNL     1     -45.556 -47.285   8.643  1.00  0.00    -0.021 C 
HETATM   15  C   UNL     1     -45.613 -48.527   7.754  1.00  0.00     0.009 C 
HETATM   16  C   UNL     1     -46.936 -47.043   9.267  1.00  0.00     0.009 C 
ENDBRANCH  13  14
ENDBRANCH  12  13
ENDBRANCH   9  12
ENDBRANCH   7   8
ENDBRANCH   1   7
BRANCH   4  17
HETATM   17  N   UNL     1     -44.308 -51.622  13.698  1.00  0.00    -0.298 N 
HETATM   18  C   UNL     1     -44.821 -50.907  14.838  1.00  0.00     0.134 C 
HETATM   19  C   UNL     1     -46.245 -51.390  15.024  1.00  0.00     0.029 C 
HETATM   20  C   UNL     1     -46.612 -52.044  13.707  1.00  0.00     0.105 C 
HETATM   21  C   UNL     1     -45.288 -52.391  13.071  1.00  0.00     0.225 C 
HETATM   22  O   UNL     1     -45.197 -53.150  12.113  1.00  0.00    -0.273 OA
ENDBRANCH   4  17
TORSDOF 6
ENDMDL
MODEL 2
REMARK VINA RESULT:      -5.8      2.451      5.908
REMARK  6 active torsions:
REMARK  status: ('A' for Active; 'I' for Inactive)
REMARK    1  A    between atoms: C_2  and  C_4 
REMARK    2  A    between atoms: C_4  and  C_5 
REMARK    3  A    between atoms: C_5  and  N_6 
REMARK       I    between atoms: N_6  and  C_7 
REMARK    4  A    between atoms: C_7  and  C_9 
REMARK    5  A    between atoms: C_9  and  C_10 
REMARK    6  A    between atoms: C_13  and  N_16 
ROOT
HETATM    1  C   UNL     1     -40.848 -51.125  11.898  1.00  0.00     0.026 A 
HETATM    2  C   UNL     1     -39.679 -50.846  12.577  1.00  0.00     0.078 A 
HETATM    3  S   UNL     1     -39.426 -49.156  12.637  1.00  0.00    -0.064 SA
HETATM    4  C   UNL     1     -40.826 -48.915  11.671  1.00  0.00     0.153 A 
HETATM    5  N   UNL     1     -41.492 -50.008  11.381  1.00  0.00    -0.339 N 
ATOM      6  HN  UNL     1     -42.362 -50.033  10.850  1.00  0.00     0.168 HD
ENDROOT
BRANCH   1   7
HETATM    7  C   UNL     1     -41.478 -52.468  11.729  1.00  0.00     0.160 C 
BRANCH   7   8
HETATM    8  C   UNL     1     -42.641 -52.709  12.669  1.00  0.00     0.223 C 
HETATM    9  N   UNL     1     -43.849 -52.939  12.053  1.00  0.00    -0.361 N 
HETATM   10  H   UNL     1     -43.840 -53.157  11.055  1.00  0.00     0.162 HD
HETATM   11  O   UNL     1     -42.510 -52.627  13.893  1.00  0.00    -0.273 OA
BRANCH   9  12
HETATM   12  C   UNL     1     -45.075 -53.148  12.797  1.00  0.00     0.123 C 
BRANCH  12  13
HETATM   13  C   UNL     1     -45.962 -51.900  12.838  1.00  0.00     0.023 C 
BRANCH  13  14
HETATM   14  C   UNL     1     -46.420 -51.473  14.246  1.00  0.00    -0.021 C 
HETATM   15  C   UNL     1     -47.078 -52.615  15.019  1.00  0.00     0.009 C 
HETATM   16  C   UNL     1     -45.224 -50.941  15.046  1.00  0.00     0.009 C 
ENDBRANCH  13  14
ENDBRANCH  12  13
ENDBRANCH   9  12
ENDBRANCH   7   8
ENDBRANCH   1   7
BRANCH   4  17
HETATM   17  N   UNL     1     -41.102 -47.626  11.246  1.00  0.00    -0.298 N 
HETATM   18  C   UNL     1     -40.163 -46.562  10.997  1.00  0.00     0.134 C 
HETATM   19  C   UNL     1     -40.983 -45.401  10.474  1.00  0.00     0.029 C 
HETATM   20  C   UNL     1     -42.301 -46.013  10.044  1.00  0.00     0.105 C 
HETATM   21  C   UNL     1     -42.388 -47.309  10.812  1.00  0.00     0.225 C 
HETATM   22  O   UNL     1     -43.428 -47.952  10.902  1.00  0.00    -0.273 OA
ENDBRANCH   4  17
TORSDOF 6
ENDMDL
MODEL 3
REMARK VINA RESULT:      -5.6      2.163      5.898
REMARK  6 active torsions:
REMARK  status: ('A' for Active; 'I' for Inactive)
REMARK    1  A    between atoms: C_2  and  C_4 
REMARK    2  A    between atoms: C_4  and  C_5 
REMARK    3  A    between atoms: C_5  and  N_6 
REMARK       I    between atoms: N_6  and  C_7 
REMARK    4  A    between atoms: C_7  and  C_9 
REMARK    5  A    between atoms: C_9  and  C_10 
REMARK    6  A    between atoms: C_13  and  N_16 
ROOT
HETATM    1  C   UNL     1     -41.356 -50.923  12.436  1.00  0.00     0.026 A 
HETATM    2  C   UNL     1     -41.454 -50.295  13.662  1.00  0.00     0.078 A 
HETATM    3  S   UNL     1     -41.990 -48.684  13.453  1.00  0.00    -0.064 SA
HETATM    4  C   UNL     1     -41.958 -48.898  11.748  1.00  0.00     0.153 A 
HETATM    5  N   UNL     1     -41.645 -50.107  11.348  1.00  0.00    -0.339 N 
ATOM      6  HN  UNL     1     -41.618 -50.407  10.374  1.00  0.00     0.168 HD
ENDROOT
BRANCH   1   7
HETATM    7  C   UNL     1     -41.034 -52.361  12.198  1.00  0.00     0.160 C 
BRANCH   7   8
HETATM    8  C   UNL     1     -42.124 -53.305  12.661  1.00  0.00     0.223 C 
HETATM    9  N   UNL     1     -43.373 -53.050  12.144  1.00  0.00    -0.361 N 
HETATM   10  H   UNL     1     -43.437 -52.421  11.341  1.00  0.00     0.162 HD
HETATM   11  O   UNL     1     -41.904 -54.186  13.496  1.00  0.00    -0.273 OA
BRANCH   9  12
HETATM   12  C   UNL     1     -44.541 -53.827  12.510  1.00  0.00     0.123 C 
BRANCH  12  13
HETATM   13  C   UNL     1     -45.320 -53.212  13.677  1.00  0.00     0.023 C 
BRANCH  13  14
HETATM   14  C   UNL     1     -45.921 -51.821  13.396  1.00  0.00    -0.021 C 
HETATM   15  C   UNL     1     -46.764 -51.793  12.121  1.00  0.00     0.009 C 
HETATM   16  C   UNL     1     -46.781 -51.373  14.584  1.00  0.00     0.009 C 
ENDBRANCH  13  14
ENDBRANCH  12  13
ENDBRANCH   9  12
ENDBRANCH   7   8
ENDBRANCH   1   7
BRANCH   4  17
HETATM   17  N   UNL     1     -42.210 -47.790  10.956  1.00  0.00    -0.298 N 
HETATM   18  C   UNL     1     -43.475 -47.364  10.415  1.00  0.00     0.134 C 
HETATM   19  C   UNL     1     -43.200 -46.057   9.700  1.00  0.00     0.029 C 
HETATM   20  C   UNL     1     -41.865 -45.587  10.241  1.00  0.00     0.105 C 
HETATM   21  C   UNL     1     -41.209 -46.836  10.777  1.00  0.00     0.225 C 
HETATM   22  O   UNL     1     -40.019 -46.881  11.068  1.00  0.00    -0.273 OA
ENDBRANCH   4  17
TORSDOF 6
ENDMDL
MODEL 4
REMARK VINA RESULT:      -5.6      2.309      6.109
REMARK  6 active torsions:
REMARK  status: ('A' for Active; 'I' for Inactive)
REMARK    1  A    between atoms: C_2  and  C_4 
REMARK    2  A    between atoms: C_4  and  C_5 
REMARK    3  A    between atoms: C_5  and  N_6 
REMARK       I    between atoms: N_6  and  C_7 
REMARK    4  A    between atoms: C_7  and  C_9 
REMARK    5  A    between atoms: C_9  and  C_10 
REMARK    6  A    between atoms: C_13  and  N_16 
ROOT
HETATM    1  C   UNL     1     -41.244 -49.379  11.763  1.00  0.00     0.026 A 
HETATM    2  C   UNL     1     -41.535 -48.686  12.921  1.00  0.00     0.078 A 
HETATM    3  S   UNL     1     -42.775 -47.545  12.623  1.00  0.00    -0.064 SA
HETATM    4  C   UNL     1     -42.767 -47.976  10.960  1.00  0.00     0.153 A 
HETATM    5  N   UNL     1     -41.955 -48.958  10.646  1.00  0.00    -0.339 N 
ATOM      6  HN  UNL     1     -41.859 -49.356   9.713  1.00  0.00     0.168 HD
ENDROOT
BRANCH   1   7
HETATM    7  C   UNL     1     -40.306 -50.533  11.632  1.00  0.00     0.160 C 
BRANCH   7   8
HETATM    8  C   UNL     1     -40.890 -51.841  12.124  1.00  0.00     0.223 C 
HETATM    9  N   UNL     1     -42.248 -51.975  11.948  1.00  0.00    -0.361 N 
HETATM   10  H   UNL     1     -42.713 -51.319  11.317  1.00  0.00     0.162 HD
HETATM   11  O   UNL     1     -40.196 -52.682  12.702  1.00  0.00    -0.273 OA
BRANCH   9  12
HETATM   12  C   UNL     1     -42.980 -53.142  12.396  1.00  0.00     0.123 C 
BRANCH  12  13
HETATM   13  C   UNL     1     -43.648 -52.935  13.759  1.00  0.00     0.023 C 
BRANCH  13  14
HETATM   14  C   UNL     1     -45.132 -53.348  13.826  1.00  0.00    -0.021 C 
HETATM   15  C   UNL     1     -45.978 -52.667  12.750  1.00  0.00     0.009 C 
HETATM   16  C   UNL     1     -45.258 -54.870  13.684  1.00  0.00     0.009 C 
ENDBRANCH  13  14
ENDBRANCH  12  13
ENDBRANCH   9  12
ENDBRANCH   7   8
ENDBRANCH   1   7
BRANCH   4  17
HETATM   17  N   UNL     1     -43.561 -47.236  10.099  1.00  0.00    -0.298 N 
HETATM   18  C   UNL     1     -44.934 -47.479   9.742  1.00  0.00     0.134 C 
HETATM   19  C   UNL     1     -45.338 -46.329   8.841  1.00  0.00     0.029 C 
HETATM   20  C   UNL     1     -44.294 -45.258   9.082  1.00  0.00     0.105 C 
HETATM   21  C   UNL     1     -43.104 -46.002   9.638  1.00  0.00     0.225 C 
HETATM   22  O   UNL     1     -41.991 -45.496   9.720  1.00  0.00    -0.273 OA
ENDBRANCH   4  17
TORSDOF 6
ENDMDL
MODEL 5
REMARK VINA RESULT:      -5.6      2.520      6.204
REMARK  6 active torsions:
REMARK  status: ('A' for Active; 'I' for Inactive)
REMARK    1  A    between atoms: C_2  and  C_4 
REMARK    2  A    between atoms: C_4  and  C_5 
REMARK    3  A    between atoms: C_5  and  N_6 
REMARK       I    between atoms: N_6  and  C_7 
REMARK    4  A    between atoms: C_7  and  C_9 
REMARK    5  A    between atoms: C_9  and  C_10 
REMARK    6  A    between atoms: C_13  and  N_16 
ROOT
HETATM    1  C   UNL     1     -42.739 -53.138  12.702  1.00  0.00     0.026 A 
HETATM    2  C   UNL     1     -41.411 -53.424  12.948  1.00  0.00     0.078 A 
HETATM    3  S   UNL     1     -40.480 -51.991  12.867  1.00  0.00    -0.064 SA
HETATM    4  C   UNL     1     -41.882 -51.109  12.411  1.00  0.00     0.153 A 
HETATM    5  N   UNL     1     -42.993 -51.808  12.392  1.00  0.00    -0.339 N 
ATOM      6  HN  UNL     1     -43.914 -51.427  12.179  1.00  0.00     0.168 HD
ENDROOT
BRANCH   1   7
HETATM    7  C   UNL     1     -43.883 -54.092  12.793  1.00  0.00     0.160 C 
BRANCH   7   8
HETATM    8  C   UNL     1     -45.220 -53.410  12.998  1.00  0.00     0.223 C 
HETATM    9  N   UNL     1     -45.711 -53.466  14.281  1.00  0.00    -0.361 N 
HETATM   10  H   UNL     1     -45.068 -53.742  15.026  1.00  0.00     0.162 HD
HETATM   11  O   UNL     1     -45.842 -52.911  12.056  1.00  0.00    -0.273 OA
BRANCH   9  12
HETATM   12  C   UNL     1     -46.995 -52.903  14.649  1.00  0.00     0.123 C 
BRANCH  12  13
HETATM   13  C   UNL     1     -46.886 -51.462  15.157  1.00  0.00     0.023 C 
BRANCH  13  14
HETATM   14  C   UNL     1     -46.786 -51.317  16.688  1.00  0.00    -0.021 C 
HETATM   15  C   UNL     1     -45.747 -50.278  17.111  1.00  0.00     0.009 C 
HETATM   16  C   UNL     1     -48.153 -50.935  17.268  1.00  0.00     0.009 C 
ENDBRANCH  13  14
ENDBRANCH  12  13
ENDBRANCH   9  12
ENDBRANCH   7   8
ENDBRANCH   1   7
BRANCH   4  17
HETATM   17  N   UNL     1     -41.721 -49.779  12.061  1.00  0.00    -0.298 N 
HETATM   18  C   UNL     1     -40.903 -49.240  11.005  1.00  0.00     0.134 C 
HETATM   19  C   UNL     1     -41.158 -47.747  11.005  1.00  0.00     0.029 C 
HETATM   20  C   UNL     1     -42.444 -47.568  11.787  1.00  0.00     0.105 C 
HETATM   21  C   UNL     1     -42.556 -48.817  12.627  1.00  0.00     0.225 C 
HETATM   22  O   UNL     1     -43.341 -48.911  13.564  1.00  0.00    -0.273 OA
ENDBRANCH   4  17
TORSDOF 6
ENDMDL
MODEL 6
REMARK VINA RESULT:      -5.6      3.344      4.821
REMARK  6 active torsions:
REMARK  status: ('A' for Active; 'I' for Inactive)
REMARK    1  A    between atoms: C_2  and  C_4 
REMARK    2  A    between atoms: C_4  and  C_5 
REMARK    3  A    between atoms: C_5  and  N_6 
REMARK       I    between atoms: N_6  and  C_7 
REMARK    4  A    between atoms: C_7  and  C_9 
REMARK    5  A    between atoms: C_9  and  C_10 
REMARK    6  A    between atoms: C_13  and  N_16 
ROOT
HETATM    1  C   UNL     1     -42.377 -48.840  11.662  1.00  0.00     0.026 A 
HETATM    2  C   UNL     1     -43.114 -48.484  12.774  1.00  0.00     0.078 A 
HETATM    3  S   UNL     1     -43.129 -49.772  13.901  1.00  0.00    -0.064 SA
HETATM    4  C   UNL     1     -42.247 -50.746  12.794  1.00  0.00     0.153 A 
HETATM    5  N   UNL     1     -41.890 -50.141  11.687  1.00  0.00    -0.339 N 
ATOM      6  HN  UNL     1     -41.333 -50.566  10.946  1.00  0.00     0.168 HD
ENDROOT
BRANCH   1   7
HETATM    7  C   UNL     1     -42.030 -47.957  10.509  1.00  0.00     0.160 C 
BRANCH   7   8
HETATM    8  C   UNL     1     -40.841 -47.058  10.777  1.00  0.00     0.223 C 
HETATM    9  N   UNL     1     -40.869 -45.847  10.125  1.00  0.00    -0.361 N 
HETATM   10  H   UNL     1     -41.755 -45.549   9.712  1.00  0.00     0.162 HD
HETATM   11  O   UNL     1     -39.892 -47.431  11.472  1.00  0.00    -0.273 OA
BRANCH   9  12
HETATM   12  C   UNL     1     -39.795 -44.880  10.232  1.00  0.00     0.123 C 
BRANCH  12  13
HETATM   13  C   UNL     1     -40.225 -43.595  10.946  1.00  0.00     0.023 C 
BRANCH  13  14
HETATM   14  C   UNL     1     -40.089 -43.627  12.481  1.00  0.00    -0.021 C 
HETATM   15  C   UNL     1     -38.837 -44.373  12.943  1.00  0.00     0.009 C 
HETATM   16  C   UNL     1     -40.062 -42.197  13.035  1.00  0.00     0.009 C 
ENDBRANCH  13  14
ENDBRANCH  12  13
ENDBRANCH   9  12
ENDBRANCH   7   8
ENDBRANCH   1   7
BRANCH   4  17
HETATM   17  N   UNL     1     -42.034 -52.072  13.132  1.00  0.00    -0.298 N 
HETATM   18  C   UNL     1     -43.001 -53.022  13.620  1.00  0.00     0.134 C 
HETATM   19  C   UNL     1     -42.261 -54.338  13.748  1.00  0.00     0.029 C 
HETATM   20  C   UNL     1     -41.009 -54.166  12.911  1.00  0.00     0.105 C 
HETATM   21  C   UNL     1     -40.817 -52.673  12.814  1.00  0.00     0.225 C 
HETATM   22  O   UNL     1     -39.772 -52.168  12.420  1.00  0.00    -0.273 OA
ENDBRANCH   4  17
TORSDOF 6
ENDMDL
MODEL 7
REMARK VINA RESULT:      -5.5      4.216      6.190
REMARK  6 active torsions:
REMARK  status: ('A' for Active; 'I' for Inactive)
REMARK    1  A    between atoms: C_2  and  C_4 
REMARK    2  A    between atoms: C_4  and  C_5 
REMARK    3  A    between atoms: C_5  and  N_6 
REMARK       I    between atoms: N_6  and  C_7 
REMARK    4  A    between atoms: C_7  and  C_9 
REMARK    5  A    between atoms: C_9  and  C_10 
REMARK    6  A    between atoms: C_13  and  N_16 
ROOT
HETATM    1  C   UNL     1     -41.673 -53.122  13.192  1.00  0.00     0.026 A 
HETATM    2  C   UNL     1     -40.436 -52.567  13.453  1.00  0.00     0.078 A 
HETATM    3  S   UNL     1     -39.656 -53.438  14.701  1.00  0.00    -0.064 SA
HETATM    4  C   UNL     1     -41.050 -54.426  14.879  1.00  0.00     0.153 A 
HETATM    5  N   UNL     1     -42.012 -54.185  14.020  1.00  0.00    -0.339 N 
ATOM      6  HN  UNL     1     -42.887 -54.705  13.968  1.00  0.00     0.168 HD
ENDROOT
BRANCH   1   7
HETATM    7  C   UNL     1     -42.611 -52.726  12.100  1.00  0.00     0.160 C 
BRANCH   7   8
HETATM    8  C   UNL     1     -44.049 -53.116  12.372  1.00  0.00     0.223 C 
HETATM    9  N   UNL     1     -44.904 -52.063  12.598  1.00  0.00    -0.361 N 
HETATM   10  H   UNL     1     -44.582 -51.125  12.347  1.00  0.00     0.162 HD
HETATM   11  O   UNL     1     -44.394 -54.298  12.454  1.00  0.00    -0.273 OA
BRANCH   9  12
HETATM   12  C   UNL     1     -46.306 -52.252  12.915  1.00  0.00     0.123 C 
BRANCH  12  13
HETATM   13  C   UNL     1     -46.790 -51.324  14.034  1.00  0.00     0.023 C 
BRANCH  13  14
HETATM   14  C   UNL     1     -46.525 -51.836  15.464  1.00  0.00    -0.021 C 
HETATM   15  C   UNL     1     -47.618 -51.418  16.447  1.00  0.00     0.009 C 
HETATM   16  C   UNL     1     -46.404 -53.365  15.458  1.00  0.00     0.009 C 
ENDBRANCH  13  14
ENDBRANCH  12  13
ENDBRANCH   9  12
ENDBRANCH   7   8
ENDBRANCH   1   7
BRANCH   4  17
HETATM   17  N   UNL     1     -41.064 -55.338  15.921  1.00  0.00    -0.298 N 
HETATM   18  C   UNL     1     -39.932 -55.925  16.592  1.00  0.00     0.134 C 
HETATM   19  C   UNL     1     -40.507 -56.782  17.701  1.00  0.00     0.029 C 
HETATM   20  C   UNL     1     -41.932 -56.295  17.875  1.00  0.00     0.105 C 
HETATM   21  C   UNL     1     -42.267 -55.621  16.566  1.00  0.00     0.225 C 
HETATM   22  O   UNL     1     -43.414 -55.325  16.254  1.00  0.00    -0.273 OA
ENDBRANCH   4  17
TORSDOF 6
ENDMDL
MODEL 8
REMARK VINA RESULT:      -5.5      3.591      6.195
REMARK  6 active torsions:
REMARK  status: ('A' for Active; 'I' for Inactive)
REMARK    1  A    between atoms: C_2  and  C_4 
REMARK    2  A    between atoms: C_4  and  C_5 
REMARK    3  A    between atoms: C_5  and  N_6 
REMARK       I    between atoms: N_6  and  C_7 
REMARK    4  A    between atoms: C_7  and  C_9 
REMARK    5  A    between atoms: C_9  and  C_10 
REMARK    6  A    between atoms: C_13  and  N_16 
ROOT
HETATM    1  C   UNL     1     -41.847 -54.437  14.990  1.00  0.00     0.026 A 
HETATM    2  C   UNL     1     -40.636 -54.740  15.580  1.00  0.00     0.078 A 
HETATM    3  S   UNL     1     -39.524 -53.466  15.319  1.00  0.00    -0.064 SA
HETATM    4  C   UNL     1     -40.689 -52.650  14.357  1.00  0.00     0.153 A 
HETATM    5  N   UNL     1     -41.860 -53.237  14.289  1.00  0.00    -0.339 N 
ATOM      6  HN  UNL     1     -42.668 -52.865  13.791  1.00  0.00     0.168 HD
ENDROOT
BRANCH   1   7
HETATM    7  C   UNL     1     -43.105 -55.234  15.087  1.00  0.00     0.160 C 
BRANCH   7   8
HETATM    8  C   UNL     1     -44.272 -54.608  14.353  1.00  0.00     0.223 C 
HETATM    9  N   UNL     1     -45.354 -54.293  15.142  1.00  0.00    -0.361 N 
HETATM   10  H   UNL     1     -45.218 -54.283  16.155  1.00  0.00     0.162 HD
HETATM   11  O   UNL     1     -44.264 -54.466  13.127  1.00  0.00    -0.273 OA
BRANCH   9  12
HETATM   12  C   UNL     1     -46.573 -53.725  14.602  1.00  0.00     0.123 C 
BRANCH  12  13
HETATM   13  C   UNL     1     -46.696 -52.221  14.870  1.00  0.00     0.023 C 
BRANCH  13  14
HETATM   14  C   UNL     1     -46.258 -51.314  13.703  1.00  0.00    -0.021 C 
HETATM   15  C   UNL     1     -44.761 -51.004  13.734  1.00  0.00     0.009 C 
HETATM   16  C   UNL     1     -46.612 -51.975  12.366  1.00  0.00     0.009 C 
ENDBRANCH  13  14
ENDBRANCH  12  13
ENDBRANCH   9  12
ENDBRANCH   7   8
ENDBRANCH   1   7
BRANCH   4  17
HETATM   17  N   UNL     1     -40.291 -51.493  13.707  1.00  0.00    -0.298 N 
HETATM   18  C   UNL     1     -39.320 -50.526  14.148  1.00  0.00     0.134 C 
HETATM   19  C   UNL     1     -39.208 -49.511  13.029  1.00  0.00     0.029 C 
HETATM   20  C   UNL     1     -39.810 -50.196  11.818  1.00  0.00     0.105 C 
HETATM   21  C   UNL     1     -40.695 -51.275  12.390  1.00  0.00     0.225 C 
HETATM   22  O   UNL     1     -41.529 -51.869  11.716  1.00  0.00    -0.273 OA
ENDBRANCH   4  17
TORSDOF 6
ENDMDL
MODEL 9
REMARK VINA RESULT:      -5.4      2.438      3.574
REMARK  6 active torsions:
REMARK  status: ('A' for Active; 'I' for Inactive)
REMARK    1  A    between atoms: C_2  and  C_4 
REMARK    2  A    between atoms: C_4  and  C_5 
REMARK    3  A    between atoms: C_5  and  N_6 
REMARK       I    between atoms: N_6  and  C_7 
REMARK    4  A    between atoms: C_7  and  C_9 
REMARK    5  A    between atoms: C_9  and  C_10 
REMARK    6  A    between atoms: C_13  and  N_16 
ROOT
HETATM    1  C   UNL     1     -41.392 -50.313  12.264  1.00  0.00     0.026 A 
HETATM    2  C   UNL     1     -40.711 -50.807  13.358  1.00  0.00     0.078 A 
HETATM    3  S   UNL     1     -41.788 -51.651  14.385  1.00  0.00    -0.064 SA
HETATM    4  C   UNL     1     -43.098 -51.216  13.363  1.00  0.00     0.153 A 
HETATM    5  N   UNL     1     -42.761 -50.552  12.283  1.00  0.00    -0.339 N 
ATOM      6  HN  UNL     1     -43.413 -50.253  11.558  1.00  0.00     0.168 HD
ENDROOT
BRANCH   1   7
HETATM    7  C   UNL     1     -40.794 -49.621  11.084  1.00  0.00     0.160 C 
BRANCH   7   8
HETATM    8  C   UNL     1     -41.449 -48.292  10.770  1.00  0.00     0.223 C 
HETATM    9  N   UNL     1     -40.583 -47.230  10.653  1.00  0.00    -0.361 N 
HETATM   10  H   UNL     1     -39.587 -47.436  10.555  1.00  0.00     0.162 HD
HETATM   11  O   UNL     1     -42.675 -48.176  10.701  1.00  0.00    -0.273 OA
BRANCH   9  12
HETATM   12  C   UNL     1     -41.038 -45.878  10.397  1.00  0.00     0.123 C 
BRANCH  12  13
HETATM   13  C   UNL     1     -41.039 -45.005  11.655  1.00  0.00     0.023 C 
BRANCH  13  14
HETATM   14  C   UNL     1     -39.942 -43.922  11.696  1.00  0.00    -0.021 C 
HETATM   15  C   UNL     1     -40.519 -42.507  11.760  1.00  0.00     0.009 C 
HETATM   16  C   UNL     1     -39.025 -44.152  12.903  1.00  0.00     0.009 C 
ENDBRANCH  13  14
ENDBRANCH  12  13
ENDBRANCH   9  12
ENDBRANCH   7   8
ENDBRANCH   1   7
BRANCH   4  17
HETATM   17  N   UNL     1     -44.377 -51.549  13.778  1.00  0.00    -0.298 N 
HETATM   18  C   UNL     1     -45.154 -50.926  14.818  1.00  0.00     0.134 C 
HETATM   19  C   UNL     1     -46.501 -51.620  14.800  1.00  0.00     0.029 C 
HETATM   20  C   UNL     1     -46.566 -52.315  13.455  1.00  0.00     0.105 C 
HETATM   21  C   UNL     1     -45.126 -52.454  13.027  1.00  0.00     0.225 C 
HETATM   22  O   UNL     1     -44.781 -53.186  12.106  1.00  0.00    -0.273 OA
ENDBRANCH   4  17
TORSDOF 6
ENDMDL
