MODEL 1
REMARK VINA RESULT:      -6.3      0.000      0.000
REMARK  5 active torsions:
REMARK  status: ('A' for Active; 'I' for Inactive)
REMARK    1  A    between atoms: C_5  and  N_9 
REMARK    2  A    between atoms: N_9  and  C_10 
REMARK    3  A    between atoms: C_10  and  C_11 
REMARK    4  A    between atoms: C_11  and  N_12 
REMARK    5  A    between atoms: C_18  and  C_19 
ROOT
HETATM    1  C   UNL     1     -42.888 -49.131  12.799  1.00  0.00     0.290 C 
ENDROOT
BRANCH   1   2
HETATM    2  N   UNL     1     -43.986 -50.102  12.778  1.00  0.00     0.089 N 
HETATM    3  H   UNL     1     -44.855 -49.648  13.068  1.00  0.00     0.316 HD
BRANCH   2   4
HETATM    4  C   UNL     1     -43.755 -51.269  13.651  1.00  0.00     0.220 C 
HETATM    5  C   UNL     1     -43.971 -52.615  12.939  1.00  0.00     0.036 C 
HETATM    6  C   UNL     1     -45.424 -52.801  12.499  1.00  0.00     0.007 C 
HETATM    7  C   UNL     1     -46.403 -52.712  13.683  1.00  0.00    -0.015 C 
HETATM    8  C   UNL     1     -46.298 -53.970  14.556  1.00  0.00     0.010 C 
HETATM    9  C   UNL     1     -46.190 -51.387  14.460  1.00  0.00    -0.013 C 
HETATM   10  C   UNL     1     -44.714 -51.179  14.857  1.00  0.00     0.040 C 
HETATM   11  C   UNL     1     -47.103 -51.259  15.682  1.00  0.00     0.010 C 
ENDBRANCH   2   4
ENDBRANCH   1   2
BRANCH   1  12
HETATM   12  C   UNL     1     -41.916 -49.377  11.643  1.00  0.00     0.161 C 
BRANCH  12  13
HETATM   13  N   UNL     1     -41.458 -48.137  11.061  1.00  0.00    -0.329 N 
HETATM   14  C   UNL     1     -40.232 -47.579  11.263  1.00  0.00     0.201 A 
HETATM   15  N   UNL     1     -40.157 -46.439  10.617  1.00  0.00    -0.295 N 
HETATM   16  N   UNL     1     -41.356 -46.252   9.971  1.00  0.00    -0.288 N 
ATOM     17  HN  UNL     1     -39.356 -45.808  10.599  1.00  0.00     0.187 HD
HETATM   18  C   UNL     1     -42.128 -47.287  10.224  1.00  0.00     0.103 A 
ATOM     19  HN  UNL     1     -41.605 -45.448   9.394  1.00  0.00     0.188 HD
BRANCH  18  20
HETATM   20  C   UNL     1     -43.522 -47.470   9.637  1.00  0.00     0.055 A 
HETATM   21  C   UNL     1     -43.629 -47.668   8.136  1.00  0.00     0.013 A 
HETATM   22  C   UNL     1     -44.069 -46.379   8.738  1.00  0.00     0.013 A 
ENDBRANCH  18  20
ENDBRANCH  12  13
ENDBRANCH   1  12
TORSDOF 5
ENDMDL
MODEL 2
REMARK VINA RESULT:      -6.1      1.462      2.388
REMARK  5 active torsions:
REMARK  status: ('A' for Active; 'I' for Inactive)
REMARK    1  A    between atoms: C_5  and  N_9 
REMARK    2  A    between atoms: N_9  and  C_10 
REMARK    3  A    between atoms: C_10  and  C_11 
REMARK    4  A    between atoms: C_11  and  N_12 
REMARK    5  A    between atoms: C_18  and  C_19 
ROOT
HETATM    1  C   UNL     1     -42.718 -49.611  14.083  1.00  0.00     0.290 C 
ENDROOT
BRANCH   1   2
HETATM    2  N   UNL     1     -43.951 -50.301  14.473  1.00  0.00     0.089 N 
HETATM    3  H   UNL     1     -43.782 -50.863  15.310  1.00  0.00     0.316 HD
BRANCH   2   4
HETATM    4  C   UNL     1     -44.490 -51.182  13.420  1.00  0.00     0.220 C 
HETATM    5  C   UNL     1     -45.898 -51.715  13.733  1.00  0.00     0.036 C 
HETATM    6  C   UNL     1     -45.905 -52.618  14.968  1.00  0.00     0.007 C 
HETATM    7  C   UNL     1     -44.951 -53.816  14.815  1.00  0.00    -0.015 C 
HETATM    8  C   UNL     1     -45.531 -54.833  13.823  1.00  0.00     0.010 C 
HETATM    9  C   UNL     1     -43.525 -53.327  14.452  1.00  0.00    -0.013 C 
HETATM   10  C   UNL     1     -43.529 -52.376  13.238  1.00  0.00     0.040 C 
HETATM   11  C   UNL     1     -42.537 -54.476  14.237  1.00  0.00     0.010 C 
ENDBRANCH   2   4
ENDBRANCH   1   2
BRANCH   1  12
HETATM   12  C   UNL     1     -42.985 -48.605  12.960  1.00  0.00     0.161 C 
BRANCH  12  13
HETATM   13  N   UNL     1     -42.175 -48.881  11.797  1.00  0.00    -0.329 N 
HETATM   14  C   UNL     1     -41.229 -49.857  11.710  1.00  0.00     0.201 A 
HETATM   15  N   UNL     1     -40.656 -49.811  10.531  1.00  0.00    -0.295 N 
HETATM   16  N   UNL     1     -41.246 -48.788   9.826  1.00  0.00    -0.288 N 
ATOM     17  HN  UNL     1     -39.910 -50.421  10.198  1.00  0.00     0.187 HD
HETATM   18  C   UNL     1     -42.174 -48.245  10.585  1.00  0.00     0.103 A 
ATOM     19  HN  UNL     1     -41.006 -48.500   8.877  1.00  0.00     0.188 HD
BRANCH  18  20
HETATM   20  C   UNL     1     -43.086 -47.113  10.131  1.00  0.00     0.055 A 
HETATM   21  C   UNL     1     -44.504 -47.475   9.725  1.00  0.00     0.013 A 
HETATM   22  C   UNL     1     -43.520 -47.082   8.679  1.00  0.00     0.013 A 
ENDBRANCH  18  20
ENDBRANCH  12  13
ENDBRANCH   1  12
TORSDOF 5
ENDMDL
MODEL 3
REMARK VINA RESULT:      -6.1      3.986      5.204
REMARK  5 active torsions:
REMARK  status: ('A' for Active; 'I' for Inactive)
REMARK    1  A    between atoms: C_5  and  N_9 
REMARK    2  A    between atoms: N_9  and  C_10 
REMARK    3  A    between atoms: C_10  and  C_11 
REMARK    4  A    between atoms: C_11  and  N_12 
REMARK    5  A    between atoms: C_18  and  C_19 
ROOT
HETATM    1  C   UNL     1     -42.629 -55.111  15.199  1.00  0.00     0.290 C 
ENDROOT
BRANCH   1   2
HETATM    2  N   UNL     1     -43.725 -54.151  15.348  1.00  0.00     0.089 N 
HETATM    3  H   UNL     1     -44.056 -54.151  16.315  1.00  0.00     0.316 HD
BRANCH   2   4
HETATM    4  C   UNL     1     -44.873 -54.426  14.462  1.00  0.00     0.220 C 
HETATM    5  C   UNL     1     -44.601 -54.085  12.987  1.00  0.00     0.036 C 
HETATM    6  C   UNL     1     -44.365 -52.587  12.783  1.00  0.00     0.007 C 
HETATM    7  C   UNL     1     -45.556 -51.743  13.268  1.00  0.00    -0.015 C 
HETATM    8  C   UNL     1     -46.741 -51.890  12.305  1.00  0.00     0.010 C 
HETATM    9  C   UNL     1     -45.897 -52.087  14.741  1.00  0.00    -0.013 C 
HETATM   10  C   UNL     1     -46.083 -53.604  14.954  1.00  0.00     0.040 C 
HETATM   11  C   UNL     1     -47.107 -51.314  15.270  1.00  0.00     0.010 C 
ENDBRANCH   2   4
ENDBRANCH   1   2
BRANCH   1  12
HETATM   12  C   UNL     1     -41.274 -54.399  15.187  1.00  0.00     0.161 C 
BRANCH  12  13
HETATM   13  N   UNL     1     -41.067 -53.673  13.956  1.00  0.00    -0.329 N 
HETATM   14  C   UNL     1     -40.971 -54.233  12.718  1.00  0.00     0.201 A 
HETATM   15  N   UNL     1     -40.748 -53.297  11.827  1.00  0.00    -0.295 N 
HETATM   16  N   UNL     1     -40.706 -52.095  12.495  1.00  0.00    -0.288 N 
ATOM     17  HN  UNL     1     -40.628 -53.434  10.824  1.00  0.00     0.187 HD
HETATM   18  C   UNL     1     -40.919 -52.325  13.773  1.00  0.00     0.103 A 
ATOM     19  HN  UNL     1     -40.538 -51.182  12.072  1.00  0.00     0.188 HD
BRANCH  18  20
HETATM   20  C   UNL     1     -41.002 -51.230  14.830  1.00  0.00     0.055 A 
HETATM   21  C   UNL     1     -42.385 -50.796  15.281  1.00  0.00     0.013 A 
HETATM   22  C   UNL     1     -41.575 -49.887  14.424  1.00  0.00     0.013 A 
ENDBRANCH  18  20
ENDBRANCH  12  13
ENDBRANCH   1  12
TORSDOF 5
ENDMDL
MODEL 4
REMARK VINA RESULT:      -6.0      3.046      7.465
REMARK  5 active torsions:
REMARK  status: ('A' for Active; 'I' for Inactive)
REMARK    1  A    between atoms: C_5  and  N_9 
REMARK    2  A    between atoms: N_9  and  C_10 
REMARK    3  A    between atoms: C_10  and  C_11 
REMARK    4  A    between atoms: C_11  and  N_12 
REMARK    5  A    between atoms: C_18  and  C_19 
ROOT
HETATM    1  C   UNL     1     -43.071 -52.916  12.477  1.00  0.00     0.290 C 
ENDROOT
BRANCH   1   2
HETATM    2  N   UNL     1     -42.146 -51.953  11.873  1.00  0.00     0.089 N 
HETATM    3  H   UNL     1     -41.240 -52.398  11.711  1.00  0.00     0.316 HD
BRANCH   2   4
HETATM    4  C   UNL     1     -41.932 -50.748  12.698  1.00  0.00     0.220 C 
HETATM    5  C   UNL     1     -41.814 -49.456  11.871  1.00  0.00     0.036 C 
HETATM    6  C   UNL     1     -40.583 -49.471  10.963  1.00  0.00     0.007 C 
HETATM    7  C   UNL     1     -39.280 -49.662  11.758  1.00  0.00    -0.015 C 
HETATM    8  C   UNL     1     -38.937 -48.384  12.535  1.00  0.00     0.010 C 
HETATM    9  C   UNL     1     -39.370 -50.932  12.644  1.00  0.00    -0.013 C 
HETATM   10  C   UNL     1     -40.639 -50.938  13.521  1.00  0.00     0.040 C 
HETATM   11  C   UNL     1     -38.120 -51.153  13.499  1.00  0.00     0.010 C 
ENDBRANCH   2   4
ENDBRANCH   1   2
BRANCH   1  12
HETATM   12  C   UNL     1     -44.313 -52.212  13.027  1.00  0.00     0.161 C 
BRANCH  12  13
HETATM   13  N   UNL     1     -45.261 -53.156  13.572  1.00  0.00    -0.329 N 
HETATM   14  C   UNL     1     -45.215 -54.507  13.397  1.00  0.00     0.201 A 
HETATM   15  N   UNL     1     -46.244 -55.062  13.993  1.00  0.00    -0.295 N 
HETATM   16  N   UNL     1     -46.973 -54.055  14.579  1.00  0.00    -0.288 N 
ATOM     17  HN  UNL     1     -46.462 -56.058  14.017  1.00  0.00     0.187 HD
HETATM   18  C   UNL     1     -46.366 -52.912  14.341  1.00  0.00     0.103 A 
ATOM     19  HN  UNL     1     -47.838 -54.173  15.108  1.00  0.00     0.188 HD
BRANCH  18  20
HETATM   20  C   UNL     1     -46.845 -51.568  14.876  1.00  0.00     0.055 A 
HETATM   21  C   UNL     1     -46.123 -50.999  16.084  1.00  0.00     0.013 A 
HETATM   22  C   UNL     1     -47.503 -51.536  16.242  1.00  0.00     0.013 A 
ENDBRANCH  18  20
ENDBRANCH  12  13
ENDBRANCH   1  12
TORSDOF 5
ENDMDL
MODEL 5
REMARK VINA RESULT:      -5.9      1.677      2.171
REMARK  5 active torsions:
REMARK  status: ('A' for Active; 'I' for Inactive)
REMARK    1  A    between atoms: C_5  and  N_9 
REMARK    2  A    between atoms: N_9  and  C_10 
REMARK    3  A    between atoms: C_10  and  C_11 
REMARK    4  A    between atoms: C_11  and  N_12 
REMARK    5  A    between atoms: C_18  and  C_19 
ROOT
HETATM    1  C   UNL     1     -43.112 -49.248  13.069  1.00  0.00     0.290 C 
ENDROOT
BRANCH   1   2
HETATM    2  N   UNL     1     -44.026 -50.360  12.794  1.00  0.00     0.089 N 
HETATM    3  H   UNL     1     -44.993 -50.041  12.877  1.00  0.00     0.316 HD
BRANCH   2   4
HETATM    4  C   UNL     1     -43.836 -51.513  13.695  1.00  0.00     0.220 C 
HETATM    5  C   UNL     1     -44.141 -52.865  13.028  1.00  0.00     0.036 C 
HETATM    6  C   UNL     1     -45.612 -52.985  12.627  1.00  0.00     0.007 C 
HETATM    7  C   UNL     1     -46.556 -52.810  13.830  1.00  0.00    -0.015 C 
HETATM    8  C   UNL     1     -46.497 -54.047  14.737  1.00  0.00     0.010 C 
HETATM    9  C   UNL     1     -46.254 -51.478  14.563  1.00  0.00    -0.013 C 
HETATM   10  C   UNL     1     -44.760 -51.338  14.920  1.00  0.00     0.040 C 
HETATM   11  C   UNL     1     -47.128 -51.266  15.801  1.00  0.00     0.010 C 
ENDBRANCH   2   4
ENDBRANCH   1   2
BRANCH   1  12
HETATM   12  C   UNL     1     -42.699 -48.545  11.773  1.00  0.00     0.161 C 
BRANCH  12  13
HETATM   13  N   UNL     1     -41.297 -48.740  11.487  1.00  0.00    -0.329 N 
HETATM   14  C   UNL     1     -40.701 -49.942  11.253  1.00  0.00     0.201 A 
HETATM   15  N   UNL     1     -39.415 -49.766  11.064  1.00  0.00    -0.295 N 
HETATM   16  N   UNL     1     -39.165 -48.418  11.167  1.00  0.00    -0.288 N 
ATOM     17  HN  UNL     1     -38.728 -50.495  10.875  1.00  0.00     0.187 HD
HETATM   18  C   UNL     1     -40.304 -47.802  11.401  1.00  0.00     0.103 A 
ATOM     19  HN  UNL     1     -38.252 -47.971  11.078  1.00  0.00     0.188 HD
BRANCH  18  20
HETATM   20  C   UNL     1     -40.442 -46.290  11.524  1.00  0.00     0.055 A 
HETATM   21  C   UNL     1     -41.163 -45.559  10.405  1.00  0.00     0.013 A 
HETATM   22  C   UNL     1     -39.686 -45.420  10.539  1.00  0.00     0.013 A 
ENDBRANCH  18  20
ENDBRANCH  12  13
ENDBRANCH   1  12
TORSDOF 5
ENDMDL
MODEL 6
REMARK VINA RESULT:      -5.9      1.827      3.460
REMARK  5 active torsions:
REMARK  status: ('A' for Active; 'I' for Inactive)
REMARK    1  A    between atoms: C_5  and  N_9 
REMARK    2  A    between atoms: N_9  and  C_10 
REMARK    3  A    between atoms: C_10  and  C_11 
REMARK    4  A    between atoms: C_11  and  N_12 
REMARK    5  A    between atoms: C_18  and  C_19 
ROOT
HETATM    1  C   UNL     1     -41.882 -51.015  12.913  1.00  0.00     0.290 C 
ENDROOT
BRANCH   1   2
HETATM    2  N   UNL     1     -43.255 -51.301  12.488  1.00  0.00     0.089 N 
HETATM    3  H   UNL     1     -43.843 -50.480  12.643  1.00  0.00     0.316 HD
BRANCH   2   4
HETATM    4  C   UNL     1     -43.861 -52.449  13.191  1.00  0.00     0.220 C 
HETATM    5  C   UNL     1     -45.253 -52.825  12.656  1.00  0.00     0.036 C 
HETATM    6  C   UNL     1     -46.273 -51.709  12.885  1.00  0.00     0.007 C 
HETATM    7  C   UNL     1     -46.404 -51.340  14.373  1.00  0.00    -0.015 C 
HETATM    8  C   UNL     1     -47.149 -52.447  15.131  1.00  0.00     0.010 C 
HETATM    9  C   UNL     1     -45.014 -50.996  14.968  1.00  0.00    -0.013 C 
HETATM   10  C   UNL     1     -43.975 -52.102  14.691  1.00  0.00     0.040 C 
HETATM   11  C   UNL     1     -45.070 -50.668  16.461  1.00  0.00     0.010 C 
ENDBRANCH   2   4
ENDBRANCH   1   2
BRANCH   1  12
HETATM   12  C   UNL     1     -40.949 -50.894  11.705  1.00  0.00     0.161 C 
BRANCH  12  13
HETATM   13  N   UNL     1     -40.612 -49.516  11.431  1.00  0.00    -0.329 N 
HETATM   14  C   UNL     1     -41.385 -48.643  10.726  1.00  0.00     0.201 A 
HETATM   15  N   UNL     1     -40.769 -47.489  10.632  1.00  0.00    -0.295 N 
HETATM   16  N   UNL     1     -39.571 -47.605  11.298  1.00  0.00    -0.288 N 
ATOM     17  HN  UNL     1     -41.115 -46.658  10.153  1.00  0.00     0.187 HD
HETATM   18  C   UNL     1     -39.491 -48.821  11.795  1.00  0.00     0.103 A 
ATOM     19  HN  UNL     1     -38.865 -46.874  11.391  1.00  0.00     0.188 HD
BRANCH  18  20
HETATM   20  C   UNL     1     -38.329 -49.315  12.648  1.00  0.00     0.055 A 
HETATM   21  C   UNL     1     -38.582 -49.504  14.133  1.00  0.00     0.013 A 
HETATM   22  C   UNL     1     -37.740 -48.365  13.672  1.00  0.00     0.013 A 
ENDBRANCH  18  20
ENDBRANCH  12  13
ENDBRANCH   1  12
TORSDOF 5
ENDMDL
MODEL 7
REMARK VINA RESULT:      -5.8      1.682      2.189
REMARK  5 active torsions:
REMARK  status: ('A' for Active; 'I' for Inactive)
REMARK    1  A    between atoms: C_5  and  N_9 
REMARK    2  A    between atoms: N_9  and  C_10 
REMARK    3  A    between atoms: C_10  and  C_11 
REMARK    4  A    between atoms: C_11  and  N_12 
REMARK    5  A    between atoms: C_18  and  C_19 
ROOT
HETATM    1  C   UNL     1     -41.589 -49.168  14.526  1.00  0.00     0.290 C 
ENDROOT
BRANCH   1   2
HETATM    2  N   UNL     1     -42.885 -49.707  14.102  1.00  0.00     0.089 N 
HETATM    3  H   UNL     1     -43.619 -49.015  14.271  1.00  0.00     0.316 HD
BRANCH   2   4
HETATM    4  C   UNL     1     -43.256 -50.958  14.792  1.00  0.00     0.220 C 
HETATM    5  C   UNL     1     -42.519 -52.194  14.250  1.00  0.00     0.036 C 
HETATM    6  C   UNL     1     -42.888 -52.485  12.794  1.00  0.00     0.007 C 
HETATM    7  C   UNL     1     -44.400 -52.700  12.612  1.00  0.00    -0.015 C 
HETATM    8  C   UNL     1     -44.820 -54.054  13.197  1.00  0.00     0.010 C 
HETATM    9  C   UNL     1     -45.189 -51.495  13.187  1.00  0.00    -0.013 C 
HETATM   10  C   UNL     1     -44.777 -51.172  14.638  1.00  0.00     0.040 C 
HETATM   11  C   UNL     1     -46.705 -51.668  13.081  1.00  0.00     0.010 C 
ENDBRANCH   2   4
ENDBRANCH   1   2
BRANCH   1  12
HETATM   12  C   UNL     1     -41.035 -48.192  13.487  1.00  0.00     0.161 C 
BRANCH  12  13
HETATM   13  N   UNL     1     -40.859 -48.828  12.202  1.00  0.00    -0.329 N 
HETATM   14  C   UNL     1     -40.121 -49.951  11.975  1.00  0.00     0.201 A 
HETATM   15  N   UNL     1     -40.141 -50.238  10.695  1.00  0.00    -0.295 N 
HETATM   16  N   UNL     1     -40.916 -49.288  10.072  1.00  0.00    -0.288 N 
ATOM     17  HN  UNL     1     -39.669 -51.021  10.245  1.00  0.00     0.187 HD
HETATM   18  C   UNL     1     -41.362 -48.453  10.986  1.00  0.00     0.103 A 
ATOM     19  HN  UNL     1     -41.112 -49.238   9.071  1.00  0.00     0.188 HD
BRANCH  18  20
HETATM   20  C   UNL     1     -42.303 -47.292  10.689  1.00  0.00     0.055 A 
HETATM   21  C   UNL     1     -43.795 -47.566  10.753  1.00  0.00     0.013 A 
HETATM   22  C   UNL     1     -43.144 -47.357   9.430  1.00  0.00     0.013 A 
ENDBRANCH  18  20
ENDBRANCH  12  13
ENDBRANCH   1  12
TORSDOF 5
ENDMDL
MODEL 8
REMARK VINA RESULT:      -5.7      2.963      7.369
REMARK  5 active torsions:
REMARK  status: ('A' for Active; 'I' for Inactive)
REMARK    1  A    between atoms: C_5  and  N_9 
REMARK    2  A    between atoms: N_9  and  C_10 
REMARK    3  A    between atoms: C_10  and  C_11 
REMARK    4  A    between atoms: C_11  and  N_12 
REMARK    5  A    between atoms: C_18  and  C_19 
ROOT
HETATM    1  C   UNL     1     -42.813 -52.480  12.538  1.00  0.00     0.290 C 
ENDROOT
BRANCH   1   2
HETATM    2  N   UNL     1     -42.253 -51.221  12.038  1.00  0.00     0.089 N 
HETATM    3  H   UNL     1     -42.685 -50.982  11.143  1.00  0.00     0.316 HD
BRANCH   2   4
HETATM    4  C   UNL     1     -40.789 -51.260  11.854  1.00  0.00     0.220 C 
HETATM    5  C   UNL     1     -40.016 -51.489  13.164  1.00  0.00     0.036 C 
HETATM    6  C   UNL     1     -40.205 -50.332  14.147  1.00  0.00     0.007 C 
HETATM    7  C   UNL     1     -39.764 -48.986  13.549  1.00  0.00    -0.015 C 
HETATM    8  C   UNL     1     -38.233 -48.920  13.457  1.00  0.00     0.010 C 
HETATM    9  C   UNL     1     -40.485 -48.733  12.200  1.00  0.00    -0.013 C 
HETATM   10  C   UNL     1     -40.336 -49.922  11.230  1.00  0.00     0.040 C 
HETATM   11  C   UNL     1     -40.052 -47.428  11.527  1.00  0.00     0.010 C 
ENDBRANCH   2   4
ENDBRANCH   1   2
BRANCH   1  12
HETATM   12  C   UNL     1     -43.596 -52.255  13.834  1.00  0.00     0.161 C 
BRANCH  12  13
HETATM   13  N   UNL     1     -44.737 -53.136  13.924  1.00  0.00    -0.329 N 
HETATM   14  C   UNL     1     -44.729 -54.466  13.630  1.00  0.00     0.201 A 
HETATM   15  N   UNL     1     -45.935 -54.957  13.783  1.00  0.00    -0.295 N 
HETATM   16  N   UNL     1     -46.750 -53.928  14.194  1.00  0.00    -0.288 N 
ATOM     17  HN  UNL     1     -46.218 -55.924  13.625  1.00  0.00     0.187 HD
HETATM   18  C   UNL     1     -46.019 -52.839  14.297  1.00  0.00     0.103 A 
ATOM     19  HN  UNL     1     -47.749 -53.998  14.386  1.00  0.00     0.188 HD
BRANCH  18  20
HETATM   20  C   UNL     1     -46.558 -51.498  14.782  1.00  0.00     0.055 A 
HETATM   21  C   UNL     1     -46.080 -50.999  16.133  1.00  0.00     0.013 A 
HETATM   22  C   UNL     1     -47.478 -51.490  15.986  1.00  0.00     0.013 A 
ENDBRANCH  18  20
ENDBRANCH  12  13
ENDBRANCH   1  12
TORSDOF 5
ENDMDL
MODEL 9
REMARK VINA RESULT:      -5.7      1.910      3.524
REMARK  5 active torsions:
REMARK  status: ('A' for Active; 'I' for Inactive)
REMARK    1  A    between atoms: C_5  and  N_9 
REMARK    2  A    between atoms: N_9  and  C_10 
REMARK    3  A    between atoms: C_10  and  C_11 
REMARK    4  A    between atoms: C_11  and  N_12 
REMARK    5  A    between atoms: C_18  and  C_19 
ROOT
HETATM    1  C   UNL     1     -42.698 -48.366  13.788  1.00  0.00     0.290 C 
ENDROOT
BRANCH   1   2
HETATM    2  N   UNL     1     -43.222 -49.624  13.248  1.00  0.00     0.089 N 
HETATM    3  H   UNL     1     -44.204 -49.507  12.991  1.00  0.00     0.316 HD
BRANCH   2   4
HETATM    4  C   UNL     1     -43.118 -50.756  14.189  1.00  0.00     0.220 C 
HETATM    5  C   UNL     1     -42.298 -51.934  13.637  1.00  0.00     0.036 C 
HETATM    6  C   UNL     1     -42.963 -52.568  12.414  1.00  0.00     0.007 C 
HETATM    7  C   UNL     1     -44.386 -53.065  12.721  1.00  0.00    -0.015 C 
HETATM    8  C   UNL     1     -44.333 -54.327  13.593  1.00  0.00     0.010 C 
HETATM    9  C   UNL     1     -45.239 -51.919  13.324  1.00  0.00    -0.013 C 
HETATM   10  C   UNL     1     -44.542 -51.249  14.526  1.00  0.00     0.040 C 
HETATM   11  C   UNL     1     -46.655 -52.363  13.698  1.00  0.00     0.010 C 
ENDBRANCH   2   4
ENDBRANCH   1   2
BRANCH   1  12
HETATM   12  C   UNL     1     -41.252 -48.139  13.342  1.00  0.00     0.161 C 
BRANCH  12  13
HETATM   13  N   UNL     1     -41.022 -48.645  12.009  1.00  0.00    -0.329 N 
HETATM   14  C   UNL     1     -41.680 -48.238  10.888  1.00  0.00     0.201 A 
HETATM   15  N   UNL     1     -41.255 -48.924   9.855  1.00  0.00    -0.295 N 
HETATM   16  N   UNL     1     -40.290 -49.794  10.306  1.00  0.00    -0.288 N 
ATOM     17  HN  UNL     1     -41.580 -48.831   8.893  1.00  0.00     0.187 HD
HETATM   18  C   UNL     1     -40.139 -49.607  11.600  1.00  0.00     0.103 A 
ATOM     19  HN  UNL     1     -39.779 -50.468   9.736  1.00  0.00     0.188 HD
BRANCH  18  20
HETATM   20  C   UNL     1     -39.116 -50.350  12.451  1.00  0.00     0.055 A 
HETATM   21  C   UNL     1     -37.926 -49.560  12.965  1.00  0.00     0.013 A 
HETATM   22  C   UNL     1     -37.728 -50.561  11.880  1.00  0.00     0.013 A 
ENDBRANCH  18  20
ENDBRANCH  12  13
ENDBRANCH   1  12
TORSDOF 5
ENDMDL
