MODEL 1
REMARK VINA RESULT:      -5.2      0.000      0.000
REMARK  2 active torsions:
REMARK  status: ('A' for Active; 'I' for Inactive)
REMARK    1  A    between atoms: N_1  and  C_2 
REMARK    2  A    between atoms: C_5  and  N_9 
ROOT
HETATM    1  C   UNL     1     -40.713 -53.129  12.979  1.00  0.00     0.021 A 
HETATM    2  C   UNL     1     -41.290 -53.976  13.912  1.00  0.00     0.028 A 
HETATM    3  C   UNL     1     -42.664 -54.225  13.877  1.00  0.00     0.050 A 
HETATM    4  C   UNL     1     -43.483 -53.600  12.932  1.00  0.00     0.103 A 
HETATM    5  N   UNL     1     -42.937 -52.734  12.054  1.00  0.00    -0.351 N 
ATOM      6  HN  UNL     1     -43.517 -52.263  11.359  1.00  0.00     0.166 HD
HETATM    7  C   UNL     1     -41.598 -52.499  12.113  1.00  0.00     0.113 A 
ENDROOT
BRANCH   4   8
HETATM    8  N   UNL     1     -44.851 -53.781  12.935  1.00  0.00    -0.363 N 
HETATM    9  C   UNL     1     -45.791 -52.693  12.639  1.00  0.00     0.150 C 
HETATM   10  C   UNL     1     -46.541 -52.256  13.910  1.00  0.00     0.187 C 
HETATM   11  O   UNL     1     -47.175 -53.367  14.563  1.00  0.00    -0.388 OA
HETATM   12  C   UNL     1     -46.185 -54.339  14.947  1.00  0.00     0.187 C 
HETATM   13  C   UNL     1     -45.429 -54.879  13.727  1.00  0.00     0.150 C 
ENDBRANCH   4   8
BRANCH   1  14
HETATM   14  N   UNL     1     -39.373 -52.749  13.091  1.00  0.00    -0.302 NA
HETATM   15  H   UNL     1     -39.240 -51.769  13.321  1.00  0.00     0.124 HD
HETATM   16  H   UNL     1     -38.814 -53.361  13.680  1.00  0.00     0.124 HD
ENDBRANCH   1  14
TORSDOF 2
ENDMDL
MODEL 2
REMARK VINA RESULT:      -5.1      2.760      5.259
REMARK  2 active torsions:
REMARK  status: ('A' for Active; 'I' for Inactive)
REMARK    1  A    between atoms: N_1  and  C_2 
REMARK    2  A    between atoms: C_5  and  N_9 
ROOT
HETATM    1  C   UNL     1     -45.049 -54.650  14.010  1.00  0.00     0.021 A 
HETATM    2  C   UNL     1     -43.992 -54.992  14.837  1.00  0.00     0.028 A 
HETATM    3  C   UNL     1     -42.682 -54.674  14.470  1.00  0.00     0.050 A 
HETATM    4  C   UNL     1     -42.412 -54.042  13.252  1.00  0.00     0.103 A 
HETATM    5  N   UNL     1     -43.432 -53.754  12.417  1.00  0.00    -0.351 N 
ATOM      6  HN  UNL     1     -43.257 -53.297  11.521  1.00  0.00     0.166 HD
HETATM    7  C   UNL     1     -44.697 -54.083  12.791  1.00  0.00     0.113 A 
ENDROOT
BRANCH   4   8
HETATM    8  N   UNL     1     -41.118 -53.789  12.845  1.00  0.00    -0.363 N 
HETATM    9  C   UNL     1     -39.948 -54.278  13.584  1.00  0.00     0.150 C 
HETATM   10  C   UNL     1     -39.220 -53.118  14.287  1.00  0.00     0.187 C 
HETATM   11  O   UNL     1     -38.888 -52.064  13.370  1.00  0.00    -0.388 OA
HETATM   12  C   UNL     1     -40.088 -51.536  12.777  1.00  0.00     0.187 C 
HETATM   13  C   UNL     1     -40.849 -52.616  11.997  1.00  0.00     0.150 C 
ENDBRANCH   4   8
BRANCH   1  14
HETATM   14  N   UNL     1     -46.345 -55.095  14.286  1.00  0.00    -0.302 NA
HETATM   15  H   UNL     1     -47.002 -54.349  14.494  1.00  0.00     0.124 HD
HETATM   16  H   UNL     1     -46.715 -55.751  13.604  1.00  0.00     0.124 HD
ENDBRANCH   1  14
TORSDOF 2
ENDMDL
MODEL 3
REMARK VINA RESULT:      -5.1      7.048      8.456
REMARK  2 active torsions:
REMARK  status: ('A' for Active; 'I' for Inactive)
REMARK    1  A    between atoms: N_1  and  C_2 
REMARK    2  A    between atoms: C_5  and  N_9 
ROOT
HETATM    1  C   UNL     1     -45.179 -48.260   7.624  1.00  0.00     0.021 A 
HETATM    2  C   UNL     1     -45.741 -47.928   8.846  1.00  0.00     0.028 A 
HETATM    3  C   UNL     1     -44.940 -47.422   9.872  1.00  0.00     0.050 A 
HETATM    4  C   UNL     1     -43.560 -47.277   9.699  1.00  0.00     0.103 A 
HETATM    5  N   UNL     1     -42.998 -47.647   8.530  1.00  0.00    -0.351 N 
ATOM      6  HN  UNL     1     -41.992 -47.554   8.385  1.00  0.00     0.166 HD
HETATM    7  C   UNL     1     -43.796 -48.147   7.549  1.00  0.00     0.113 A 
ENDROOT
BRANCH   4   8
HETATM    8  N   UNL     1     -42.748 -46.848  10.730  1.00  0.00    -0.363 N 
HETATM    9  C   UNL     1     -42.093 -45.534  10.723  1.00  0.00     0.150 C 
HETATM   10  C   UNL     1     -40.576 -45.679  10.510  1.00  0.00     0.187 C 
HETATM   11  O   UNL     1     -39.988 -46.581  11.461  1.00  0.00    -0.388 OA
HETATM   12  C   UNL     1     -40.579 -47.887  11.327  1.00  0.00     0.187 C 
HETATM   13  C   UNL     1     -42.090 -47.846  11.589  1.00  0.00     0.150 C 
ENDBRANCH   4   8
BRANCH   1  14
HETATM   14  N   UNL     1     -45.934 -48.908   6.642  1.00  0.00    -0.302 NA
HETATM   15  H   UNL     1     -46.678 -48.339   6.251  1.00  0.00     0.124 HD
HETATM   16  H   UNL     1     -45.380 -49.362   5.922  1.00  0.00     0.124 HD
ENDBRANCH   1  14
TORSDOF 2
ENDMDL
MODEL 4
REMARK VINA RESULT:      -4.7      6.865      8.599
REMARK  2 active torsions:
REMARK  status: ('A' for Active; 'I' for Inactive)
REMARK    1  A    between atoms: N_1  and  C_2 
REMARK    2  A    between atoms: C_5  and  N_9 
ROOT
HETATM    1  C   UNL     1     -44.855 -46.883   9.074  1.00  0.00     0.021 A 
HETATM    2  C   UNL     1     -44.665 -47.650  10.213  1.00  0.00     0.028 A 
HETATM    3  C   UNL     1     -43.399 -47.733  10.799  1.00  0.00     0.050 A 
HETATM    4  C   UNL     1     -42.302 -47.081  10.231  1.00  0.00     0.103 A 
HETATM    5  N   UNL     1     -42.468 -46.376   9.093  1.00  0.00    -0.351 N 
ATOM      6  HN  UNL     1     -41.678 -45.896   8.659  1.00  0.00     0.166 HD
HETATM    7  C   UNL     1     -43.706 -46.317   8.534  1.00  0.00     0.113 A 
ENDROOT
BRANCH   4   8
HETATM    8  N   UNL     1     -41.033 -47.216  10.759  1.00  0.00    -0.363 N 
HETATM    9  C   UNL     1     -40.698 -48.241  11.754  1.00  0.00     0.150 C 
HETATM   10  C   UNL     1     -40.455 -47.605  13.135  1.00  0.00     0.187 C 
HETATM   11  O   UNL     1     -39.475 -46.558  13.074  1.00  0.00    -0.388 OA
HETATM   12  C   UNL     1     -39.923 -45.520  12.184  1.00  0.00     0.187 C 
HETATM   13  C   UNL     1     -40.129 -46.055  10.760  1.00  0.00     0.150 C 
ENDBRANCH   4   8
BRANCH   1  14
HETATM   14  N   UNL     1     -46.073 -46.911   8.389  1.00  0.00    -0.302 NA
HETATM   15  H   UNL     1     -46.413 -47.846   8.190  1.00  0.00     0.124 HD
HETATM   16  H   UNL     1     -46.793 -46.318   8.794  1.00  0.00     0.124 HD
ENDBRANCH   1  14
TORSDOF 2
ENDMDL
MODEL 5
REMARK VINA RESULT:      -4.5      8.140      9.621
REMARK  2 active torsions:
REMARK  status: ('A' for Active; 'I' for Inactive)
REMARK    1  A    between atoms: N_1  and  C_2 
REMARK    2  A    between atoms: C_5  and  N_9 
ROOT
HETATM    1  C   UNL     1     -43.687 -47.316   8.631  1.00  0.00     0.021 A 
HETATM    2  C   UNL     1     -42.688 -47.780   9.472  1.00  0.00     0.028 A 
HETATM    3  C   UNL     1     -42.203 -46.967  10.499  1.00  0.00     0.050 A 
HETATM    4  C   UNL     1     -42.685 -45.667  10.673  1.00  0.00     0.103 A 
HETATM    5  N   UNL     1     -43.620 -45.189   9.826  1.00  0.00    -0.351 N 
ATOM      6  HN  UNL     1     -43.983 -44.241   9.933  1.00  0.00     0.166 HD
HETATM    7  C   UNL     1     -44.070 -45.995   8.827  1.00  0.00     0.113 A 
ENDROOT
BRANCH   4   8
HETATM    8  N   UNL     1     -42.162 -44.829  11.637  1.00  0.00    -0.363 N 
HETATM    9  C   UNL     1     -42.486 -43.399  11.700  1.00  0.00     0.150 C 
HETATM   10  C   UNL     1     -41.274 -42.544  11.285  1.00  0.00     0.187 C 
HETATM   11  O   UNL     1     -40.103 -42.875  12.047  1.00  0.00    -0.388 OA
HETATM   12  C   UNL     1     -39.759 -44.257  11.839  1.00  0.00     0.187 C 
HETATM   13  C   UNL     1     -40.892 -45.189  12.289  1.00  0.00     0.150 C 
ENDBRANCH   4   8
BRANCH   1  14
HETATM   14  N   UNL     1     -44.076 -48.053   7.508  1.00  0.00    -0.302 NA
HETATM   15  H   UNL     1     -44.630 -48.875   7.726  1.00  0.00     0.124 HD
HETATM   16  H   UNL     1     -44.491 -47.495   6.767  1.00  0.00     0.124 HD
ENDBRANCH   1  14
TORSDOF 2
ENDMDL
MODEL 6
REMARK VINA RESULT:      -4.4      5.534      7.495
REMARK  2 active torsions:
REMARK  status: ('A' for Active; 'I' for Inactive)
REMARK    1  A    between atoms: N_1  and  C_2 
REMARK    2  A    between atoms: C_5  and  N_9 
ROOT
HETATM    1  C   UNL     1     -42.669 -46.399   9.537  1.00  0.00     0.021 A 
HETATM    2  C   UNL     1     -41.640 -45.861  10.294  1.00  0.00     0.028 A 
HETATM    3  C   UNL     1     -40.899 -46.678  11.151  1.00  0.00     0.050 A 
HETATM    4  C   UNL     1     -41.203 -48.035  11.289  1.00  0.00     0.103 A 
HETATM    5  N   UNL     1     -42.236 -48.555  10.595  1.00  0.00    -0.351 N 
ATOM      6  HN  UNL     1     -42.478 -49.543  10.684  1.00  0.00     0.166 HD
HETATM    7  C   UNL     1     -42.950 -47.739   9.774  1.00  0.00     0.113 A 
ENDROOT
BRANCH   4   8
HETATM    8  N   UNL     1     -40.526 -48.836  12.186  1.00  0.00    -0.363 N 
HETATM    9  C   UNL     1     -39.063 -48.823  12.308  1.00  0.00     0.150 C 
HETATM   10  C   UNL     1     -38.455 -50.122  11.750  1.00  0.00     0.187 C 
HETATM   11  O   UNL     1     -39.045 -51.287  12.348  1.00  0.00    -0.388 OA
HETATM   12  C   UNL     1     -40.459 -51.311  12.080  1.00  0.00     0.187 C 
HETATM   13  C   UNL     1     -41.159 -50.076  12.662  1.00  0.00     0.150 C 
ENDBRANCH   4   8
BRANCH   1  14
HETATM   14  N   UNL     1     -43.516 -45.573   8.794  1.00  0.00    -0.302 NA
HETATM   15  H   UNL     1     -44.449 -45.952   8.661  1.00  0.00     0.124 HD
HETATM   16  H   UNL     1     -43.536 -44.606   9.107  1.00  0.00     0.124 HD
ENDBRANCH   1  14
TORSDOF 2
ENDMDL
MODEL 7
REMARK VINA RESULT:      -4.4      5.535      7.427
REMARK  2 active torsions:
REMARK  status: ('A' for Active; 'I' for Inactive)
REMARK    1  A    between atoms: N_1  and  C_2 
REMARK    2  A    between atoms: C_5  and  N_9 
ROOT
HETATM    1  C   UNL     1     -42.665 -46.044   9.942  1.00  0.00     0.021 A 
HETATM    2  C   UNL     1     -41.464 -45.830  10.600  1.00  0.00     0.028 A 
HETATM    3  C   UNL     1     -40.701 -46.916  11.038  1.00  0.00     0.050 A 
HETATM    4  C   UNL     1     -41.150 -48.227  10.855  1.00  0.00     0.103 A 
HETATM    5  N   UNL     1     -42.342 -48.442  10.262  1.00  0.00    -0.351 N 
ATOM      6  HN  UNL     1     -42.690 -49.391  10.123  1.00  0.00     0.166 HD
HETATM    7  C   UNL     1     -43.073 -47.369   9.854  1.00  0.00     0.113 A 
ENDROOT
BRANCH   4   8
HETATM    8  N   UNL     1     -40.441 -49.304  11.347  1.00  0.00    -0.363 N 
HETATM    9  C   UNL     1     -41.098 -50.508  11.871  1.00  0.00     0.150 C 
HETATM   10  C   UNL     1     -40.948 -50.593  13.401  1.00  0.00     0.187 C 
HETATM   11  O   UNL     1     -39.574 -50.496  13.807  1.00  0.00    -0.388 OA
HETATM   12  C   UNL     1     -39.024 -49.236  13.379  1.00  0.00     0.187 C 
HETATM   13  C   UNL     1     -39.075 -49.094  11.853  1.00  0.00     0.150 C 
ENDBRANCH   4   8
BRANCH   1  14
HETATM   14  N   UNL     1     -43.512 -44.975   9.636  1.00  0.00    -0.302 NA
HETATM   15  H   UNL     1     -43.096 -44.062   9.789  1.00  0.00     0.124 HD
HETATM   16  H   UNL     1     -43.959 -45.045   8.725  1.00  0.00     0.124 HD
ENDBRANCH   1  14
TORSDOF 2
ENDMDL
MODEL 8
REMARK VINA RESULT:      -4.3      3.468      5.830
REMARK  2 active torsions:
REMARK  status: ('A' for Active; 'I' for Inactive)
REMARK    1  A    between atoms: N_1  and  C_2 
REMARK    2  A    between atoms: C_5  and  N_9 
ROOT
HETATM    1  C   UNL     1     -47.862 -51.595  18.089  1.00  0.00     0.021 A 
HETATM    2  C   UNL     1     -47.965 -51.079  16.807  1.00  0.00     0.028 A 
HETATM    3  C   UNL     1     -47.104 -51.524  15.801  1.00  0.00     0.050 A 
HETATM    4  C   UNL     1     -46.106 -52.463  16.075  1.00  0.00     0.103 A 
HETATM    5  N   UNL     1     -45.965 -52.931  17.333  1.00  0.00    -0.351 N 
ATOM      6  HN  UNL     1     -45.240 -53.613  17.556  1.00  0.00     0.166 HD
HETATM    7  C   UNL     1     -46.808 -52.475  18.298  1.00  0.00     0.113 A 
ENDROOT
BRANCH   4   8
HETATM    8  N   UNL     1     -45.202 -52.856  15.108  1.00  0.00    -0.363 N 
HETATM    9  C   UNL     1     -44.995 -52.098  13.868  1.00  0.00     0.150 C 
HETATM   10  C   UNL     1     -45.568 -52.859  12.659  1.00  0.00     0.187 C 
HETATM   11  O   UNL     1     -45.052 -54.197  12.577  1.00  0.00    -0.388 OA
HETATM   12  C   UNL     1     -45.402 -54.929  13.766  1.00  0.00     0.187 C 
HETATM   13  C   UNL     1     -44.814 -54.272  15.021  1.00  0.00     0.150 C 
ENDBRANCH   4   8
BRANCH   1  14
HETATM   14  N   UNL     1     -48.609 -51.053  19.139  1.00  0.00    -0.302 NA
HETATM   15  H   UNL     1     -49.422 -51.604  19.395  1.00  0.00     0.124 HD
HETATM   16  H   UNL     1     -48.056 -50.786  19.949  1.00  0.00     0.124 HD
ENDBRANCH   1  14
TORSDOF 2
ENDMDL
MODEL 9
REMARK VINA RESULT:      -4.2      3.266      5.310
REMARK  2 active torsions:
REMARK  status: ('A' for Active; 'I' for Inactive)
REMARK    1  A    between atoms: N_1  and  C_2 
REMARK    2  A    between atoms: C_5  and  N_9 
ROOT
HETATM    1  C   UNL     1     -46.235 -50.175  17.548  1.00  0.00     0.021 A 
HETATM    2  C   UNL     1     -47.443 -50.804  17.294  1.00  0.00     0.028 A 
HETATM    3  C   UNL     1     -47.542 -51.742  16.263  1.00  0.00     0.050 A 
HETATM    4  C   UNL     1     -46.442 -52.033  15.451  1.00  0.00     0.103 A 
HETATM    5  N   UNL     1     -45.277 -51.385  15.658  1.00  0.00    -0.351 N 
ATOM      6  HN  UNL     1     -44.463 -51.579  15.074  1.00  0.00     0.166 HD
HETATM    7  C   UNL     1     -45.207 -50.468  16.661  1.00  0.00     0.113 A 
ENDROOT
BRANCH   4   8
HETATM    8  N   UNL     1     -46.546 -52.902  14.384  1.00  0.00    -0.363 N 
HETATM    9  C   UNL     1     -46.496 -54.360  14.546  1.00  0.00     0.150 C 
HETATM   10  C   UNL     1     -45.178 -54.928  13.989  1.00  0.00     0.187 C 
HETATM   11  O   UNL     1     -44.954 -54.519  12.630  1.00  0.00    -0.388 OA
HETATM   12  C   UNL     1     -44.881 -53.083  12.558  1.00  0.00     0.187 C 
HETATM   13  C   UNL     1     -46.185 -52.432  13.037  1.00  0.00     0.150 C 
ENDBRANCH   4   8
BRANCH   1  14
HETATM   14  N   UNL     1     -46.156 -49.127  18.470  1.00  0.00    -0.302 NA
HETATM   15  H   UNL     1     -47.053 -48.846  18.854  1.00  0.00     0.124 HD
HETATM   16  H   UNL     1     -45.454 -49.259  19.193  1.00  0.00     0.124 HD
ENDBRANCH   1  14
TORSDOF 2
ENDMDL
