MODEL 1
REMARK VINA RESULT:      -5.8      0.000      0.000
REMARK  5 active torsions:
REMARK  status: ('A' for Active; 'I' for Inactive)
REMARK    1  A    between atoms: C_4  and  C_5 
REMARK    2  A    between atoms: C_5  and  S_6 
REMARK    3  A    between atoms: S_6  and  N_9 
REMARK    4  A    between atoms: N_9  and  C_10 
REMARK    5  A    between atoms: C_10  and  C_11 
ROOT
HETATM    1  S   UNL     1     -41.587 -53.705  13.341  1.00  0.00     0.232 S 
HETATM    2  O   UNL     1     -40.514 -54.195  12.509  1.00  0.00    -0.206 OA
HETATM    3  O   UNL     1     -42.168 -54.511  14.396  1.00  0.00    -0.206 OA
ENDROOT
BRANCH   1   4
HETATM    4  C   UNL     1     -41.132 -52.118  14.044  1.00  0.00     0.230 C 
BRANCH   4   5
HETATM    5  C   UNL     1     -40.232 -51.423  13.103  1.00  0.00     0.093 A 
HETATM    6  C   UNL     1     -38.903 -51.071  13.109  1.00  0.00     0.062 A 
HETATM    7  C   UNL     1     -38.711 -50.403  11.881  1.00  0.00     0.031 A 
HETATM    8  C   UNL     1     -37.463 -49.822  11.337  1.00  0.00     0.070 C 
HETATM    9  N   UNL     1     -39.851 -50.329  11.186  1.00  0.00    -0.266 N 
HETATM   10  O   UNL     1     -40.803 -50.973  11.953  1.00  0.00    -0.241 OA
ATOM     11  HN  UNL     1     -39.990 -49.888  10.277  1.00  0.00     0.194 HD
ENDBRANCH   4   5
ENDBRANCH   1   4
BRANCH   1  12
HETATM   12  N   UNL     1     -42.877 -53.269  12.326  1.00  0.00    -0.319 N 
HETATM   13  H   UNL     1     -43.229 -54.016  11.729  1.00  0.00     0.172 HD
BRANCH  12  14
HETATM   14  C   UNL     1     -43.899 -52.383  12.915  1.00  0.00     0.136 C 
BRANCH  14  15
HETATM   15  C   UNL     1     -45.313 -52.936  12.654  1.00  0.00     0.004 C 
HETATM   16  C   UNL     1     -46.422 -51.875  12.759  1.00  0.00     0.006 C 
HETATM   17  C   UNL     1     -46.677 -51.401  14.191  1.00  0.00     0.000 C 
HETATM   18  C   UNL     1     -46.876 -52.556  15.169  1.00  0.00     0.000 C 
HETATM   19  C   UNL     1     -45.785 -53.617  15.059  1.00  0.00     0.000 C 
HETATM   20  C   UNL     1     -45.622 -54.095  13.616  1.00  0.00     0.006 C 
ENDBRANCH  14  15
ENDBRANCH  12  14
ENDBRANCH   1  12
TORSDOF 5
ENDMDL
MODEL 2
REMARK VINA RESULT:      -5.6      1.846      2.174
REMARK  5 active torsions:
REMARK  status: ('A' for Active; 'I' for Inactive)
REMARK    1  A    between atoms: C_4  and  C_5 
REMARK    2  A    between atoms: C_5  and  S_6 
REMARK    3  A    between atoms: S_6  and  N_9 
REMARK    4  A    between atoms: N_9  and  C_10 
REMARK    5  A    between atoms: C_10  and  C_11 
ROOT
HETATM    1  S   UNL     1     -41.487 -52.923  13.187  1.00  0.00     0.232 S 
HETATM    2  O   UNL     1     -40.505 -53.607  12.379  1.00  0.00    -0.206 OA
HETATM    3  O   UNL     1     -42.059 -53.527  14.373  1.00  0.00    -0.206 OA
ENDROOT
BRANCH   1   4
HETATM    4  C   UNL     1     -40.873 -51.297  13.636  1.00  0.00     0.230 C 
BRANCH   4   5
HETATM    5  C   UNL     1     -41.053 -50.388  12.486  1.00  0.00     0.093 A 
HETATM    6  C   UNL     1     -41.788 -49.251  12.253  1.00  0.00     0.062 A 
HETATM    7  C   UNL     1     -41.496 -48.912  10.914  1.00  0.00     0.031 A 
HETATM    8  C   UNL     1     -41.992 -47.760  10.129  1.00  0.00     0.070 C 
HETATM    9  N   UNL     1     -40.660 -49.798  10.362  1.00  0.00    -0.266 N 
HETATM   10  O   UNL     1     -40.381 -50.721  11.351  1.00  0.00    -0.241 OA
ATOM     11  HN  UNL     1     -40.303 -49.794   9.407  1.00  0.00     0.194 HD
ENDBRANCH   4   5
ENDBRANCH   1   4
BRANCH   1  12
HETATM   12  N   UNL     1     -42.801 -52.525  12.187  1.00  0.00    -0.319 N 
HETATM   13  H   UNL     1     -42.695 -52.792  11.209  1.00  0.00     0.172 HD
BRANCH  12  14
HETATM   14  C   UNL     1     -44.143 -52.723  12.765  1.00  0.00     0.136 C 
BRANCH  14  15
HETATM   15  C   UNL     1     -44.845 -51.370  12.985  1.00  0.00     0.004 C 
HETATM   16  C   UNL     1     -44.437 -50.665  14.289  1.00  0.00     0.006 C 
HETATM   17  C   UNL     1     -44.974 -51.351  15.546  1.00  0.00     0.000 C 
HETATM   18  C   UNL     1     -46.474 -51.627  15.473  1.00  0.00     0.000 C 
HETATM   19  C   UNL     1     -46.885 -52.314  14.175  1.00  0.00     0.000 C 
HETATM   20  C   UNL     1     -46.372 -51.548  12.957  1.00  0.00     0.006 C 
ENDBRANCH  14  15
ENDBRANCH  12  14
ENDBRANCH   1  12
TORSDOF 5
ENDMDL
MODEL 3
REMARK VINA RESULT:      -5.5      2.045      3.581
REMARK  5 active torsions:
REMARK  status: ('A' for Active; 'I' for Inactive)
REMARK    1  A    between atoms: C_4  and  C_5 
REMARK    2  A    between atoms: C_5  and  S_6 
REMARK    3  A    between atoms: S_6  and  N_9 
REMARK    4  A    between atoms: N_9  and  C_10 
REMARK    5  A    between atoms: C_10  and  C_11 
ROOT
HETATM    1  S   UNL     1     -41.314 -49.431  11.975  1.00  0.00     0.232 S 
HETATM    2  O   UNL     1     -41.312 -48.702  13.221  1.00  0.00    -0.206 OA
HETATM    3  O   UNL     1     -41.418 -48.760  10.694  1.00  0.00    -0.206 OA
ENDROOT
BRANCH   1   4
HETATM    4  C   UNL     1     -39.892 -50.524  11.912  1.00  0.00     0.230 C 
BRANCH   4   5
HETATM    5  C   UNL     1     -40.246 -51.801  12.563  1.00  0.00     0.093 A 
HETATM    6  C   UNL     1     -40.253 -52.262  13.858  1.00  0.00     0.062 A 
HETATM    7  C   UNL     1     -40.693 -53.599  13.752  1.00  0.00     0.031 A 
HETATM    8  C   UNL     1     -40.912 -54.582  14.836  1.00  0.00     0.070 C 
HETATM    9  N   UNL     1     -40.913 -53.938  12.477  1.00  0.00    -0.266 N 
HETATM   10  O   UNL     1     -40.636 -52.806  11.733  1.00  0.00    -0.241 OA
ATOM     11  HN  UNL     1     -41.222 -54.844  12.126  1.00  0.00     0.194 HD
ENDBRANCH   4   5
ENDBRANCH   1   4
BRANCH   1  12
HETATM   12  N   UNL     1     -42.596 -50.544  12.023  1.00  0.00    -0.319 N 
HETATM   13  H   UNL     1     -42.359 -51.488  11.721  1.00  0.00     0.172 HD
BRANCH  12  14
HETATM   14  C   UNL     1     -43.499 -50.449  13.185  1.00  0.00     0.136 C 
BRANCH  14  15
HETATM   15  C   UNL     1     -43.994 -51.846  13.605  1.00  0.00     0.004 C 
HETATM   16  C   UNL     1     -45.213 -52.336  12.807  1.00  0.00     0.006 C 
HETATM   17  C   UNL     1     -46.502 -51.583  13.138  1.00  0.00     0.000 C 
HETATM   18  C   UNL     1     -46.774 -51.510  14.639  1.00  0.00     0.000 C 
HETATM   19  C   UNL     1     -45.563 -51.037  15.436  1.00  0.00     0.000 C 
HETATM   20  C   UNL     1     -44.324 -51.868  15.106  1.00  0.00     0.006 C 
ENDBRANCH  14  15
ENDBRANCH  12  14
ENDBRANCH   1  12
TORSDOF 5
ENDMDL
MODEL 4
REMARK VINA RESULT:      -5.5      1.858      3.062
REMARK  5 active torsions:
REMARK  status: ('A' for Active; 'I' for Inactive)
REMARK    1  A    between atoms: C_4  and  C_5 
REMARK    2  A    between atoms: C_5  and  S_6 
REMARK    3  A    between atoms: S_6  and  N_9 
REMARK    4  A    between atoms: N_9  and  C_10 
REMARK    5  A    between atoms: C_10  and  C_11 
ROOT
HETATM    1  S   UNL     1     -41.914 -50.234  12.640  1.00  0.00     0.232 S 
HETATM    2  O   UNL     1     -41.956 -49.987  14.062  1.00  0.00    -0.206 OA
HETATM    3  O   UNL     1     -42.302 -49.224  11.675  1.00  0.00    -0.206 OA
ENDROOT
BRANCH   1   4
HETATM    4  C   UNL     1     -40.291 -50.846  12.180  1.00  0.00     0.230 C 
BRANCH   4   5
HETATM    5  C   UNL     1     -40.071 -52.148  12.838  1.00  0.00     0.093 A 
HETATM    6  C   UNL     1     -39.418 -52.565  13.973  1.00  0.00     0.062 A 
HETATM    7  C   UNL     1     -39.595 -53.966  13.987  1.00  0.00     0.031 A 
HETATM    8  C   UNL     1     -39.121 -54.942  14.993  1.00  0.00     0.070 C 
HETATM    9  N   UNL     1     -40.285 -54.377  12.917  1.00  0.00    -0.266 N 
HETATM   10  O   UNL     1     -40.586 -53.234  12.200  1.00  0.00    -0.241 OA
ATOM     11  HN  UNL     1     -40.537 -55.336  12.679  1.00  0.00     0.194 HD
ENDBRANCH   4   5
ENDBRANCH   1   4
BRANCH   1  12
HETATM   12  N   UNL     1     -42.890 -51.586  12.317  1.00  0.00    -0.319 N 
HETATM   13  H   UNL     1     -42.433 -52.333  11.796  1.00  0.00     0.172 HD
BRANCH  12  14
HETATM   14  C   UNL     1     -43.788 -52.017  13.404  1.00  0.00     0.136 C 
BRANCH  14  15
HETATM   15  C   UNL     1     -45.117 -52.547  12.835  1.00  0.00     0.004 C 
HETATM   16  C   UNL     1     -46.291 -51.564  12.984  1.00  0.00     0.006 C 
HETATM   17  C   UNL     1     -46.768 -51.399  14.428  1.00  0.00     0.000 C 
HETATM   18  C   UNL     1     -47.030 -52.736  15.119  1.00  0.00     0.000 C 
HETATM   19  C   UNL     1     -45.875 -53.719  14.962  1.00  0.00     0.000 C 
HETATM   20  C   UNL     1     -45.487 -53.886  13.493  1.00  0.00     0.006 C 
ENDBRANCH  14  15
ENDBRANCH  12  14
ENDBRANCH   1  12
TORSDOF 5
ENDMDL
MODEL 5
REMARK VINA RESULT:      -5.4      3.390      4.461
REMARK  5 active torsions:
REMARK  status: ('A' for Active; 'I' for Inactive)
REMARK    1  A    between atoms: C_4  and  C_5 
REMARK    2  A    between atoms: C_5  and  S_6 
REMARK    3  A    between atoms: S_6  and  N_9 
REMARK    4  A    between atoms: N_9  and  C_10 
REMARK    5  A    between atoms: C_10  and  C_11 
ROOT
HETATM    1  S   UNL     1     -40.590 -49.851  12.454  1.00  0.00     0.232 S 
HETATM    2  O   UNL     1     -39.548 -50.048  11.475  1.00  0.00    -0.206 OA
HETATM    3  O   UNL     1     -40.431 -50.259  13.836  1.00  0.00    -0.206 OA
ENDROOT
BRANCH   1   4
HETATM    4  C   UNL     1     -41.114 -48.134  12.441  1.00  0.00     0.230 C 
BRANCH   4   5
HETATM    5  C   UNL     1     -42.078 -47.941  11.341  1.00  0.00     0.093 A 
HETATM    6  C   UNL     1     -43.380 -47.508  11.254  1.00  0.00     0.062 A 
HETATM    7  C   UNL     1     -43.688 -47.593   9.879  1.00  0.00     0.031 A 
HETATM    8  C   UNL     1     -44.950 -47.234   9.196  1.00  0.00     0.070 C 
HETATM    9  N   UNL     1     -42.653 -48.072   9.180  1.00  0.00    -0.266 N 
HETATM   10  O   UNL     1     -41.643 -48.286  10.099  1.00  0.00    -0.241 OA
ATOM     11  HN  UNL     1     -42.616 -48.244   8.175  1.00  0.00     0.194 HD
ENDBRANCH   4   5
ENDBRANCH   1   4
BRANCH   1  12
HETATM   12  N   UNL     1     -41.988 -50.636  11.895  1.00  0.00    -0.319 N 
HETATM   13  H   UNL     1     -41.940 -50.971  10.934  1.00  0.00     0.172 HD
BRANCH  12  14
HETATM   14  C   UNL     1     -42.659 -51.533  12.854  1.00  0.00     0.136 C 
BRANCH  14  15
HETATM   15  C   UNL     1     -42.674 -52.980  12.326  1.00  0.00     0.004 C 
HETATM   16  C   UNL     1     -43.989 -53.728  12.606  1.00  0.00     0.006 C 
HETATM   17  C   UNL     1     -44.191 -54.074  14.081  1.00  0.00     0.000 C 
HETATM   18  C   UNL     1     -42.979 -54.769  14.697  1.00  0.00     0.000 C 
HETATM   19  C   UNL     1     -41.671 -54.038  14.411  1.00  0.00     0.000 C 
HETATM   20  C   UNL     1     -41.498 -53.777  12.915  1.00  0.00     0.006 C 
ENDBRANCH  14  15
ENDBRANCH  12  14
ENDBRANCH   1  12
TORSDOF 5
ENDMDL
MODEL 6
REMARK VINA RESULT:      -5.4      3.257      3.851
REMARK  5 active torsions:
REMARK  status: ('A' for Active; 'I' for Inactive)
REMARK    1  A    between atoms: C_4  and  C_5 
REMARK    2  A    between atoms: C_5  and  S_6 
REMARK    3  A    between atoms: S_6  and  N_9 
REMARK    4  A    between atoms: N_9  and  C_10 
REMARK    5  A    between atoms: C_10  and  C_11 
ROOT
HETATM    1  S   UNL     1     -41.868 -50.328  12.847  1.00  0.00     0.232 S 
HETATM    2  O   UNL     1     -41.222 -51.078  11.796  1.00  0.00    -0.206 OA
HETATM    3  O   UNL     1     -41.641 -50.620  14.249  1.00  0.00    -0.206 OA
ENDROOT
BRANCH   1   4
HETATM    4  C   UNL     1     -41.589 -48.573  12.597  1.00  0.00     0.230 C 
BRANCH   4   5
HETATM    5  C   UNL     1     -42.317 -48.145  11.386  1.00  0.00     0.093 A 
HETATM    6  C   UNL     1     -43.536 -47.559  11.141  1.00  0.00     0.062 A 
HETATM    7  C   UNL     1     -43.598 -47.450   9.735  1.00  0.00     0.031 A 
HETATM    8  C   UNL     1     -44.678 -46.872   8.905  1.00  0.00     0.070 C 
HETATM    9  N   UNL     1     -42.502 -47.960   9.161  1.00  0.00    -0.266 N 
HETATM   10  O   UNL     1     -41.699 -48.391  10.199  1.00  0.00    -0.241 OA
ATOM     11  HN  UNL     1     -42.301 -48.018   8.163  1.00  0.00     0.194 HD
ENDBRANCH   4   5
ENDBRANCH   1   4
BRANCH   1  12
HETATM   12  N   UNL     1     -43.546 -50.441  12.614  1.00  0.00    -0.319 N 
HETATM   13  H   UNL     1     -43.833 -50.719  11.677  1.00  0.00     0.172 HD
BRANCH  12  14
HETATM   14  C   UNL     1     -44.320 -51.030  13.723  1.00  0.00     0.136 C 
BRANCH  14  15
HETATM   15  C   UNL     1     -45.746 -51.386  13.262  1.00  0.00     0.004 C 
HETATM   16  C   UNL     1     -46.785 -51.371  14.396  1.00  0.00     0.006 C 
HETATM   17  C   UNL     1     -46.624 -52.526  15.386  1.00  0.00     0.000 C 
HETATM   18  C   UNL     1     -46.526 -53.885  14.697  1.00  0.00     0.000 C 
HETATM   19  C   UNL     1     -45.506 -53.901  13.563  1.00  0.00     0.000 C 
HETATM   20  C   UNL     1     -45.759 -52.762  12.576  1.00  0.00     0.006 C 
ENDBRANCH  14  15
ENDBRANCH  12  14
ENDBRANCH   1  12
TORSDOF 5
ENDMDL
MODEL 7
REMARK VINA RESULT:      -5.3      3.893      4.376
REMARK  5 active torsions:
REMARK  status: ('A' for Active; 'I' for Inactive)
REMARK    1  A    between atoms: C_4  and  C_5 
REMARK    2  A    between atoms: C_5  and  S_6 
REMARK    3  A    between atoms: S_6  and  N_9 
REMARK    4  A    between atoms: N_9  and  C_10 
REMARK    5  A    between atoms: C_10  and  C_11 
ROOT
HETATM    1  S   UNL     1     -42.389 -49.133  13.061  1.00  0.00     0.232 S 
HETATM    2  O   UNL     1     -41.209 -49.575  12.357  1.00  0.00    -0.206 OA
HETATM    3  O   UNL     1     -42.451 -49.100  14.509  1.00  0.00    -0.206 OA
ENDROOT
BRANCH   1   4
HETATM    4  C   UNL     1     -42.890 -47.522  12.449  1.00  0.00     0.230 C 
BRANCH   4   5
HETATM    5  C   UNL     1     -43.235 -47.644  11.019  1.00  0.00     0.093 A 
HETATM    6  C   UNL     1     -42.520 -47.663   9.845  1.00  0.00     0.062 A 
HETATM    7  C   UNL     1     -43.500 -47.789   8.838  1.00  0.00     0.031 A 
HETATM    8  C   UNL     1     -43.307 -47.882   7.374  1.00  0.00     0.070 C 
HETATM    9  N   UNL     1     -44.731 -47.817   9.361  1.00  0.00    -0.266 N 
HETATM   10  O   UNL     1     -44.561 -47.730  10.730  1.00  0.00    -0.241 OA
ATOM     11  HN  UNL     1     -45.613 -47.888   8.855  1.00  0.00     0.194 HD
ENDBRANCH   4   5
ENDBRANCH   1   4
BRANCH   1  12
HETATM   12  N   UNL     1     -43.689 -50.105  12.562  1.00  0.00    -0.319 N 
HETATM   13  H   UNL     1     -43.574 -50.544  11.650  1.00  0.00     0.172 HD
BRANCH  12  14
HETATM   14  C   UNL     1     -44.315 -50.942  13.603  1.00  0.00     0.136 C 
BRANCH  14  15
HETATM   15  C   UNL     1     -45.742 -51.347  13.190  1.00  0.00     0.004 C 
HETATM   16  C   UNL     1     -46.744 -51.362  14.358  1.00  0.00     0.006 C 
HETATM   17  C   UNL     1     -46.512 -52.507  15.345  1.00  0.00     0.000 C 
HETATM   18  C   UNL     1     -46.393 -53.865  14.656  1.00  0.00     0.000 C 
HETATM   19  C   UNL     1     -45.411 -53.851  13.489  1.00  0.00     0.000 C 
HETATM   20  C   UNL     1     -45.733 -52.725  12.508  1.00  0.00     0.006 C 
ENDBRANCH  14  15
ENDBRANCH  12  14
ENDBRANCH   1  12
TORSDOF 5
ENDMDL
MODEL 8
REMARK VINA RESULT:      -5.3      1.772      2.316
REMARK  5 active torsions:
REMARK  status: ('A' for Active; 'I' for Inactive)
REMARK    1  A    between atoms: C_4  and  C_5 
REMARK    2  A    between atoms: C_5  and  S_6 
REMARK    3  A    between atoms: S_6  and  N_9 
REMARK    4  A    between atoms: N_9  and  C_10 
REMARK    5  A    between atoms: C_10  and  C_11 
ROOT
HETATM    1  S   UNL     1     -41.204 -54.356  15.432  1.00  0.00     0.232 S 
HETATM    2  O   UNL     1     -41.004 -55.647  16.047  1.00  0.00    -0.206 OA
HETATM    3  O   UNL     1     -41.469 -53.166  16.217  1.00  0.00    -0.206 OA
ENDROOT
BRANCH   1   4
HETATM    4  C   UNL     1     -39.839 -53.995  14.325  1.00  0.00     0.230 C 
BRANCH   4   5
HETATM    5  C   UNL     1     -40.278 -52.982  13.345  1.00  0.00     0.093 A 
HETATM    6  C   UNL     1     -40.400 -51.613  13.351  1.00  0.00     0.062 A 
HETATM    7  C   UNL     1     -40.903 -51.300  12.070  1.00  0.00     0.031 A 
HETATM    8  C   UNL     1     -41.211 -49.967  11.505  1.00  0.00     0.070 C 
HETATM    9  N   UNL     1     -41.101 -52.405  11.343  1.00  0.00    -0.266 N 
HETATM   10  O   UNL     1     -40.704 -53.459  12.144  1.00  0.00    -0.241 OA
ATOM     11  HN  UNL     1     -41.468 -52.460  10.393  1.00  0.00     0.194 HD
ENDBRANCH   4   5
ENDBRANCH   1   4
BRANCH   1  12
HETATM   12  N   UNL     1     -42.499 -54.492  14.341  1.00  0.00    -0.319 N 
HETATM   13  H   UNL     1     -42.480 -55.322  13.751  1.00  0.00     0.172 HD
BRANCH  12  14
HETATM   14  C   UNL     1     -43.825 -54.096  14.851  1.00  0.00     0.136 C 
BRANCH  14  15
HETATM   15  C   UNL     1     -44.867 -54.100  13.717  1.00  0.00     0.004 C 
HETATM   16  C   UNL     1     -44.656 -52.985  12.678  1.00  0.00     0.006 C 
HETATM   17  C   UNL     1     -44.976 -51.588  13.209  1.00  0.00     0.000 C 
HETATM   18  C   UNL     1     -46.345 -51.511  13.882  1.00  0.00     0.000 C 
HETATM   19  C   UNL     1     -46.564 -52.622  14.903  1.00  0.00     0.000 C 
HETATM   20  C   UNL     1     -46.288 -53.996  14.294  1.00  0.00     0.006 C 
ENDBRANCH  14  15
ENDBRANCH  12  14
ENDBRANCH   1  12
TORSDOF 5
ENDMDL
MODEL 9
REMARK VINA RESULT:      -5.2      2.451      2.880
REMARK  5 active torsions:
REMARK  status: ('A' for Active; 'I' for Inactive)
REMARK    1  A    between atoms: C_4  and  C_5 
REMARK    2  A    between atoms: C_5  and  S_6 
REMARK    3  A    between atoms: S_6  and  N_9 
REMARK    4  A    between atoms: N_9  and  C_10 
REMARK    5  A    between atoms: C_10  and  C_11 
ROOT
HETATM    1  S   UNL     1     -42.238 -50.653  12.863  1.00  0.00     0.232 S 
HETATM    2  O   UNL     1     -41.624 -50.974  14.130  1.00  0.00    -0.206 OA
HETATM    3  O   UNL     1     -43.187 -49.565  12.725  1.00  0.00    -0.206 OA
ENDROOT
BRANCH   1   4
HETATM    4  C   UNL     1     -40.969 -50.442  11.612  1.00  0.00     0.230 C 
BRANCH   4   5
HETATM    5  C   UNL     1     -40.802 -49.000  11.343  1.00  0.00     0.093 A 
HETATM    6  C   UNL     1     -40.095 -47.978  11.929  1.00  0.00     0.062 A 
HETATM    7  C   UNL     1     -40.415 -46.841  11.156  1.00  0.00     0.031 A 
HETATM    8  C   UNL     1     -39.923 -45.455  11.315  1.00  0.00     0.070 C 
HETATM    9  N   UNL     1     -41.280 -47.145  10.182  1.00  0.00    -0.266 N 
HETATM   10  O   UNL     1     -41.518 -48.501  10.299  1.00  0.00    -0.241 OA
ATOM     11  HN  UNL     1     -41.681 -46.508   9.495  1.00  0.00     0.194 HD
ENDBRANCH   4   5
ENDBRANCH   1   4
BRANCH   1  12
HETATM   12  N   UNL     1     -43.039 -52.043  12.304  1.00  0.00    -0.319 N 
HETATM   13  H   UNL     1     -42.549 -52.558  11.574  1.00  0.00     0.172 HD
BRANCH  12  14
HETATM   14  C   UNL     1     -43.712 -52.863  13.328  1.00  0.00     0.136 C 
BRANCH  14  15
HETATM   15  C   UNL     1     -45.127 -53.257  12.865  1.00  0.00     0.004 C 
HETATM   16  C   UNL     1     -46.087 -52.064  12.721  1.00  0.00     0.006 C 
HETATM   17  C   UNL     1     -46.501 -51.451  14.060  1.00  0.00     0.000 C 
HETATM   18  C   UNL     1     -47.006 -52.494  15.055  1.00  0.00     0.000 C 
HETATM   19  C   UNL     1     -46.063 -53.685  15.191  1.00  0.00     0.000 C 
HETATM   20  C   UNL     1     -45.738 -54.291  13.826  1.00  0.00     0.006 C 
ENDBRANCH  14  15
ENDBRANCH  12  14
ENDBRANCH   1  12
TORSDOF 5
ENDMDL
