MODEL 1
REMARK VINA RESULT:      -5.9      0.000      0.000
REMARK  4 active torsions:
REMARK  status: ('A' for Active; 'I' for Inactive)
REMARK    1  A    between atoms: C_2  and  N_3 
REMARK    2  A    between atoms: C_5  and  N_6 
REMARK       I    between atoms: N_6  and  C_7 
REMARK       I    between atoms: C_7  and  N_9 
REMARK    3  A    between atoms: N_9  and  C_10 
REMARK    4  A    between atoms: C_10  and  C_11 
ROOT
HETATM    1  N   UNL     1     -41.697 -47.137   9.816  1.00  0.00    -0.306 N 
HETATM    2  C   UNL     1     -41.217 -47.500  11.054  1.00  0.00     0.320 C 
HETATM    3  O   UNL     1     -41.867 -47.593  12.089  1.00  0.00    -0.247 OA
HETATM    4  N   UNL     1     -39.860 -47.776  11.011  1.00  0.00    -0.342 N 
HETATM    5  H   UNL     1     -41.089 -47.257   9.020  1.00  0.00     0.171 HD
HETATM    6  H   UNL     1     -39.337 -47.201  10.367  1.00  0.00     0.164 HD
ENDROOT
BRANCH   1   7
HETATM    7  C   UNL     1     -43.001 -46.750   9.555  1.00  0.00     0.070 A 
HETATM    8  C   UNL     1     -44.114 -47.545   9.419  1.00  0.00     0.141 A 
HETATM    9  N   UNL     1     -45.164 -46.704   9.190  1.00  0.00    -0.302 N 
HETATM   10  N   UNL     1     -44.811 -45.404   9.159  1.00  0.00    -0.308 N 
HETATM   11  C   UNL     1     -43.493 -45.438   9.381  1.00  0.00     0.138 A 
ATOM     12  HN  UNL     1     -45.406 -44.590   9.003  1.00  0.00     0.186 HD
BRANCH   9  13
HETATM   13  C   UNL     1     -46.550 -47.092   9.011  1.00  0.00     0.143 C 
HETATM   14  C   UNL     1     -46.693 -48.585   8.779  1.00  0.00     0.028 C 
ENDBRANCH   9  13
ENDBRANCH   1   7
BRANCH   4  15
HETATM   15  C   UNL     1     -39.205 -48.129  12.256  1.00  0.00     0.131 C 
BRANCH  15  16
HETATM   16  C   UNL     1     -38.830 -49.600  12.340  1.00  0.00     0.029 C 
HETATM   17  C   UNL     1     -38.203 -50.035  13.650  1.00  0.00     0.034 C 
HETATM   18  C   UNL     1     -37.256 -51.156  13.251  1.00  0.00     0.168 C 
HETATM   19  O   UNL     1     -37.184 -51.181  11.820  1.00  0.00    -0.391 OA
HETATM   20  C   UNL     1     -37.750 -49.961  11.337  1.00  0.00     0.173 C 
ENDBRANCH  15  16
ENDBRANCH   4  15
TORSDOF 4
ENDMDL
MODEL 2
REMARK VINA RESULT:      -5.9      2.758      7.100
REMARK  4 active torsions:
REMARK  status: ('A' for Active; 'I' for Inactive)
REMARK    1  A    between atoms: C_2  and  N_3 
REMARK    2  A    between atoms: C_5  and  N_6 
REMARK       I    between atoms: N_6  and  C_7 
REMARK       I    between atoms: C_7  and  N_9 
REMARK    3  A    between atoms: N_9  and  C_10 
REMARK    4  A    between atoms: C_10  and  C_11 
ROOT
HETATM    1  N   UNL     1     -40.846 -49.346  10.483  1.00  0.00    -0.306 N 
HETATM    2  C   UNL     1     -41.769 -48.348  10.706  1.00  0.00     0.320 C 
HETATM    3  O   UNL     1     -42.246 -48.026  11.788  1.00  0.00    -0.247 OA
HETATM    4  N   UNL     1     -42.113 -47.704   9.529  1.00  0.00    -0.342 N 
HETATM    5  H   UNL     1     -40.419 -49.397   9.570  1.00  0.00     0.171 HD
HETATM    6  H   UNL     1     -42.139 -48.302   8.717  1.00  0.00     0.164 HD
ENDROOT
BRANCH   1   7
HETATM    7  C   UNL     1     -40.353 -50.199  11.455  1.00  0.00     0.070 A 
HETATM    8  C   UNL     1     -40.962 -51.298  12.013  1.00  0.00     0.141 A 
HETATM    9  N   UNL     1     -40.074 -51.820  12.907  1.00  0.00    -0.302 N 
HETATM   10  N   UNL     1     -38.920 -51.129  12.981  1.00  0.00    -0.308 N 
HETATM   11  C   UNL     1     -39.096 -50.143  12.096  1.00  0.00     0.138 A 
ATOM     12  HN  UNL     1     -38.108 -51.314  13.570  1.00  0.00     0.186 HD
BRANCH   9  13
HETATM   13  C   UNL     1     -40.270 -53.007  13.716  1.00  0.00     0.143 C 
HETATM   14  C   UNL     1     -40.921 -54.129  12.926  1.00  0.00     0.028 C 
ENDBRANCH   9  13
ENDBRANCH   1   7
BRANCH   4  15
HETATM   15  C   UNL     1     -43.115 -46.657   9.603  1.00  0.00     0.131 C 
BRANCH  15  16
HETATM   16  C   UNL     1     -44.345 -46.944   8.757  1.00  0.00     0.029 C 
HETATM   17  C   UNL     1     -45.551 -47.456   9.521  1.00  0.00     0.034 C 
HETATM   18  C   UNL     1     -46.258 -48.364   8.527  1.00  0.00     0.168 C 
HETATM   19  O   UNL     1     -45.396 -48.531   7.395  1.00  0.00    -0.391 OA
HETATM   20  C   UNL     1     -44.096 -48.067   7.769  1.00  0.00     0.173 C 
ENDBRANCH  15  16
ENDBRANCH   4  15
TORSDOF 4
ENDMDL
MODEL 3
REMARK VINA RESULT:      -5.7      4.774      6.258
REMARK  4 active torsions:
REMARK  status: ('A' for Active; 'I' for Inactive)
REMARK    1  A    between atoms: C_2  and  N_3 
REMARK    2  A    between atoms: C_5  and  N_6 
REMARK       I    between atoms: N_6  and  C_7 
REMARK       I    between atoms: C_7  and  N_9 
REMARK    3  A    between atoms: N_9  and  C_10 
REMARK    4  A    between atoms: C_10  and  C_11 
ROOT
HETATM    1  N   UNL     1     -40.945 -51.037  11.270  1.00  0.00    -0.306 N 
HETATM    2  C   UNL     1     -41.311 -51.708  12.415  1.00  0.00     0.320 C 
HETATM    3  O   UNL     1     -41.451 -51.222  13.532  1.00  0.00    -0.247 OA
HETATM    4  N   UNL     1     -41.527 -53.054  12.167  1.00  0.00    -0.342 N 
HETATM    5  H   UNL     1     -41.023 -51.526  10.392  1.00  0.00     0.171 HD
HETATM    6  H   UNL     1     -40.918 -53.454  11.469  1.00  0.00     0.164 HD
ENDROOT
BRANCH   1   7
HETATM    7  C   UNL     1     -40.609 -49.695  11.213  1.00  0.00     0.070 A 
HETATM    8  C   UNL     1     -41.387 -48.639  10.803  1.00  0.00     0.141 A 
HETATM    9  N   UNL     1     -40.624 -47.518  10.946  1.00  0.00    -0.302 N 
HETATM   10  N   UNL     1     -39.387 -47.769  11.419  1.00  0.00    -0.308 N 
HETATM   11  C   UNL     1     -39.384 -49.096  11.578  1.00  0.00     0.138 A 
ATOM     12  HN  UNL     1     -38.635 -47.106  11.609  1.00  0.00     0.186 HD
BRANCH   9  13
HETATM   13  C   UNL     1     -41.037 -46.157  10.663  1.00  0.00     0.143 C 
HETATM   14  C   UNL     1     -39.850 -45.218  10.549  1.00  0.00     0.028 C 
ENDBRANCH   9  13
ENDBRANCH   1   7
BRANCH   4  15
HETATM   15  C   UNL     1     -41.875 -53.899  13.294  1.00  0.00     0.131 C 
BRANCH  15  16
HETATM   16  C   UNL     1     -43.348 -53.826  13.664  1.00  0.00     0.029 C 
HETATM   17  C   UNL     1     -43.901 -55.054  14.362  1.00  0.00     0.034 C 
HETATM   18  C   UNL     1     -45.354 -55.107  13.917  1.00  0.00     0.168 C 
HETATM   19  O   UNL     1     -45.530 -54.137  12.877  1.00  0.00    -0.391 OA
HETATM   20  C   UNL     1     -44.231 -53.736  12.435  1.00  0.00     0.173 C 
ENDBRANCH  15  16
ENDBRANCH   4  15
TORSDOF 4
ENDMDL
MODEL 4
REMARK VINA RESULT:      -5.6      4.401      6.940
REMARK  4 active torsions:
REMARK  status: ('A' for Active; 'I' for Inactive)
REMARK    1  A    between atoms: C_2  and  N_3 
REMARK    2  A    between atoms: C_5  and  N_6 
REMARK       I    between atoms: N_6  and  C_7 
REMARK       I    between atoms: C_7  and  N_9 
REMARK    3  A    between atoms: N_9  and  C_10 
REMARK    4  A    between atoms: C_10  and  C_11 
ROOT
HETATM    1  N   UNL     1     -41.387 -51.399  11.342  1.00  0.00    -0.306 N 
HETATM    2  C   UNL     1     -41.312 -50.074  11.712  1.00  0.00     0.320 C 
HETATM    3  O   UNL     1     -41.426 -49.627  12.847  1.00  0.00    -0.247 OA
HETATM    4  N   UNL     1     -41.072 -49.256  10.620  1.00  0.00    -0.342 N 
HETATM    5  H   UNL     1     -41.116 -51.642  10.401  1.00  0.00     0.171 HD
HETATM    6  H   UNL     1     -41.510 -49.562   9.764  1.00  0.00     0.164 HD
ENDROOT
BRANCH   1   7
HETATM    7  C   UNL     1     -41.671 -52.445  12.203  1.00  0.00     0.070 A 
HETATM    8  C   UNL     1     -42.884 -52.794  12.747  1.00  0.00     0.141 A 
HETATM    9  N   UNL     1     -42.661 -53.902  13.511  1.00  0.00    -0.302 N 
HETATM   10  N   UNL     1     -41.374 -54.301  13.512  1.00  0.00    -0.308 N 
HETATM   11  C   UNL     1     -40.776 -53.409  12.714  1.00  0.00     0.138 A 
ATOM     12  HN  UNL     1     -40.956 -55.092  14.003  1.00  0.00     0.186 HD
BRANCH   9  13
HETATM   13  C   UNL     1     -43.658 -54.644  14.259  1.00  0.00     0.143 C 
HETATM   14  C   UNL     1     -44.993 -54.680  13.537  1.00  0.00     0.028 C 
ENDBRANCH   9  13
ENDBRANCH   1   7
BRANCH   4  15
HETATM   15  C   UNL     1     -41.014 -47.825  10.851  1.00  0.00     0.131 C 
BRANCH  15  16
HETATM   16  C   UNL     1     -42.312 -47.110  10.507  1.00  0.00     0.029 C 
HETATM   17  C   UNL     1     -43.007 -47.599   9.252  1.00  0.00     0.034 C 
HETATM   18  C   UNL     1     -43.700 -46.359   8.707  1.00  0.00     0.168 C 
HETATM   19  O   UNL     1     -43.235 -45.232   9.461  1.00  0.00    -0.391 OA
HETATM   20  C   UNL     1     -42.078 -45.645  10.191  1.00  0.00     0.173 C 
ENDBRANCH  15  16
ENDBRANCH   4  15
TORSDOF 4
ENDMDL
MODEL 5
REMARK VINA RESULT:      -5.3      5.360      6.186
REMARK  4 active torsions:
REMARK  status: ('A' for Active; 'I' for Inactive)
REMARK    1  A    between atoms: C_2  and  N_3 
REMARK    2  A    between atoms: C_5  and  N_6 
REMARK       I    between atoms: N_6  and  C_7 
REMARK       I    between atoms: C_7  and  N_9 
REMARK    3  A    between atoms: N_9  and  C_10 
REMARK    4  A    between atoms: C_10  and  C_11 
ROOT
HETATM    1  N   UNL     1     -43.102 -52.623  11.988  1.00  0.00    -0.306 N 
HETATM    2  C   UNL     1     -41.961 -52.068  12.524  1.00  0.00     0.320 C 
HETATM    3  O   UNL     1     -41.704 -51.941  13.716  1.00  0.00    -0.247 OA
HETATM    4  N   UNL     1     -41.083 -51.657  11.534  1.00  0.00    -0.342 N 
HETATM    5  H   UNL     1     -43.114 -52.811  10.997  1.00  0.00     0.171 HD
HETATM    6  H   UNL     1     -41.529 -51.298  10.703  1.00  0.00     0.164 HD
ENDROOT
BRANCH   1   7
HETATM    7  C   UNL     1     -44.184 -53.073  12.725  1.00  0.00     0.070 A 
HETATM    8  C   UNL     1     -45.106 -52.332  13.425  1.00  0.00     0.141 A 
HETATM    9  N   UNL     1     -45.987 -53.221  13.966  1.00  0.00    -0.302 N 
HETATM   10  N   UNL     1     -45.699 -54.505  13.673  1.00  0.00    -0.308 N 
HETATM   11  C   UNL     1     -44.600 -54.409  12.918  1.00  0.00     0.138 A 
ATOM     12  HN  UNL     1     -46.200 -55.347  13.959  1.00  0.00     0.186 HD
BRANCH   9  13
HETATM   13  C   UNL     1     -47.151 -52.896  14.766  1.00  0.00     0.143 C 
HETATM   14  C   UNL     1     -47.058 -51.501  15.358  1.00  0.00     0.028 C 
ENDBRANCH   9  13
ENDBRANCH   1   7
BRANCH   4  15
HETATM   15  C   UNL     1     -39.854 -51.009  11.952  1.00  0.00     0.131 C 
BRANCH  15  16
HETATM   16  C   UNL     1     -39.703 -49.601  11.399  1.00  0.00     0.029 C 
HETATM   17  C   UNL     1     -39.151 -48.579  12.374  1.00  0.00     0.034 C 
HETATM   18  C   UNL     1     -39.808 -47.274  11.951  1.00  0.00     0.168 C 
HETATM   19  O   UNL     1     -40.817 -47.585  10.982  1.00  0.00    -0.391 OA
HETATM   20  C   UNL     1     -41.044 -48.996  11.031  1.00  0.00     0.173 C 
ENDBRANCH  15  16
ENDBRANCH   4  15
TORSDOF 4
ENDMDL
MODEL 6
REMARK VINA RESULT:      -5.2      4.624      5.748
REMARK  4 active torsions:
REMARK  status: ('A' for Active; 'I' for Inactive)
REMARK    1  A    between atoms: C_2  and  N_3 
REMARK    2  A    between atoms: C_5  and  N_6 
REMARK       I    between atoms: N_6  and  C_7 
REMARK       I    between atoms: C_7  and  N_9 
REMARK    3  A    between atoms: N_9  and  C_10 
REMARK    4  A    between atoms: C_10  and  C_11 
ROOT
HETATM    1  N   UNL     1     -42.680 -49.512  11.759  1.00  0.00    -0.306 N 
HETATM    2  C   UNL     1     -41.918 -50.617  12.064  1.00  0.00     0.320 C 
HETATM    3  O   UNL     1     -40.711 -50.741  11.890  1.00  0.00    -0.247 OA
HETATM    4  N   UNL     1     -42.687 -51.623  12.627  1.00  0.00    -0.342 N 
HETATM    5  H   UNL     1     -43.629 -49.484  12.101  1.00  0.00     0.171 HD
HETATM    6  H   UNL     1     -43.624 -51.689  12.259  1.00  0.00     0.164 HD
ENDROOT
BRANCH   1   7
HETATM    7  C   UNL     1     -42.204 -48.371  11.136  1.00  0.00     0.070 A 
HETATM    8  C   UNL     1     -41.225 -47.509  11.570  1.00  0.00     0.141 A 
HETATM    9  N   UNL     1     -41.097 -46.552  10.607  1.00  0.00    -0.302 N 
HETATM   10  N   UNL     1     -41.938 -46.723   9.568  1.00  0.00    -0.308 N 
HETATM   11  C   UNL     1     -42.610 -47.831   9.896  1.00  0.00     0.138 A 
ATOM     12  HN  UNL     1     -42.038 -46.146   8.732  1.00  0.00     0.186 HD
BRANCH   9  13
HETATM   13  C   UNL     1     -40.161 -45.444  10.617  1.00  0.00     0.143 C 
HETATM   14  C   UNL     1     -39.731 -45.082  12.027  1.00  0.00     0.028 C 
ENDBRANCH   9  13
ENDBRANCH   1   7
BRANCH   4  15
HETATM   15  C   UNL     1     -42.024 -52.871  12.959  1.00  0.00     0.131 C 
BRANCH  15  16
HETATM   16  C   UNL     1     -42.984 -54.044  13.080  1.00  0.00     0.029 C 
HETATM   17  C   UNL     1     -44.438 -53.724  12.791  1.00  0.00     0.034 C 
HETATM   18  C   UNL     1     -45.210 -54.681  13.686  1.00  0.00     0.168 C 
HETATM   19  O   UNL     1     -44.272 -55.310  14.568  1.00  0.00    -0.391 OA
HETATM   20  C   UNL     1     -43.051 -54.570  14.501  1.00  0.00     0.173 C 
ENDBRANCH  15  16
ENDBRANCH   4  15
TORSDOF 4
ENDMDL
MODEL 7
REMARK VINA RESULT:      -5.1      4.277      6.550
REMARK  4 active torsions:
REMARK  status: ('A' for Active; 'I' for Inactive)
REMARK    1  A    between atoms: C_2  and  N_3 
REMARK    2  A    between atoms: C_5  and  N_6 
REMARK       I    between atoms: N_6  and  C_7 
REMARK       I    between atoms: C_7  and  N_9 
REMARK    3  A    between atoms: N_9  and  C_10 
REMARK    4  A    between atoms: C_10  and  C_11 
ROOT
HETATM    1  N   UNL     1     -41.435 -50.688  11.441  1.00  0.00    -0.306 N 
HETATM    2  C   UNL     1     -40.641 -49.705  11.988  1.00  0.00     0.320 C 
HETATM    3  O   UNL     1     -40.069 -49.748  13.071  1.00  0.00    -0.247 OA
HETATM    4  N   UNL     1     -40.539 -48.609  11.145  1.00  0.00    -0.342 N 
HETATM    5  H   UNL     1     -41.712 -50.589  10.476  1.00  0.00     0.171 HD
HETATM    6  H   UNL     1     -41.375 -48.408  10.617  1.00  0.00     0.164 HD
ENDROOT
BRANCH   1   7
HETATM    7  C   UNL     1     -41.769 -51.875  12.070  1.00  0.00     0.070 A 
HETATM    8  C   UNL     1     -42.907 -52.172  12.781  1.00  0.00     0.141 A 
HETATM    9  N   UNL     1     -42.782 -53.469  13.187  1.00  0.00    -0.302 N 
HETATM   10  N   UNL     1     -41.629 -54.044  12.794  1.00  0.00    -0.308 N 
HETATM   11  C   UNL     1     -41.015 -53.069  12.115  1.00  0.00     0.138 A 
ATOM     12  HN  UNL     1     -41.302 -54.994  12.972  1.00  0.00     0.186 HD
BRANCH   9  13
HETATM   13  C   UNL     1     -43.758 -54.227  13.946  1.00  0.00     0.143 C 
HETATM   14  C   UNL     1     -43.095 -55.152  14.951  1.00  0.00     0.028 C 
ENDBRANCH   9  13
ENDBRANCH   1   7
BRANCH   4  15
HETATM   15  C   UNL     1     -39.769 -47.472  11.611  1.00  0.00     0.131 C 
BRANCH  15  16
HETATM   16  C   UNL     1     -40.062 -46.194  10.840  1.00  0.00     0.029 C 
HETATM   17  C   UNL     1     -39.708 -44.907  11.560  1.00  0.00     0.034 C 
HETATM   18  C   UNL     1     -40.733 -43.906  11.051  1.00  0.00     0.168 C 
HETATM   19  O   UNL     1     -41.716 -44.630  10.299  1.00  0.00    -0.391 OA
HETATM   20  C   UNL     1     -41.547 -46.019  10.589  1.00  0.00     0.173 C 
ENDBRANCH  15  16
ENDBRANCH   4  15
TORSDOF 4
ENDMDL
MODEL 8
REMARK VINA RESULT:      -5.0      3.120      4.395
REMARK  4 active torsions:
REMARK  status: ('A' for Active; 'I' for Inactive)
REMARK    1  A    between atoms: C_2  and  N_3 
REMARK    2  A    between atoms: C_5  and  N_6 
REMARK       I    between atoms: N_6  and  C_7 
REMARK       I    between atoms: C_7  and  N_9 
REMARK    3  A    between atoms: N_9  and  C_10 
REMARK    4  A    between atoms: C_10  and  C_11 
ROOT
HETATM    1  N   UNL     1     -41.738 -49.341  10.934  1.00  0.00    -0.306 N 
HETATM    2  C   UNL     1     -42.193 -49.852  12.129  1.00  0.00     0.320 C 
HETATM    3  O   UNL     1     -42.520 -49.208  13.119  1.00  0.00    -0.247 OA
HETATM    4  N   UNL     1     -42.258 -51.236  12.096  1.00  0.00    -0.342 N 
HETATM    5  H   UNL     1     -41.659 -49.972  10.151  1.00  0.00     0.171 HD
HETATM    6  H   UNL     1     -41.530 -51.676  11.553  1.00  0.00     0.164 HD
ENDROOT
BRANCH   1   7
HETATM    7  C   UNL     1     -41.515 -47.998  10.682  1.00  0.00     0.070 A 
HETATM    8  C   UNL     1     -40.441 -47.228  11.060  1.00  0.00     0.141 A 
HETATM    9  N   UNL     1     -40.666 -45.978  10.562  1.00  0.00    -0.302 N 
HETATM   10  N   UNL     1     -41.827 -45.873   9.886  1.00  0.00    -0.308 N 
HETATM   11  C   UNL     1     -42.339 -47.106   9.963  1.00  0.00     0.138 A 
ATOM     12  HN  UNL     1     -42.220 -45.052   9.425  1.00  0.00     0.186 HD
BRANCH   9  13
HETATM   13  C   UNL     1     -39.785 -44.833  10.687  1.00  0.00     0.143 C 
HETATM   14  C   UNL     1     -40.472 -43.664  11.371  1.00  0.00     0.028 C 
ENDBRANCH   9  13
ENDBRANCH   1   7
BRANCH   4  15
HETATM   15  C   UNL     1     -42.677 -51.918  13.306  1.00  0.00     0.131 C 
BRANCH  15  16
HETATM   16  C   UNL     1     -41.647 -52.911  13.821  1.00  0.00     0.029 C 
HETATM   17  C   UNL     1     -40.617 -52.339  14.775  1.00  0.00     0.034 C 
HETATM   18  C   UNL     1     -39.369 -53.167  14.510  1.00  0.00     0.168 C 
HETATM   19  O   UNL     1     -39.613 -53.967  13.347  1.00  0.00    -0.391 OA
HETATM   20  C   UNL     1     -40.777 -53.448  12.700  1.00  0.00     0.173 C 
ENDBRANCH  15  16
ENDBRANCH   4  15
TORSDOF 4
ENDMDL
MODEL 9
REMARK VINA RESULT:      -4.9      5.329      7.778
REMARK  4 active torsions:
REMARK  status: ('A' for Active; 'I' for Inactive)
REMARK    1  A    between atoms: C_2  and  N_3 
REMARK    2  A    between atoms: C_5  and  N_6 
REMARK       I    between atoms: N_6  and  C_7 
REMARK       I    between atoms: C_7  and  N_9 
REMARK    3  A    between atoms: N_9  and  C_10 
REMARK    4  A    between atoms: C_10  and  C_11 
ROOT
HETATM    1  N   UNL     1     -42.964 -50.758  12.358  1.00  0.00    -0.306 N 
HETATM    2  C   UNL     1     -43.434 -51.875  13.012  1.00  0.00     0.320 C 
HETATM    3  O   UNL     1     -42.833 -52.535  13.852  1.00  0.00    -0.247 OA
HETATM    4  N   UNL     1     -44.724 -52.190  12.614  1.00  0.00    -0.342 N 
HETATM    5  H   UNL     1     -43.620 -50.220  11.812  1.00  0.00     0.171 HD
HETATM    6  H   UNL     1     -44.920 -52.000  11.643  1.00  0.00     0.164 HD
ENDROOT
BRANCH   1   7
HETATM    7  C   UNL     1     -41.691 -50.234  12.504  1.00  0.00     0.070 A 
HETATM    8  C   UNL     1     -40.589 -50.438  11.707  1.00  0.00     0.141 A 
HETATM    9  N   UNL     1     -39.580 -49.695  12.245  1.00  0.00    -0.302 N 
HETATM   10  N   UNL     1     -39.944 -49.020  13.353  1.00  0.00    -0.308 N 
HETATM   11  C   UNL     1     -41.230 -49.353  13.506  1.00  0.00     0.138 A 
ATOM     12  HN  UNL     1     -39.376 -48.404  13.935  1.00  0.00     0.186 HD
BRANCH   9  13
HETATM   13  C   UNL     1     -38.232 -49.575  11.725  1.00  0.00     0.143 C 
HETATM   14  C   UNL     1     -37.377 -50.776  12.088  1.00  0.00     0.028 C 
ENDBRANCH   9  13
ENDBRANCH   1   7
BRANCH   4  15
HETATM   15  C   UNL     1     -45.334 -53.375  13.187  1.00  0.00     0.131 C 
BRANCH  15  16
HETATM   16  C   UNL     1     -46.382 -53.058  14.242  1.00  0.00     0.029 C 
HETATM   17  C   UNL     1     -46.772 -51.596  14.349  1.00  0.00     0.034 C 
HETATM   18  C   UNL     1     -47.118 -51.414  15.819  1.00  0.00     0.168 C 
HETATM   19  O   UNL     1     -46.727 -52.606  16.512  1.00  0.00    -0.391 OA
HETATM   20  C   UNL     1     -45.877 -53.355  15.641  1.00  0.00     0.173 C 
ENDBRANCH  15  16
ENDBRANCH   4  15
TORSDOF 4
ENDMDL
