MODEL 1
REMARK VINA RESULT:      -5.7      0.000      0.000
REMARK  5 active torsions:
REMARK  status: ('A' for Active; 'I' for Inactive)
REMARK       I    between atoms: N_5  and  C_8 
REMARK    1  A    between atoms: C_8  and  C_10 
REMARK    2  A    between atoms: C_10  and  N_11 
REMARK    3  A    between atoms: N_11  and  C_12 
REMARK    4  A    between atoms: C_12  and  C_13 
REMARK    5  A    between atoms: C_13  and  N_14 
ROOT
HETATM    1  C   UNL     1     -41.576 -50.365  12.695  1.00  0.00     0.372 C 
ENDROOT
BRANCH   1   2
HETATM    2  C   UNL     1     -41.278 -51.869  12.767  1.00  0.00     0.247 C 
HETATM    3  N   UNL     1     -42.321 -52.677  13.224  1.00  0.00    -0.351 N 
HETATM    4  C   UNL     1     -43.694 -52.223  13.456  1.00  0.00     0.126 C 
HETATM    5  C   UNL     1     -42.124 -54.123  13.246  1.00  0.00     0.126 C 
HETATM    6  C   UNL     1     -44.259 -52.804  14.751  1.00  0.00     0.024 C 
HETATM    7  C   UNL     1     -44.109 -54.330  14.828  1.00  0.00    -0.015 C 
HETATM    8  C   UNL     1     -45.084 -55.044  13.889  1.00  0.00     0.010 C 
HETATM    9  C   UNL     1     -42.652 -54.726  14.546  1.00  0.00     0.024 C 
HETATM   10  O   UNL     1     -40.186 -52.329  12.428  1.00  0.00    -0.271 OA
ENDBRANCH   1   2
BRANCH   1  11
HETATM   11  N   UNL     1     -41.909 -49.939  11.324  1.00  0.00     0.093 N 
HETATM   12  H   UNL     1     -42.917 -49.757  11.287  1.00  0.00     0.316 HD
BRANCH  11  13
HETATM   13  C   UNL     1     -41.150 -48.745  10.929  1.00  0.00     0.291 C 
BRANCH  13  14
HETATM   14  C   UNL     1     -42.021 -47.487  10.874  1.00  0.00     0.178 C 
BRANCH  14  15
HETATM   15  N   UNL     1     -43.010 -47.553   9.820  1.00  0.00    -0.302 N 
HETATM   16  C   UNL     1     -44.360 -47.386   9.955  1.00  0.00     0.111 A 
HETATM   17  C   UNL     1     -44.892 -47.624   8.708  1.00  0.00     0.037 A 
HETATM   18  C   UNL     1     -43.784 -47.923   7.895  1.00  0.00     0.108 A 
HETATM   19  N   UNL     1     -42.631 -47.873   8.569  1.00  0.00    -0.310 N 
ATOM     20  HN  UNL     1     -41.687 -48.038   8.217  1.00  0.00     0.186 HD
ENDBRANCH  14  15
ENDBRANCH  13  14
ENDBRANCH  11  13
ENDBRANCH   1  11
TORSDOF 5
ENDMDL
MODEL 2
REMARK VINA RESULT:      -5.6      3.240      4.846
REMARK  5 active torsions:
REMARK  status: ('A' for Active; 'I' for Inactive)
REMARK       I    between atoms: N_5  and  C_8 
REMARK    1  A    between atoms: C_8  and  C_10 
REMARK    2  A    between atoms: C_10  and  N_11 
REMARK    3  A    between atoms: N_11  and  C_12 
REMARK    4  A    between atoms: C_12  and  C_13 
REMARK    5  A    between atoms: C_13  and  N_14 
ROOT
HETATM    1  C   UNL     1     -42.027 -53.755  15.157  1.00  0.00     0.372 C 
ENDROOT
BRANCH   1   2
HETATM    2  C   UNL     1     -43.415 -54.355  14.896  1.00  0.00     0.247 C 
HETATM    3  N   UNL     1     -44.351 -53.498  14.314  1.00  0.00    -0.351 N 
HETATM    4  C   UNL     1     -44.053 -52.165  13.784  1.00  0.00     0.126 C 
HETATM    5  C   UNL     1     -45.667 -54.030  13.974  1.00  0.00     0.126 C 
HETATM    6  C   UNL     1     -45.135 -51.159  14.171  1.00  0.00     0.024 C 
HETATM    7  C   UNL     1     -46.548 -51.645  13.815  1.00  0.00    -0.015 C 
HETATM    8  C   UNL     1     -46.803 -51.590  12.307  1.00  0.00     0.010 C 
HETATM    9  C   UNL     1     -46.771 -53.056  14.380  1.00  0.00     0.024 C 
HETATM   10  O   UNL     1     -43.676 -55.526  15.174  1.00  0.00    -0.271 OA
ENDBRANCH   1   2
BRANCH   1  11
HETATM   11  N   UNL     1     -40.950 -54.638  14.673  1.00  0.00     0.093 N 
HETATM   12  H   UNL     1     -41.385 -55.449  14.224  1.00  0.00     0.316 HD
BRANCH  11  13
HETATM   13  C   UNL     1     -40.058 -53.941  13.737  1.00  0.00     0.291 C 
BRANCH  13  14
HETATM   14  C   UNL     1     -40.812 -53.328  12.554  1.00  0.00     0.178 C 
BRANCH  14  15
HETATM   15  N   UNL     1     -40.427 -51.954  12.314  1.00  0.00    -0.302 N 
HETATM   16  C   UNL     1     -39.611 -51.185  13.097  1.00  0.00     0.111 A 
HETATM   17  C   UNL     1     -39.608 -49.936  12.519  1.00  0.00     0.037 A 
HETATM   18  C   UNL     1     -40.447 -50.056  11.397  1.00  0.00     0.108 A 
HETATM   19  N   UNL     1     -40.944 -51.290  11.263  1.00  0.00    -0.310 N 
ATOM     20  HN  UNL     1     -41.566 -51.645  10.536  1.00  0.00     0.186 HD
ENDBRANCH  14  15
ENDBRANCH  13  14
ENDBRANCH  11  13
ENDBRANCH   1  11
TORSDOF 5
ENDMDL
MODEL 3
REMARK VINA RESULT:      -5.5      3.485      5.239
REMARK  5 active torsions:
REMARK  status: ('A' for Active; 'I' for Inactive)
REMARK       I    between atoms: N_5  and  C_8 
REMARK    1  A    between atoms: C_8  and  C_10 
REMARK    2  A    between atoms: C_10  and  N_11 
REMARK    3  A    between atoms: N_11  and  C_12 
REMARK    4  A    between atoms: C_12  and  C_13 
REMARK    5  A    between atoms: C_13  and  N_14 
ROOT
HETATM    1  C   UNL     1     -45.305 -54.732  14.274  1.00  0.00     0.372 C 
ENDROOT
BRANCH   1   2
HETATM    2  C   UNL     1     -44.166 -54.269  13.355  1.00  0.00     0.247 C 
HETATM    3  N   UNL     1     -42.883 -54.312  13.903  1.00  0.00    -0.351 N 
HETATM    4  C   UNL     1     -42.540 -54.922  15.190  1.00  0.00     0.126 C 
HETATM    5  C   UNL     1     -41.751 -53.954  13.055  1.00  0.00     0.126 C 
HETATM    6  C   UNL     1     -41.560 -54.050  15.973  1.00  0.00     0.024 C 
HETATM    7  C   UNL     1     -40.327 -53.659  15.146  1.00  0.00    -0.015 C 
HETATM    8  C   UNL     1     -39.376 -54.842  14.951  1.00  0.00     0.010 C 
HETATM    9  C   UNL     1     -40.770 -53.055  13.805  1.00  0.00     0.024 C 
HETATM   10  O   UNL     1     -44.379 -53.896  12.200  1.00  0.00    -0.271 OA
ENDBRANCH   1   2
BRANCH   1  11
HETATM   11  N   UNL     1     -46.573 -54.052  13.958  1.00  0.00     0.093 N 
HETATM   12  H   UNL     1     -47.332 -54.731  14.072  1.00  0.00     0.316 HD
BRANCH  11  13
HETATM   13  C   UNL     1     -46.790 -52.881  14.819  1.00  0.00     0.291 C 
BRANCH  13  14
HETATM   14  C   UNL     1     -46.621 -51.559  14.067  1.00  0.00     0.178 C 
BRANCH  14  15
HETATM   15  N   UNL     1     -45.242 -51.120  14.038  1.00  0.00    -0.302 N 
HETATM   16  C   UNL     1     -44.433 -50.895  15.116  1.00  0.00     0.111 A 
HETATM   17  C   UNL     1     -43.252 -50.411  14.601  1.00  0.00     0.037 A 
HETATM   18  C   UNL     1     -43.450 -50.383  13.209  1.00  0.00     0.108 A 
HETATM   19  N   UNL     1     -44.662 -50.824  12.859  1.00  0.00    -0.310 N 
ATOM     20  HN  UNL     1     -45.055 -50.914  11.921  1.00  0.00     0.186 HD
ENDBRANCH  14  15
ENDBRANCH  13  14
ENDBRANCH  11  13
ENDBRANCH   1  11
TORSDOF 5
ENDMDL
MODEL 4
REMARK VINA RESULT:      -5.5      3.549      6.087
REMARK  5 active torsions:
REMARK  status: ('A' for Active; 'I' for Inactive)
REMARK       I    between atoms: N_5  and  C_8 
REMARK    1  A    between atoms: C_8  and  C_10 
REMARK    2  A    between atoms: C_10  and  N_11 
REMARK    3  A    between atoms: N_11  and  C_12 
REMARK    4  A    between atoms: C_12  and  C_13 
REMARK    5  A    between atoms: C_13  and  N_14 
ROOT
HETATM    1  C   UNL     1     -41.901 -52.574  12.615  1.00  0.00     0.372 C 
ENDROOT
BRANCH   1   2
HETATM    2  C   UNL     1     -40.419 -52.701  12.993  1.00  0.00     0.247 C 
HETATM    3  N   UNL     1     -39.699 -51.507  13.054  1.00  0.00    -0.351 N 
HETATM    4  C   UNL     1     -40.287 -50.167  12.966  1.00  0.00     0.126 C 
HETATM    5  C   UNL     1     -38.304 -51.555  13.479  1.00  0.00     0.126 C 
HETATM    6  C   UNL     1     -39.444 -49.249  12.083  1.00  0.00     0.024 C 
HETATM    7  C   UNL     1     -37.964 -49.230  12.494  1.00  0.00    -0.015 C 
HETATM    8  C   UNL     1     -37.746 -48.454  13.795  1.00  0.00     0.010 C 
HETATM    9  C   UNL     1     -37.433 -50.668  12.592  1.00  0.00     0.024 C 
HETATM   10  O   UNL     1     -39.906 -53.795  13.238  1.00  0.00    -0.271 OA
ENDBRANCH   1   2
BRANCH   1  11
HETATM   11  N   UNL     1     -42.543 -53.892  12.467  1.00  0.00     0.093 N 
HETATM   12  H   UNL     1     -41.806 -54.585  12.308  1.00  0.00     0.316 HD
BRANCH  11  13
HETATM   13  C   UNL     1     -43.340 -54.243  13.650  1.00  0.00     0.291 C 
BRANCH  13  14
HETATM   14  C   UNL     1     -44.822 -54.441  13.322  1.00  0.00     0.178 C 
BRANCH  14  15
HETATM   15  N   UNL     1     -45.551 -53.191  13.313  1.00  0.00    -0.302 N 
HETATM   16  C   UNL     1     -45.944 -52.466  14.402  1.00  0.00     0.111 A 
HETATM   17  C   UNL     1     -46.675 -51.412  13.905  1.00  0.00     0.037 A 
HETATM   18  C   UNL     1     -46.662 -51.590  12.510  1.00  0.00     0.108 A 
HETATM   19  N   UNL     1     -45.969 -52.673  12.143  1.00  0.00    -0.310 N 
ATOM     20  HN  UNL     1     -45.798 -53.022  11.199  1.00  0.00     0.186 HD
ENDBRANCH  14  15
ENDBRANCH  13  14
ENDBRANCH  11  13
ENDBRANCH   1  11
TORSDOF 5
ENDMDL
MODEL 5
REMARK VINA RESULT:      -5.5      3.238      6.152
REMARK  5 active torsions:
REMARK  status: ('A' for Active; 'I' for Inactive)
REMARK       I    between atoms: N_5  and  C_8 
REMARK    1  A    between atoms: C_8  and  C_10 
REMARK    2  A    between atoms: C_10  and  N_11 
REMARK    3  A    between atoms: N_11  and  C_12 
REMARK    4  A    between atoms: C_12  and  C_13 
REMARK    5  A    between atoms: C_13  and  N_14 
ROOT
HETATM    1  C   UNL     1     -41.668 -52.678  14.171  1.00  0.00     0.372 C 
ENDROOT
BRANCH   1   2
HETATM    2  C   UNL     1     -41.711 -51.619  13.061  1.00  0.00     0.247 C 
HETATM    3  N   UNL     1     -40.478 -51.094  12.671  1.00  0.00    -0.351 N 
HETATM    4  C   UNL     1     -39.174 -51.600  13.106  1.00  0.00     0.126 C 
HETATM    5  C   UNL     1     -40.445 -50.137  11.569  1.00  0.00     0.126 C 
HETATM    6  C   UNL     1     -38.218 -50.457  13.440  1.00  0.00     0.024 C 
HETATM    7  C   UNL     1     -38.114 -49.424  12.308  1.00  0.00    -0.015 C 
HETATM    8  C   UNL     1     -37.316 -49.964  11.119  1.00  0.00     0.010 C 
HETATM    9  C   UNL     1     -39.520 -48.966  11.891  1.00  0.00     0.024 C 
HETATM   10  O   UNL     1     -42.772 -51.269  12.542  1.00  0.00    -0.271 OA
ENDBRANCH   1   2
BRANCH   1  11
HETATM   11  N   UNL     1     -42.100 -54.000  13.683  1.00  0.00     0.093 N 
HETATM   12  H   UNL     1     -41.360 -54.673  13.902  1.00  0.00     0.316 HD
BRANCH  11  13
HETATM   13  C   UNL     1     -43.374 -54.411  14.290  1.00  0.00     0.291 C 
BRANCH  13  14
HETATM   14  C   UNL     1     -44.531 -54.404  13.287  1.00  0.00     0.178 C 
BRANCH  14  15
HETATM   15  N   UNL     1     -45.306 -53.184  13.357  1.00  0.00    -0.302 N 
HETATM   16  C   UNL     1     -45.836 -52.616  14.482  1.00  0.00     0.111 A 
HETATM   17  C   UNL     1     -46.556 -51.527  14.046  1.00  0.00     0.037 A 
HETATM   18  C   UNL     1     -46.396 -51.525  12.649  1.00  0.00     0.108 A 
HETATM   19  N   UNL     1     -45.626 -52.531  12.224  1.00  0.00    -0.310 N 
ATOM     20  HN  UNL     1     -45.346 -52.752  11.267  1.00  0.00     0.186 HD
ENDBRANCH  14  15
ENDBRANCH  13  14
ENDBRANCH  11  13
ENDBRANCH   1  11
TORSDOF 5
ENDMDL
MODEL 6
REMARK VINA RESULT:      -5.4      3.593      5.037
REMARK  5 active torsions:
REMARK  status: ('A' for Active; 'I' for Inactive)
REMARK       I    between atoms: N_5  and  C_8 
REMARK    1  A    between atoms: C_8  and  C_10 
REMARK    2  A    between atoms: C_10  and  N_11 
REMARK    3  A    between atoms: N_11  and  C_12 
REMARK    4  A    between atoms: C_12  and  C_13 
REMARK    5  A    between atoms: C_13  and  N_14 
ROOT
HETATM    1  C   UNL     1     -43.511 -53.337  12.791  1.00  0.00     0.372 C 
ENDROOT
BRANCH   1   2
HETATM    2  C   UNL     1     -44.919 -52.748  12.953  1.00  0.00     0.247 C 
HETATM    3  N   UNL     1     -45.211 -52.198  14.203  1.00  0.00    -0.351 N 
HETATM    4  C   UNL     1     -44.236 -51.987  15.276  1.00  0.00     0.126 C 
HETATM    5  C   UNL     1     -46.508 -51.557  14.397  1.00  0.00     0.126 C 
HETATM    6  C   UNL     1     -44.812 -52.381  16.635  1.00  0.00     0.024 C 
HETATM    7  C   UNL     1     -46.167 -51.717  16.916  1.00  0.00    -0.015 C 
HETATM    8  C   UNL     1     -46.016 -50.226  17.227  1.00  0.00     0.010 C 
HETATM    9  C   UNL     1     -47.121 -51.960  15.736  1.00  0.00     0.024 C 
HETATM   10  O   UNL     1     -45.732 -52.752  12.028  1.00  0.00    -0.271 OA
ENDBRANCH   1   2
BRANCH   1  11
HETATM   11  N   UNL     1     -42.786 -52.721  11.666  1.00  0.00     0.093 N 
HETATM   12  H   UNL     1     -43.265 -51.849  11.422  1.00  0.00     0.316 HD
BRANCH  11  13
HETATM   13  C   UNL     1     -41.380 -52.465  12.003  1.00  0.00     0.291 C 
BRANCH  13  14
HETATM   14  C   UNL     1     -41.044 -50.971  12.028  1.00  0.00     0.178 C 
BRANCH  14  15
HETATM   15  N   UNL     1     -39.617 -50.733  12.060  1.00  0.00    -0.302 N 
HETATM   16  C   UNL     1     -38.758 -51.051  13.074  1.00  0.00     0.111 A 
HETATM   17  C   UNL     1     -37.532 -50.557  12.693  1.00  0.00     0.037 A 
HETATM   18  C   UNL     1     -37.756 -49.963  11.438  1.00  0.00     0.108 A 
HETATM   19  N   UNL     1     -39.028 -50.075  11.043  1.00  0.00    -0.310 N 
ATOM     20  HN  UNL     1     -39.452 -49.741  10.177  1.00  0.00     0.186 HD
ENDBRANCH  14  15
ENDBRANCH  13  14
ENDBRANCH  11  13
ENDBRANCH   1  11
TORSDOF 5
ENDMDL
MODEL 7
REMARK VINA RESULT:      -5.4      3.501      5.063
REMARK  5 active torsions:
REMARK  status: ('A' for Active; 'I' for Inactive)
REMARK       I    between atoms: N_5  and  C_8 
REMARK    1  A    between atoms: C_8  and  C_10 
REMARK    2  A    between atoms: C_10  and  N_11 
REMARK    3  A    between atoms: N_11  and  C_12 
REMARK    4  A    between atoms: C_12  and  C_13 
REMARK    5  A    between atoms: C_13  and  N_14 
ROOT
HETATM    1  C   UNL     1     -41.962 -53.969  13.513  1.00  0.00     0.372 C 
ENDROOT
BRANCH   1   2
HETATM    2  C   UNL     1     -42.757 -52.755  13.015  1.00  0.00     0.247 C 
HETATM    3  N   UNL     1     -43.971 -52.514  13.661  1.00  0.00    -0.351 N 
HETATM    4  C   UNL     1     -44.434 -53.210  14.865  1.00  0.00     0.126 C 
HETATM    5  C   UNL     1     -44.740 -51.332  13.283  1.00  0.00     0.126 C 
HETATM    6  C   UNL     1     -45.917 -53.565  14.765  1.00  0.00     0.024 C 
HETATM    7  C   UNL     1     -46.789 -52.356  14.396  1.00  0.00    -0.015 C 
HETATM    8  C   UNL     1     -46.932 -51.381  15.567  1.00  0.00     0.010 C 
HETATM    9  C   UNL     1     -46.223 -51.667  13.145  1.00  0.00     0.024 C 
HETATM   10  O   UNL     1     -42.337 -52.034  12.109  1.00  0.00    -0.271 OA
ENDBRANCH   1   2
BRANCH   1  11
HETATM   11  N   UNL     1     -40.640 -54.059  12.866  1.00  0.00     0.093 N 
HETATM   12  H   UNL     1     -40.613 -53.372  12.107  1.00  0.00     0.316 HD
BRANCH  11  13
HETATM   13  C   UNL     1     -39.552 -53.821  13.822  1.00  0.00     0.291 C 
BRANCH  13  14
HETATM   14  C   UNL     1     -39.491 -52.365  14.292  1.00  0.00     0.178 C 
BRANCH  14  15
HETATM   15  N   UNL     1     -38.939 -51.488  13.282  1.00  0.00    -0.302 N 
HETATM   16  C   UNL     1     -37.615 -51.262  13.030  1.00  0.00     0.111 A 
HETATM   17  C   UNL     1     -37.581 -50.297  12.050  1.00  0.00     0.037 A 
HETATM   18  C   UNL     1     -38.931 -50.011  11.778  1.00  0.00     0.108 A 
HETATM   19  N   UNL     1     -39.765 -50.743  12.523  1.00  0.00    -0.310 N 
ATOM     20  HN  UNL     1     -40.786 -50.738  12.518  1.00  0.00     0.186 HD
ENDBRANCH  14  15
ENDBRANCH  13  14
ENDBRANCH  11  13
ENDBRANCH   1  11
TORSDOF 5
ENDMDL
MODEL 8
REMARK VINA RESULT:      -5.4      2.196      2.810
REMARK  5 active torsions:
REMARK  status: ('A' for Active; 'I' for Inactive)
REMARK       I    between atoms: N_5  and  C_8 
REMARK    1  A    between atoms: C_8  and  C_10 
REMARK    2  A    between atoms: C_10  and  N_11 
REMARK    3  A    between atoms: N_11  and  C_12 
REMARK    4  A    between atoms: C_12  and  C_13 
REMARK    5  A    between atoms: C_13  and  N_14 
ROOT
HETATM    1  C   UNL     1     -41.503 -50.712  12.243  1.00  0.00     0.372 C 
ENDROOT
BRANCH   1   2
HETATM    2  C   UNL     1     -41.256 -52.191  12.568  1.00  0.00     0.247 C 
HETATM    3  N   UNL     1     -42.355 -52.903  13.052  1.00  0.00    -0.351 N 
HETATM    4  C   UNL     1     -43.729 -52.397  13.095  1.00  0.00     0.126 C 
HETATM    5  C   UNL     1     -42.202 -54.331  13.310  1.00  0.00     0.126 C 
HETATM    6  C   UNL     1     -44.414 -52.763  14.410  1.00  0.00     0.024 C 
HETATM    7  C   UNL     1     -44.315 -54.261  14.731  1.00  0.00    -0.015 C 
HETATM    8  C   UNL     1     -45.230 -55.096  13.831  1.00  0.00     0.010 C 
HETATM    9  C   UNL     1     -42.852 -54.719  14.637  1.00  0.00     0.024 C 
HETATM   10  O   UNL     1     -40.153 -52.715  12.398  1.00  0.00    -0.271 OA
ENDBRANCH   1   2
BRANCH   1  11
HETATM   11  N   UNL     1     -40.742 -50.278  11.059  1.00  0.00     0.093 N 
HETATM   12  H   UNL     1     -41.124 -50.765  10.243  1.00  0.00     0.316 HD
BRANCH  11  13
HETATM   13  C   UNL     1     -40.812 -48.822  10.874  1.00  0.00     0.291 C 
BRANCH  13  14
HETATM   14  C   UNL     1     -40.021 -48.057  11.938  1.00  0.00     0.178 C 
BRANCH  14  15
HETATM   15  N   UNL     1     -39.884 -46.653  11.612  1.00  0.00    -0.302 N 
HETATM   16  C   UNL     1     -39.724 -45.621  12.493  1.00  0.00     0.111 A 
HETATM   17  C   UNL     1     -39.727 -44.475  11.731  1.00  0.00     0.037 A 
HETATM   18  C   UNL     1     -39.892 -44.923  10.408  1.00  0.00     0.108 A 
HETATM   19  N   UNL     1     -39.980 -46.255  10.329  1.00  0.00    -0.310 N 
ATOM     20  HN  UNL     1     -40.093 -46.832   9.495  1.00  0.00     0.186 HD
ENDBRANCH  14  15
ENDBRANCH  13  14
ENDBRANCH  11  13
ENDBRANCH   1  11
TORSDOF 5
ENDMDL
MODEL 9
REMARK VINA RESULT:      -5.2      3.436      7.292
REMARK  5 active torsions:
REMARK  status: ('A' for Active; 'I' for Inactive)
REMARK       I    between atoms: N_5  and  C_8 
REMARK    1  A    between atoms: C_8  and  C_10 
REMARK    2  A    between atoms: C_10  and  N_11 
REMARK    3  A    between atoms: N_11  and  C_12 
REMARK    4  A    between atoms: C_12  and  C_13 
REMARK    5  A    between atoms: C_13  and  N_14 
ROOT
HETATM    1  C   UNL     1     -43.225 -48.108  11.773  1.00  0.00     0.372 C 
ENDROOT
BRANCH   1   2
HETATM    2  C   UNL     1     -42.005 -47.676  10.949  1.00  0.00     0.247 C 
HETATM    3  N   UNL     1     -41.274 -46.601  11.457  1.00  0.00    -0.351 N 
HETATM    4  C   UNL     1     -41.478 -45.995  12.775  1.00  0.00     0.126 C 
HETATM    5  C   UNL     1     -40.061 -46.190  10.757  1.00  0.00     0.126 C 
HETATM    6  C   UNL     1     -41.412 -44.471  12.702  1.00  0.00     0.024 C 
HETATM    7  C   UNL     1     -40.143 -43.968  11.999  1.00  0.00    -0.015 C 
HETATM    8  C   UNL     1     -38.901 -44.144  12.877  1.00  0.00     0.010 C 
HETATM    9  C   UNL     1     -39.986 -44.669  10.642  1.00  0.00     0.024 C 
HETATM   10  O   UNL     1     -41.689 -48.257   9.909  1.00  0.00    -0.271 OA
ENDBRANCH   1   2
BRANCH   1  11
HETATM   11  N   UNL     1     -43.187 -49.545  12.095  1.00  0.00     0.093 N 
HETATM   12  H   UNL     1     -43.248 -50.067  11.216  1.00  0.00     0.316 HD
BRANCH  11  13
HETATM   13  C   UNL     1     -41.965 -49.904  12.829  1.00  0.00     0.291 C 
BRANCH  13  14
HETATM   14  C   UNL     1     -41.169 -51.014  12.137  1.00  0.00     0.178 C 
BRANCH  14  15
HETATM   15  N   UNL     1     -39.755 -50.714  12.077  1.00  0.00    -0.302 N 
HETATM   16  C   UNL     1     -38.809 -51.043  13.007  1.00  0.00     0.111 A 
HETATM   17  C   UNL     1     -37.636 -50.477  12.564  1.00  0.00     0.037 A 
HETATM   18  C   UNL     1     -37.978 -49.833  11.361  1.00  0.00     0.108 A 
HETATM   19  N   UNL     1     -39.271 -49.982  11.055  1.00  0.00    -0.310 N 
ATOM     20  HN  UNL     1     -39.772 -49.625  10.241  1.00  0.00     0.186 HD
ENDBRANCH  14  15
ENDBRANCH  13  14
ENDBRANCH  11  13
ENDBRANCH   1  11
TORSDOF 5
ENDMDL
