MODEL 1
REMARK VINA RESULT:      -6.3      0.000      0.000
REMARK  5 active torsions:
REMARK  status: ('A' for Active; 'I' for Inactive)
REMARK    1  A    between atoms: C_2  and  C_5 
REMARK    2  A    between atoms: C_5  and  N_6 
REMARK       I    between atoms: N_6  and  C_7 
REMARK    3  A    between atoms: C_7  and  C_9 
REMARK    4  A    between atoms: C_9  and  C_10 
REMARK    5  A    between atoms: C_13  and  N_16 
ROOT
HETATM    1  C   UNL     1     -41.429 -51.177  12.043  1.00  0.00     0.026 A 
HETATM    2  C   UNL     1     -40.997 -52.437  12.405  1.00  0.00     0.078 A 
HETATM    3  S   UNL     1     -42.155 -53.185  13.413  1.00  0.00    -0.064 SA
HETATM    4  C   UNL     1     -43.185 -51.828  13.247  1.00  0.00     0.153 A 
HETATM    5  N   UNL     1     -42.700 -50.847  12.514  1.00  0.00    -0.339 N 
ATOM      6  HN  UNL     1     -43.185 -49.971  12.317  1.00  0.00     0.168 HD
ENDROOT
BRANCH   1   7
HETATM    7  C   UNL     1     -40.679 -50.192  11.201  1.00  0.00     0.160 C 
BRANCH   7   8
HETATM    8  C   UNL     1     -41.286 -48.797  11.219  1.00  0.00     0.223 C 
HETATM    9  N   UNL     1     -41.687 -48.306   9.999  1.00  0.00    -0.360 N 
HETATM   10  H   UNL     1     -41.641 -48.938   9.203  1.00  0.00     0.162 HD
HETATM   11  O   UNL     1     -41.339 -48.134  12.256  1.00  0.00    -0.273 OA
BRANCH   9  12
HETATM   12  C   UNL     1     -42.290 -46.998   9.853  1.00  0.00     0.131 C 
BRANCH  12  13
HETATM   13  C   UNL     1     -43.678 -47.016   9.177  1.00  0.00    -0.035 C 
HETATM   14  C   UNL     1     -44.145 -45.584   8.862  1.00  0.00     0.016 C 
HETATM   15  C   UNL     1     -44.717 -47.713  10.069  1.00  0.00     0.016 C 
HETATM   16  C   UNL     1     -43.561 -47.796   7.854  1.00  0.00     0.016 C 
ENDBRANCH  12  13
ENDBRANCH   9  12
ENDBRANCH   7   8
ENDBRANCH   1   7
BRANCH   4  17
HETATM   17  N   UNL     1     -44.473 -51.840  13.751  1.00  0.00    -0.298 N 
HETATM   18  C   UNL     1     -44.813 -51.283  15.033  1.00  0.00     0.134 C 
HETATM   19  C   UNL     1     -46.327 -51.310  15.121  1.00  0.00     0.029 C 
HETATM   20  C   UNL     1     -46.815 -51.797  13.769  1.00  0.00     0.105 C 
HETATM   21  C   UNL     1     -45.588 -52.299  13.059  1.00  0.00     0.225 C 
HETATM   22  O   UNL     1     -45.652 -52.966  12.036  1.00  0.00    -0.273 OA
ENDBRANCH   4  17
TORSDOF 5
ENDMDL
MODEL 2
REMARK VINA RESULT:      -6.0      1.227      1.553
REMARK  5 active torsions:
REMARK  status: ('A' for Active; 'I' for Inactive)
REMARK    1  A    between atoms: C_2  and  C_5 
REMARK    2  A    between atoms: C_5  and  N_6 
REMARK       I    between atoms: N_6  and  C_7 
REMARK    3  A    between atoms: C_7  and  C_9 
REMARK    4  A    between atoms: C_9  and  C_10 
REMARK    5  A    between atoms: C_13  and  N_16 
ROOT
HETATM    1  C   UNL     1     -41.699 -51.424  12.233  1.00  0.00     0.026 A 
HETATM    2  C   UNL     1     -40.937 -52.572  12.317  1.00  0.00     0.078 A 
HETATM    3  S   UNL     1     -41.786 -53.776  13.178  1.00  0.00    -0.064 SA
HETATM    4  C   UNL     1     -43.135 -52.733  13.319  1.00  0.00     0.153 A 
HETATM    5  N   UNL     1     -42.973 -51.537  12.792  1.00  0.00    -0.339 N 
ATOM      6  HN  UNL     1     -43.677 -50.798  12.792  1.00  0.00     0.168 HD
ENDROOT
BRANCH   1   7
HETATM    7  C   UNL     1     -41.290 -50.134  11.593  1.00  0.00     0.160 C 
BRANCH   7   8
HETATM    8  C   UNL     1     -42.319 -49.025  11.757  1.00  0.00     0.223 C 
HETATM    9  N   UNL     1     -42.804 -48.485  10.589  1.00  0.00    -0.360 N 
HETATM   10  H   UNL     1     -42.519 -48.924   9.716  1.00  0.00     0.162 HD
HETATM   11  O   UNL     1     -42.632 -48.600  12.870  1.00  0.00    -0.273 OA
BRANCH   9  12
HETATM   12  C   UNL     1     -43.794 -47.429  10.579  1.00  0.00     0.131 C 
BRANCH  12  13
HETATM   13  C   UNL     1     -44.347 -47.097   9.176  1.00  0.00    -0.035 C 
HETATM   14  C   UNL     1     -45.819 -47.532   9.059  1.00  0.00     0.016 C 
HETATM   15  C   UNL     1     -43.518 -47.785   8.081  1.00  0.00     0.016 C 
HETATM   16  C   UNL     1     -44.267 -45.573   8.973  1.00  0.00     0.016 C 
ENDBRANCH  12  13
ENDBRANCH   9  12
ENDBRANCH   7   8
ENDBRANCH   1   7
BRANCH   4  17
HETATM   17  N   UNL     1     -44.336 -53.180  13.841  1.00  0.00    -0.298 N 
HETATM   18  C   UNL     1     -44.454 -53.726  15.167  1.00  0.00     0.134 C 
HETATM   19  C   UNL     1     -45.938 -53.900  15.424  1.00  0.00     0.029 C 
HETATM   20  C   UNL     1     -46.644 -53.306  14.219  1.00  0.00     0.105 C 
HETATM   21  C   UNL     1     -45.564 -53.076  13.198  1.00  0.00     0.225 C 
HETATM   22  O   UNL     1     -45.815 -52.817  12.029  1.00  0.00    -0.273 OA
ENDBRANCH   4  17
TORSDOF 5
ENDMDL
MODEL 3
REMARK VINA RESULT:      -5.8      1.807      5.948
REMARK  5 active torsions:
REMARK  status: ('A' for Active; 'I' for Inactive)
REMARK    1  A    between atoms: C_2  and  C_5 
REMARK    2  A    between atoms: C_5  and  N_6 
REMARK       I    between atoms: N_6  and  C_7 
REMARK    3  A    between atoms: C_7  and  C_9 
REMARK    4  A    between atoms: C_9  and  C_10 
REMARK    5  A    between atoms: C_13  and  N_16 
ROOT
HETATM    1  C   UNL     1     -41.599 -52.833  12.918  1.00  0.00     0.026 A 
HETATM    2  C   UNL     1     -40.252 -52.612  13.122  1.00  0.00     0.078 A 
HETATM    3  S   UNL     1     -39.821 -51.062  12.551  1.00  0.00    -0.064 SA
HETATM    4  C   UNL     1     -41.454 -50.752  12.142  1.00  0.00     0.153 A 
HETATM    5  N   UNL     1     -42.286 -51.746  12.376  1.00  0.00    -0.339 N 
ATOM      6  HN  UNL     1     -43.289 -51.724  12.188  1.00  0.00     0.168 HD
ENDROOT
BRANCH   1   7
HETATM    7  C   UNL     1     -42.351 -54.087  13.245  1.00  0.00     0.160 C 
BRANCH   7   8
HETATM    8  C   UNL     1     -43.858 -53.888  13.308  1.00  0.00     0.223 C 
HETATM    9  N   UNL     1     -44.374 -53.640  14.558  1.00  0.00    -0.360 N 
HETATM   10  H   UNL     1     -43.712 -53.511  15.321  1.00  0.00     0.162 HD
HETATM   11  O   UNL     1     -44.564 -54.018  12.308  1.00  0.00    -0.273 OA
BRANCH   9  12
HETATM   12  C   UNL     1     -45.787 -53.421  14.781  1.00  0.00     0.131 C 
BRANCH  12  13
HETATM   13  C   UNL     1     -46.185 -51.934  14.895  1.00  0.00    -0.035 C 
HETATM   14  C   UNL     1     -47.374 -51.764  15.856  1.00  0.00     0.016 C 
HETATM   15  C   UNL     1     -46.547 -51.354  13.519  1.00  0.00     0.016 C 
HETATM   16  C   UNL     1     -44.982 -51.154  15.459  1.00  0.00     0.016 C 
ENDBRANCH  12  13
ENDBRANCH   9  12
ENDBRANCH   7   8
ENDBRANCH   1   7
BRANCH   4  17
HETATM   17  N   UNL     1     -41.861 -49.500  11.715  1.00  0.00    -0.298 N 
HETATM   18  C   UNL     1     -41.299 -48.849  10.562  1.00  0.00     0.134 C 
HETATM   19  C   UNL     1     -42.144 -47.613  10.318  1.00  0.00     0.029 C 
HETATM   20  C   UNL     1     -43.281 -47.679  11.321  1.00  0.00     0.105 C 
HETATM   21  C   UNL     1     -42.902 -48.774  12.281  1.00  0.00     0.225 C 
HETATM   22  O   UNL     1     -43.485 -48.941  13.343  1.00  0.00    -0.273 OA
ENDBRANCH   4  17
TORSDOF 5
ENDMDL
MODEL 4
REMARK VINA RESULT:      -5.7      1.955      2.386
REMARK  5 active torsions:
REMARK  status: ('A' for Active; 'I' for Inactive)
REMARK    1  A    between atoms: C_2  and  C_5 
REMARK    2  A    between atoms: C_5  and  N_6 
REMARK       I    between atoms: N_6  and  C_7 
REMARK    3  A    between atoms: C_7  and  C_9 
REMARK    4  A    between atoms: C_9  and  C_10 
REMARK    5  A    between atoms: C_13  and  N_16 
ROOT
HETATM    1  C   UNL     1     -40.766 -50.572  12.157  1.00  0.00     0.026 A 
HETATM    2  C   UNL     1     -39.992 -50.430  13.290  1.00  0.00     0.078 A 
HETATM    3  S   UNL     1     -40.502 -51.532  14.489  1.00  0.00    -0.064 SA
HETATM    4  C   UNL     1     -41.662 -52.179  13.410  1.00  0.00     0.153 A 
HETATM    5  N   UNL     1     -41.709 -51.598  12.228  1.00  0.00    -0.339 N 
ATOM      6  HN  UNL     1     -42.343 -51.862  11.473  1.00  0.00     0.168 HD
ENDROOT
BRANCH   1   7
HETATM    7  C   UNL     1     -40.660 -49.760  10.903  1.00  0.00     0.160 C 
BRANCH   7   8
HETATM    8  C   UNL     1     -41.442 -48.456  10.960  1.00  0.00     0.223 C 
HETATM    9  N   UNL     1     -42.764 -48.538  10.590  1.00  0.00    -0.360 N 
HETATM   10  H   UNL     1     -43.141 -49.465  10.405  1.00  0.00     0.162 HD
HETATM   11  O   UNL     1     -40.894 -47.391  11.248  1.00  0.00    -0.273 OA
BRANCH   9  12
HETATM   12  C   UNL     1     -43.641 -47.386  10.599  1.00  0.00     0.131 C 
BRANCH  12  13
HETATM   13  C   UNL     1     -44.247 -47.045   9.221  1.00  0.00    -0.035 C 
HETATM   14  C   UNL     1     -43.508 -47.801   8.103  1.00  0.00     0.016 C 
HETATM   15  C   UNL     1     -44.184 -45.534   8.951  1.00  0.00     0.016 C 
HETATM   16  C   UNL     1     -45.723 -47.486   9.219  1.00  0.00     0.016 C 
ENDBRANCH  12  13
ENDBRANCH   9  12
ENDBRANCH   7   8
ENDBRANCH   1   7
BRANCH   4  17
HETATM   17  N   UNL     1     -42.396 -53.306  13.736  1.00  0.00    -0.298 N 
HETATM   18  C   UNL     1     -42.002 -54.219  14.775  1.00  0.00     0.134 C 
HETATM   19  C   UNL     1     -43.156 -55.186  14.951  1.00  0.00     0.029 C 
HETATM   20  C   UNL     1     -44.263 -54.686  14.043  1.00  0.00     0.105 C 
HETATM   21  C   UNL     1     -43.623 -53.638  13.174  1.00  0.00     0.225 C 
HETATM   22  O   UNL     1     -44.173 -53.191  12.178  1.00  0.00    -0.273 OA
ENDBRANCH   4  17
TORSDOF 5
ENDMDL
MODEL 5
REMARK VINA RESULT:      -5.7      2.083      5.784
REMARK  5 active torsions:
REMARK  status: ('A' for Active; 'I' for Inactive)
REMARK    1  A    between atoms: C_2  and  C_5 
REMARK    2  A    between atoms: C_5  and  N_6 
REMARK       I    between atoms: N_6  and  C_7 
REMARK    3  A    between atoms: C_7  and  C_9 
REMARK    4  A    between atoms: C_9  and  C_10 
REMARK    5  A    between atoms: C_13  and  N_16 
ROOT
HETATM    1  C   UNL     1     -40.842 -51.245  12.074  1.00  0.00     0.026 A 
HETATM    2  C   UNL     1     -39.886 -50.873  12.996  1.00  0.00     0.078 A 
HETATM    3  S   UNL     1     -39.632 -49.186  12.928  1.00  0.00    -0.064 SA
HETATM    4  C   UNL     1     -40.855 -49.044  11.740  1.00  0.00     0.153 A 
HETATM    5  N   UNL     1     -41.411 -50.181  11.373  1.00  0.00    -0.339 N 
ATOM      6  HN  UNL     1     -42.152 -50.271  10.677  1.00  0.00     0.168 HD
ENDROOT
BRANCH   1   7
HETATM    7  C   UNL     1     -41.312 -52.640  11.798  1.00  0.00     0.160 C 
BRANCH   7   8
HETATM    8  C   UNL     1     -42.499 -53.057  12.653  1.00  0.00     0.223 C 
HETATM    9  N   UNL     1     -43.733 -52.933  12.060  1.00  0.00    -0.360 N 
HETATM   10  H   UNL     1     -43.756 -52.671  11.077  1.00  0.00     0.162 HD
HETATM   11  O   UNL     1     -42.353 -53.410  13.824  1.00  0.00    -0.273 OA
BRANCH   9  12
HETATM   12  C   UNL     1     -44.958 -53.297  12.741  1.00  0.00     0.131 C 
BRANCH  12  13
HETATM   13  C   UNL     1     -45.832 -52.093  13.152  1.00  0.00    -0.035 C 
HETATM   14  C   UNL     1     -44.959 -50.851  13.404  1.00  0.00     0.016 C 
HETATM   15  C   UNL     1     -46.651 -52.412  14.412  1.00  0.00     0.016 C 
HETATM   16  C   UNL     1     -46.803 -51.784  11.997  1.00  0.00     0.016 C 
ENDBRANCH  12  13
ENDBRANCH   9  12
ENDBRANCH   7   8
ENDBRANCH   1   7
BRANCH   4  17
HETATM   17  N   UNL     1     -41.293 -47.806  11.305  1.00  0.00    -0.298 N 
HETATM   18  C   UNL     1     -40.397 -46.715  11.029  1.00  0.00     0.134 C 
HETATM   19  C   UNL     1     -41.237 -45.625  10.392  1.00  0.00     0.029 C 
HETATM   20  C   UNL     1     -42.624 -46.215  10.216  1.00  0.00     0.105 C 
HETATM   21  C   UNL     1     -42.615 -47.497  11.003  1.00  0.00     0.225 C 
HETATM   22  O   UNL     1     -43.639 -48.112  11.262  1.00  0.00    -0.273 OA
ENDBRANCH   4  17
TORSDOF 5
ENDMDL
MODEL 6
REMARK VINA RESULT:      -5.7      2.188      6.125
REMARK  5 active torsions:
REMARK  status: ('A' for Active; 'I' for Inactive)
REMARK    1  A    between atoms: C_2  and  C_5 
REMARK    2  A    between atoms: C_5  and  N_6 
REMARK       I    between atoms: N_6  and  C_7 
REMARK    3  A    between atoms: C_7  and  C_9 
REMARK    4  A    between atoms: C_9  and  C_10 
REMARK    5  A    between atoms: C_13  and  N_16 
ROOT
HETATM    1  C   UNL     1     -41.766 -49.611  12.264  1.00  0.00     0.026 A 
HETATM    2  C   UNL     1     -41.998 -48.816  13.368  1.00  0.00     0.078 A 
HETATM    3  S   UNL     1     -42.767 -47.367  12.895  1.00  0.00    -0.064 SA
HETATM    4  C   UNL     1     -42.814 -47.915  11.274  1.00  0.00     0.153 A 
HETATM    5  N   UNL     1     -42.263 -49.093  11.068  1.00  0.00    -0.339 N 
ATOM      6  HN  UNL     1     -42.207 -49.561  10.162  1.00  0.00     0.168 HD
ENDROOT
BRANCH   1   7
HETATM    7  C   UNL     1     -41.076 -50.940  12.259  1.00  0.00     0.160 C 
BRANCH   7   8
HETATM    8  C   UNL     1     -42.024 -52.114  12.451  1.00  0.00     0.223 C 
HETATM    9  N   UNL     1     -43.358 -51.794  12.538  1.00  0.00    -0.360 N 
HETATM   10  H   UNL     1     -43.619 -50.824  12.370  1.00  0.00     0.162 HD
HETATM   11  O   UNL     1     -41.602 -53.262  12.593  1.00  0.00    -0.273 OA
BRANCH   9  12
HETATM   12  C   UNL     1     -44.385 -52.800  12.713  1.00  0.00     0.131 C 
BRANCH  12  13
HETATM   13  C   UNL     1     -45.674 -52.276  13.381  1.00  0.00    -0.035 C 
HETATM   14  C   UNL     1     -46.341 -53.385  14.214  1.00  0.00     0.016 C 
HETATM   15  C   UNL     1     -46.666 -51.753  12.331  1.00  0.00     0.016 C 
HETATM   16  C   UNL     1     -45.294 -51.117  14.322  1.00  0.00     0.016 C 
ENDBRANCH  12  13
ENDBRANCH   9  12
ENDBRANCH   7   8
ENDBRANCH   1   7
BRANCH   4  17
HETATM   17  N   UNL     1     -43.497 -47.210  10.298  1.00  0.00    -0.298 N 
HETATM   18  C   UNL     1     -44.807 -47.586   9.838  1.00  0.00     0.134 C 
HETATM   19  C   UNL     1     -45.278 -46.463   8.935  1.00  0.00     0.029 C 
HETATM   20  C   UNL     1     -44.212 -45.386   9.016  1.00  0.00     0.105 C 
HETATM   21  C   UNL     1     -43.048 -46.029   9.720  1.00  0.00     0.225 C 
HETATM   22  O   UNL     1     -41.940 -45.514   9.752  1.00  0.00    -0.273 OA
ENDBRANCH   4  17
TORSDOF 5
ENDMDL
MODEL 7
REMARK VINA RESULT:      -5.7      3.911      4.726
REMARK  5 active torsions:
REMARK  status: ('A' for Active; 'I' for Inactive)
REMARK    1  A    between atoms: C_2  and  C_5 
REMARK    2  A    between atoms: C_5  and  N_6 
REMARK       I    between atoms: N_6  and  C_7 
REMARK    3  A    between atoms: C_7  and  C_9 
REMARK    4  A    between atoms: C_9  and  C_10 
REMARK    5  A    between atoms: C_13  and  N_16 
ROOT
HETATM    1  C   UNL     1     -41.730 -54.038  14.586  1.00  0.00     0.026 A 
HETATM    2  C   UNL     1     -42.085 -54.824  15.663  1.00  0.00     0.078 A 
HETATM    3  S   UNL     1     -43.678 -54.458  16.155  1.00  0.00    -0.064 SA
HETATM    4  C   UNL     1     -43.825 -53.341  14.868  1.00  0.00     0.153 A 
HETATM    5  N   UNL     1     -42.748 -53.205  14.121  1.00  0.00    -0.339 N 
ATOM      6  HN  UNL     1     -42.670 -52.581  13.318  1.00  0.00     0.168 HD
ENDROOT
BRANCH   1   7
HETATM    7  C   UNL     1     -40.402 -54.030  13.895  1.00  0.00     0.160 C 
BRANCH   7   8
HETATM    8  C   UNL     1     -40.248 -52.891  12.897  1.00  0.00     0.223 C 
HETATM    9  N   UNL     1     -39.677 -51.742  13.390  1.00  0.00    -0.360 N 
HETATM   10  H   UNL     1     -39.315 -51.769  14.341  1.00  0.00     0.162 HD
HETATM   11  O   UNL     1     -40.679 -52.983  11.747  1.00  0.00    -0.273 OA
BRANCH   9  12
HETATM   12  C   UNL     1     -39.455 -50.574  12.564  1.00  0.00     0.131 C 
BRANCH  12  13
HETATM   13  C   UNL     1     -37.998 -50.061  12.576  1.00  0.00    -0.035 C 
HETATM   14  C   UNL     1     -37.903 -48.721  13.326  1.00  0.00     0.016 C 
HETATM   15  C   UNL     1     -37.462 -49.891  11.146  1.00  0.00     0.016 C 
HETATM   16  C   UNL     1     -37.127 -51.098  13.310  1.00  0.00     0.016 C 
ENDBRANCH  12  13
ENDBRANCH   9  12
ENDBRANCH   7   8
ENDBRANCH   1   7
BRANCH   4  17
HETATM   17  N   UNL     1     -45.034 -52.731  14.581  1.00  0.00    -0.298 N 
HETATM   18  C   UNL     1     -45.800 -52.016  15.566  1.00  0.00     0.134 C 
HETATM   19  C   UNL     1     -46.931 -51.339  14.817  1.00  0.00     0.029 C 
HETATM   20  C   UNL     1     -46.681 -51.614  13.346  1.00  0.00     0.105 C 
HETATM   21  C   UNL     1     -45.601 -52.661  13.314  1.00  0.00     0.225 C 
HETATM   22  O   UNL     1     -45.317 -53.275  12.295  1.00  0.00    -0.273 OA
ENDBRANCH   4  17
TORSDOF 5
ENDMDL
MODEL 8
REMARK VINA RESULT:      -5.5      2.111      2.923
REMARK  5 active torsions:
REMARK  status: ('A' for Active; 'I' for Inactive)
REMARK    1  A    between atoms: C_2  and  C_5 
REMARK    2  A    between atoms: C_5  and  N_6 
REMARK       I    between atoms: N_6  and  C_7 
REMARK    3  A    between atoms: C_7  and  C_9 
REMARK    4  A    between atoms: C_9  and  C_10 
REMARK    5  A    between atoms: C_13  and  N_16 
ROOT
HETATM    1  C   UNL     1     -40.845 -50.744  11.892  1.00  0.00     0.026 A 
HETATM    2  C   UNL     1     -40.017 -51.547  12.651  1.00  0.00     0.078 A 
HETATM    3  S   UNL     1     -40.946 -52.680  13.528  1.00  0.00    -0.064 SA
HETATM    4  C   UNL     1     -42.373 -52.089  12.792  1.00  0.00     0.153 A 
HETATM    5  N   UNL     1     -42.197 -51.082  11.962  1.00  0.00    -0.339 N 
ATOM      6  HN  UNL     1     -42.942 -50.615  11.444  1.00  0.00     0.168 HD
ENDROOT
BRANCH   1   7
HETATM    7  C   UNL     1     -40.417 -49.606  11.019  1.00  0.00     0.160 C 
BRANCH   7   8
HETATM    8  C   UNL     1     -41.075 -48.283  11.385  1.00  0.00     0.223 C 
HETATM    9  N   UNL     1     -40.804 -47.230  10.543  1.00  0.00    -0.360 N 
HETATM   10  H   UNL     1     -40.274 -47.431   9.697  1.00  0.00     0.162 HD
HETATM   11  O   UNL     1     -41.743 -48.162  12.412  1.00  0.00    -0.273 OA
BRANCH   9  12
HETATM   12  C   UNL     1     -41.362 -45.911  10.752  1.00  0.00     0.131 C 
BRANCH  12  13
HETATM   13  C   UNL     1     -40.305 -44.810  10.990  1.00  0.00    -0.035 C 
HETATM   14  C   UNL     1     -40.980 -43.434  11.127  1.00  0.00     0.016 C 
HETATM   15  C   UNL     1     -39.283 -44.771   9.844  1.00  0.00     0.016 C 
HETATM   16  C   UNL     1     -39.564 -45.127  12.302  1.00  0.00     0.016 C 
ENDBRANCH  12  13
ENDBRANCH   9  12
ENDBRANCH   7   8
ENDBRANCH   1   7
BRANCH   4  17
HETATM   17  N   UNL     1     -43.590 -52.721  12.977  1.00  0.00    -0.298 N 
HETATM   18  C   UNL     1     -43.726 -54.152  13.025  1.00  0.00     0.134 C 
HETATM   19  C   UNL     1     -45.157 -54.430  13.441  1.00  0.00     0.029 C 
HETATM   20  C   UNL     1     -45.775 -53.077  13.743  1.00  0.00     0.105 C 
HETATM   21  C   UNL     1     -44.790 -52.065  13.224  1.00  0.00     0.225 C 
HETATM   22  O   UNL     1     -45.074 -50.882  13.101  1.00  0.00    -0.273 OA
ENDBRANCH   4  17
TORSDOF 5
ENDMDL
MODEL 9
REMARK VINA RESULT:      -5.3      4.719      7.107
REMARK  5 active torsions:
REMARK  status: ('A' for Active; 'I' for Inactive)
REMARK    1  A    between atoms: C_2  and  C_5 
REMARK    2  A    between atoms: C_5  and  N_6 
REMARK       I    between atoms: N_6  and  C_7 
REMARK    3  A    between atoms: C_7  and  C_9 
REMARK    4  A    between atoms: C_9  and  C_10 
REMARK    5  A    between atoms: C_13  and  N_16 
ROOT
HETATM    1  C   UNL     1     -42.846 -53.677  13.067  1.00  0.00     0.026 A 
HETATM    2  C   UNL     1     -41.958 -52.711  12.639  1.00  0.00     0.078 A 
HETATM    3  S   UNL     1     -40.507 -52.814  13.534  1.00  0.00    -0.064 SA
HETATM    4  C   UNL     1     -41.115 -54.174  14.376  1.00  0.00     0.153 A 
HETATM    5  N   UNL     1     -42.341 -54.529  14.050  1.00  0.00    -0.339 N 
ATOM      6  HN  UNL     1     -42.849 -55.315  14.457  1.00  0.00     0.168 HD
ENDROOT
BRANCH   1   7
HETATM    7  C   UNL     1     -44.240 -53.885  12.560  1.00  0.00     0.160 C 
BRANCH   7   8
HETATM    8  C   UNL     1     -45.272 -54.019  13.670  1.00  0.00     0.223 C 
HETATM    9  N   UNL     1     -45.992 -52.883  13.954  1.00  0.00    -0.360 N 
HETATM   10  H   UNL     1     -45.855 -52.077  13.346  1.00  0.00     0.162 HD
HETATM   11  O   UNL     1     -45.391 -55.063  14.313  1.00  0.00    -0.273 OA
BRANCH   9  12
HETATM   12  C   UNL     1     -47.016 -52.852  14.976  1.00  0.00     0.131 C 
BRANCH  12  13
HETATM   13  C   UNL     1     -46.645 -52.009  16.216  1.00  0.00    -0.035 C 
HETATM   14  C   UNL     1     -46.035 -52.899  17.312  1.00  0.00     0.016 C 
HETATM   15  C   UNL     1     -47.875 -51.275  16.771  1.00  0.00     0.016 C 
HETATM   16  C   UNL     1     -45.595 -50.963  15.792  1.00  0.00     0.016 C 
ENDBRANCH  12  13
ENDBRANCH   9  12
ENDBRANCH   7   8
ENDBRANCH   1   7
BRANCH   4  17
HETATM   17  N   UNL     1     -40.314 -54.902  15.237  1.00  0.00    -0.298 N 
HETATM   18  C   UNL     1     -38.877 -54.845  15.200  1.00  0.00     0.134 C 
HETATM   19  C   UNL     1     -38.390 -55.611  16.414  1.00  0.00     0.029 C 
HETATM   20  C   UNL     1     -39.633 -55.991  17.196  1.00  0.00     0.105 C 
HETATM   21  C   UNL     1     -40.788 -55.691  16.279  1.00  0.00     0.225 C 
HETATM   22  O   UNL     1     -41.922 -56.088  16.505  1.00  0.00    -0.273 OA
ENDBRANCH   4  17
TORSDOF 5
ENDMDL
