MODEL 1
REMARK VINA RESULT:      -5.5      0.000      0.000
REMARK  5 active torsions:
REMARK  status: ('A' for Active; 'I' for Inactive)
REMARK    1  A    between atoms: C_2  and  C_3 
REMARK    2  A    between atoms: C_2  and  N_10 
REMARK    3  A    between atoms: C_3  and  N_4 
REMARK    4  A    between atoms: N_10  and  C_11 
REMARK    5  A    between atoms: C_11  and  C_13 
REMARK       I    between atoms: C_13  and  N_15 
ROOT
HETATM    1  N   UNL     1     -40.415 -47.048  10.592  1.00  0.00     0.102 N 
HETATM    2  H   UNL     1     -39.830 -47.184   9.769  1.00  0.00     0.317 HD
ENDROOT
BRANCH   1   3
HETATM    3  C   UNL     1     -40.598 -45.624  10.925  1.00  0.00     0.237 C 
HETATM    4  C   UNL     1     -39.688 -44.722  10.077  1.00  0.00     0.044 C 
BRANCH   3   5
HETATM    5  C   UNL     1     -42.054 -45.159  10.701  1.00  0.00     0.183 C 
BRANCH   5   6
HETATM    6  N   UNL     1     -42.939 -46.140  10.108  1.00  0.00    -0.302 N 
HETATM    7  C   UNL     1     -43.251 -46.249   8.781  1.00  0.00     0.111 A 
HETATM    8  C   UNL     1     -44.283 -47.152   8.702  1.00  0.00     0.037 A 
HETATM    9  C   UNL     1     -44.524 -47.533  10.034  1.00  0.00     0.108 A 
HETATM   10  N   UNL     1     -43.717 -46.912  10.898  1.00  0.00    -0.310 N 
ATOM     11  HN  UNL     1     -43.693 -47.000  11.914  1.00  0.00     0.186 HD
ENDBRANCH   5   6
ENDBRANCH   3   5
ENDBRANCH   1   3
BRANCH   1  12
HETATM   12  C   UNL     1     -39.920 -47.915  11.683  1.00  0.00     0.308 C 
HETATM   13  C   UNL     1     -40.037 -47.255  13.060  1.00  0.00     0.053 C 
BRANCH  12  14
HETATM   14  C   UNL     1     -40.697 -49.261  11.703  1.00  0.00     0.253 C 
HETATM   15  O   UNL     1     -41.913 -49.306  11.499  1.00  0.00    -0.271 OA
HETATM   16  N   UNL     1     -39.974 -50.415  11.990  1.00  0.00    -0.346 N 
HETATM   17  C   UNL     1     -40.676 -51.691  12.139  1.00  0.00     0.152 C 
HETATM   18  C   UNL     1     -38.515 -50.541  12.106  1.00  0.00     0.152 C 
HETATM   19  C   UNL     1     -40.242 -52.373  13.441  1.00  0.00     0.187 C 
HETATM   20  O   UNL     1     -38.814 -52.551  13.475  1.00  0.00    -0.388 OA
HETATM   21  C   UNL     1     -38.141 -51.287  13.391  1.00  0.00     0.187 C 
ENDBRANCH  12  14
ENDBRANCH   1  12
TORSDOF 5
ENDMDL
MODEL 2
REMARK VINA RESULT:      -5.2      4.097      5.456
REMARK  5 active torsions:
REMARK  status: ('A' for Active; 'I' for Inactive)
REMARK    1  A    between atoms: C_2  and  C_3 
REMARK    2  A    between atoms: C_2  and  N_10 
REMARK    3  A    between atoms: C_3  and  N_4 
REMARK    4  A    between atoms: N_10  and  C_11 
REMARK    5  A    between atoms: C_11  and  C_13 
REMARK       I    between atoms: C_13  and  N_15 
ROOT
HETATM    1  N   UNL     1     -42.236 -51.465  12.080  1.00  0.00     0.102 N 
HETATM    2  H   UNL     1     -41.990 -52.356  11.653  1.00  0.00     0.317 HD
ENDROOT
BRANCH   1   3
HETATM    3  C   UNL     1     -41.057 -50.624  12.352  1.00  0.00     0.237 C 
HETATM    4  C   UNL     1     -39.834 -51.470  12.739  1.00  0.00     0.044 C 
BRANCH   3   5
HETATM    5  C   UNL     1     -40.662 -49.768  11.128  1.00  0.00     0.183 C 
BRANCH   5   6
HETATM    6  N   UNL     1     -41.522 -48.635  10.855  1.00  0.00    -0.302 N 
HETATM    7  C   UNL     1     -42.195 -47.889  11.782  1.00  0.00     0.111 A 
HETATM    8  C   UNL     1     -43.052 -47.080  11.077  1.00  0.00     0.037 A 
HETATM    9  C   UNL     1     -42.824 -47.411   9.729  1.00  0.00     0.108 A 
HETATM   10  N   UNL     1     -41.901 -48.366   9.586  1.00  0.00    -0.310 N 
ATOM     11  HN  UNL     1     -41.562 -48.793   8.723  1.00  0.00     0.186 HD
ENDBRANCH   5   6
ENDBRANCH   3   5
ENDBRANCH   1   3
BRANCH   1  12
HETATM   12  C   UNL     1     -43.137 -51.714  13.227  1.00  0.00     0.308 C 
HETATM   13  C   UNL     1     -44.049 -50.523  13.531  1.00  0.00     0.053 C 
BRANCH  12  14
HETATM   14  C   UNL     1     -44.018 -52.968  12.964  1.00  0.00     0.253 C 
HETATM   15  O   UNL     1     -44.350 -53.293  11.821  1.00  0.00    -0.271 OA
HETATM   16  N   UNL     1     -44.443 -53.697  14.070  1.00  0.00    -0.346 N 
HETATM   17  C   UNL     1     -45.371 -54.815  13.887  1.00  0.00     0.152 C 
HETATM   18  C   UNL     1     -44.012 -53.526  15.464  1.00  0.00     0.152 C 
HETATM   19  C   UNL     1     -46.548 -54.675  14.859  1.00  0.00     0.187 C 
HETATM   20  O   UNL     1     -46.084 -54.594  16.219  1.00  0.00    -0.388 OA
HETATM   21  C   UNL     1     -45.226 -53.459  16.397  1.00  0.00     0.187 C 
ENDBRANCH  12  14
ENDBRANCH   1  12
TORSDOF 5
ENDMDL
MODEL 3
REMARK VINA RESULT:      -5.1      4.018      6.829
REMARK  5 active torsions:
REMARK  status: ('A' for Active; 'I' for Inactive)
REMARK    1  A    between atoms: C_2  and  C_3 
REMARK    2  A    between atoms: C_2  and  N_10 
REMARK    3  A    between atoms: C_3  and  N_4 
REMARK    4  A    between atoms: N_10  and  C_11 
REMARK    5  A    between atoms: C_11  and  C_13 
REMARK       I    between atoms: C_13  and  N_15 
ROOT
HETATM    1  N   UNL     1     -43.041 -46.150  11.142  1.00  0.00     0.102 N 
HETATM    2  H   UNL     1     -43.365 -46.593  12.000  1.00  0.00     0.317 HD
ENDROOT
BRANCH   1   3
HETATM    3  C   UNL     1     -42.385 -47.101  10.229  1.00  0.00     0.237 C 
HETATM    4  C   UNL     1     -42.103 -48.446  10.917  1.00  0.00     0.044 C 
BRANCH   3   5
HETATM    5  C   UNL     1     -43.242 -47.389   8.977  1.00  0.00     0.183 C 
BRANCH   5   6
HETATM    6  N   UNL     1     -44.656 -47.100   9.108  1.00  0.00    -0.302 N 
HETATM    7  C   UNL     1     -45.648 -48.011   9.339  1.00  0.00     0.111 A 
HETATM    8  C   UNL     1     -46.834 -47.341   9.164  1.00  0.00     0.037 A 
HETATM    9  C   UNL     1     -46.454 -46.030   8.826  1.00  0.00     0.108 A 
HETATM   10  N   UNL     1     -45.128 -45.878   8.779  1.00  0.00    -0.310 N 
ATOM     11  HN  UNL     1     -44.596 -45.038   8.549  1.00  0.00     0.186 HD
ENDBRANCH   5   6
ENDBRANCH   3   5
ENDBRANCH   1   3
BRANCH   1  12
HETATM   12  C   UNL     1     -42.267 -44.938  11.488  1.00  0.00     0.308 C 
HETATM   13  C   UNL     1     -40.861 -44.943  10.882  1.00  0.00     0.053 C 
BRANCH  12  14
HETATM   14  C   UNL     1     -43.015 -43.661  11.013  1.00  0.00     0.253 C 
HETATM   15  O   UNL     1     -43.467 -43.567   9.869  1.00  0.00    -0.271 OA
HETATM   16  N   UNL     1     -43.131 -42.611  11.919  1.00  0.00    -0.346 N 
HETATM   17  C   UNL     1     -43.719 -41.342  11.486  1.00  0.00     0.152 C 
HETATM   18  C   UNL     1     -42.781 -42.628  13.346  1.00  0.00     0.152 C 
HETATM   19  C   UNL     1     -42.801 -40.182  11.885  1.00  0.00     0.187 C 
HETATM   20  O   UNL     1     -42.552 -40.189  13.303  1.00  0.00    -0.388 OA
HETATM   21  C   UNL     1     -41.919 -41.412  13.703  1.00  0.00     0.187 C 
ENDBRANCH  12  14
ENDBRANCH   1  12
TORSDOF 5
ENDMDL
MODEL 4
REMARK VINA RESULT:      -5.0      1.800      2.456
REMARK  5 active torsions:
REMARK  status: ('A' for Active; 'I' for Inactive)
REMARK    1  A    between atoms: C_2  and  C_3 
REMARK    2  A    between atoms: C_2  and  N_10 
REMARK    3  A    between atoms: C_3  and  N_4 
REMARK    4  A    between atoms: N_10  and  C_11 
REMARK    5  A    between atoms: C_11  and  C_13 
REMARK       I    between atoms: C_13  and  N_15 
ROOT
HETATM    1  N   UNL     1     -39.721 -47.770  12.354  1.00  0.00     0.102 N 
HETATM    2  H   UNL     1     -39.814 -47.566  13.348  1.00  0.00     0.317 HD
ENDROOT
BRANCH   1   3
HETATM    3  C   UNL     1     -40.824 -47.204  11.558  1.00  0.00     0.237 C 
HETATM    4  C   UNL     1     -40.352 -46.026  10.692  1.00  0.00     0.044 C 
BRANCH   3   5
HETATM    5  C   UNL     1     -41.455 -48.252  10.615  1.00  0.00     0.183 C 
BRANCH   5   6
HETATM    6  N   UNL     1     -42.645 -47.821   9.909  1.00  0.00    -0.302 N 
HETATM    7  C   UNL     1     -43.834 -47.458  10.478  1.00  0.00     0.111 A 
HETATM    8  C   UNL     1     -44.735 -47.348   9.448  1.00  0.00     0.037 A 
HETATM    9  C   UNL     1     -43.996 -47.665   8.294  1.00  0.00     0.108 A 
HETATM   10  N   UNL     1     -42.724 -47.966   8.569  1.00  0.00    -0.310 N 
ATOM     11  HN  UNL     1     -41.986 -48.240   7.919  1.00  0.00     0.186 HD
ENDBRANCH   5   6
ENDBRANCH   3   5
ENDBRANCH   1   3
BRANCH   1  12
HETATM   12  C   UNL     1     -39.468 -49.217  12.182  1.00  0.00     0.308 C 
HETATM   13  C   UNL     1     -38.052 -49.513  11.682  1.00  0.00     0.053 C 
BRANCH  12  14
HETATM   14  C   UNL     1     -39.697 -49.972  13.522  1.00  0.00     0.253 C 
HETATM   15  O   UNL     1     -39.182 -49.587  14.574  1.00  0.00    -0.271 OA
HETATM   16  N   UNL     1     -40.484 -51.119  13.484  1.00  0.00    -0.346 N 
HETATM   17  C   UNL     1     -40.634 -51.934  14.692  1.00  0.00     0.152 C 
HETATM   18  C   UNL     1     -41.279 -51.613  12.352  1.00  0.00     0.152 C 
HETATM   19  C   UNL     1     -40.349 -53.403  14.364  1.00  0.00     0.187 C 
HETATM   20  O   UNL     1     -41.207 -53.869  13.307  1.00  0.00    -0.388 OA
HETATM   21  C   UNL     1     -41.004 -53.102  12.112  1.00  0.00     0.187 C 
ENDBRANCH  12  14
ENDBRANCH   1  12
TORSDOF 5
ENDMDL
MODEL 5
REMARK VINA RESULT:      -5.0      3.440      6.877
REMARK  5 active torsions:
REMARK  status: ('A' for Active; 'I' for Inactive)
REMARK    1  A    between atoms: C_2  and  C_3 
REMARK    2  A    between atoms: C_2  and  N_10 
REMARK    3  A    between atoms: C_3  and  N_4 
REMARK    4  A    between atoms: N_10  and  C_11 
REMARK    5  A    between atoms: C_11  and  C_13 
REMARK       I    between atoms: C_13  and  N_15 
ROOT
HETATM    1  N   UNL     1     -44.603 -50.720  12.726  1.00  0.00     0.102 N 
HETATM    2  H   UNL     1     -45.323 -50.098  12.363  1.00  0.00     0.317 HD
ENDROOT
BRANCH   1   3
HETATM    3  C   UNL     1     -45.157 -51.788  13.576  1.00  0.00     0.237 C 
HETATM    4  C   UNL     1     -46.673 -51.631  13.768  1.00  0.00     0.044 C 
BRANCH   3   5
HETATM    5  C   UNL     1     -44.906 -53.191  12.981  1.00  0.00     0.183 C 
BRANCH   5   6
HETATM    6  N   UNL     1     -43.617 -53.779  13.287  1.00  0.00    -0.302 N 
HETATM    7  C   UNL     1     -43.250 -54.346  14.475  1.00  0.00     0.111 A 
HETATM    8  C   UNL     1     -41.896 -54.560  14.398  1.00  0.00     0.037 A 
HETATM    9  C   UNL     1     -41.535 -54.087  13.123  1.00  0.00     0.108 A 
HETATM   10  N   UNL     1     -42.576 -53.599  12.445  1.00  0.00    -0.310 N 
ATOM     11  HN  UNL     1     -42.585 -53.187  11.511  1.00  0.00     0.186 HD
ENDBRANCH   5   6
ENDBRANCH   3   5
ENDBRANCH   1   3
BRANCH   1  12
HETATM   12  C   UNL     1     -43.521 -49.907  13.324  1.00  0.00     0.308 C 
HETATM   13  C   UNL     1     -42.994 -50.498  14.634  1.00  0.00     0.053 C 
BRANCH  12  14
HETATM   14  C   UNL     1     -42.337 -49.759  12.326  1.00  0.00     0.253 C 
HETATM   15  O   UNL     1     -41.525 -50.671  12.152  1.00  0.00    -0.271 OA
HETATM   16  N   UNL     1     -42.211 -48.546  11.657  1.00  0.00    -0.346 N 
HETATM   17  C   UNL     1     -41.048 -48.311  10.798  1.00  0.00     0.152 C 
HETATM   18  C   UNL     1     -43.171 -47.434  11.646  1.00  0.00     0.152 C 
HETATM   19  C   UNL     1     -40.403 -46.968  11.155  1.00  0.00     0.187 C 
HETATM   20  O   UNL     1     -41.359 -45.896  11.051  1.00  0.00    -0.388 OA
HETATM   21  C   UNL     1     -42.461 -46.109  11.943  1.00  0.00     0.187 C 
ENDBRANCH  12  14
ENDBRANCH   1  12
TORSDOF 5
ENDMDL
MODEL 6
REMARK VINA RESULT:      -4.9      2.709      5.422
REMARK  5 active torsions:
REMARK  status: ('A' for Active; 'I' for Inactive)
REMARK    1  A    between atoms: C_2  and  C_3 
REMARK    2  A    between atoms: C_2  and  N_10 
REMARK    3  A    between atoms: C_3  and  N_4 
REMARK    4  A    between atoms: N_10  and  C_11 
REMARK    5  A    between atoms: C_11  and  C_13 
REMARK       I    between atoms: C_13  and  N_15 
ROOT
HETATM    1  N   UNL     1     -39.879 -47.806  11.271  1.00  0.00     0.102 N 
HETATM    2  H   UNL     1     -39.571 -47.327  10.427  1.00  0.00     0.317 HD
ENDROOT
BRANCH   1   3
HETATM    3  C   UNL     1     -40.842 -48.885  10.988  1.00  0.00     0.237 C 
HETATM    4  C   UNL     1     -40.545 -50.143  11.819  1.00  0.00     0.044 C 
BRANCH   3   5
HETATM    5  C   UNL     1     -42.295 -48.459  11.290  1.00  0.00     0.183 C 
BRANCH   5   6
HETATM    6  N   UNL     1     -43.030 -47.906  10.170  1.00  0.00    -0.302 N 
HETATM    7  C   UNL     1     -44.312 -47.432  10.200  1.00  0.00     0.111 A 
HETATM    8  C   UNL     1     -44.675 -47.223   8.892  1.00  0.00     0.037 A 
HETATM    9  C   UNL     1     -43.545 -47.601   8.145  1.00  0.00     0.108 A 
HETATM   10  N   UNL     1     -42.542 -48.029   8.917  1.00  0.00    -0.310 N 
ATOM     11  HN  UNL     1     -41.624 -48.369   8.628  1.00  0.00     0.186 HD
ENDBRANCH   5   6
ENDBRANCH   3   5
ENDBRANCH   1   3
BRANCH   1  12
HETATM   12  C   UNL     1     -40.304 -46.799  12.268  1.00  0.00     0.308 C 
HETATM   13  C   UNL     1     -39.219 -46.501  13.305  1.00  0.00     0.053 C 
BRANCH  12  14
HETATM   14  C   UNL     1     -40.703 -45.472  11.563  1.00  0.00     0.253 C 
HETATM   15  O   UNL     1     -40.071 -45.041  10.595  1.00  0.00    -0.271 OA
HETATM   16  N   UNL     1     -41.786 -44.770  12.083  1.00  0.00    -0.346 N 
HETATM   17  C   UNL     1     -42.129 -43.457  11.533  1.00  0.00     0.152 C 
HETATM   18  C   UNL     1     -42.719 -45.222  13.124  1.00  0.00     0.152 C 
HETATM   19  C   UNL     1     -42.285 -42.443  12.671  1.00  0.00     0.187 C 
HETATM   20  O   UNL     1     -43.269 -42.887  13.624  1.00  0.00    -0.388 OA
HETATM   21  C   UNL     1     -42.888 -44.144  14.200  1.00  0.00     0.187 C 
ENDBRANCH  12  14
ENDBRANCH   1  12
TORSDOF 5
ENDMDL
MODEL 7
REMARK VINA RESULT:      -4.9      3.346      6.137
REMARK  5 active torsions:
REMARK  status: ('A' for Active; 'I' for Inactive)
REMARK    1  A    between atoms: C_2  and  C_3 
REMARK    2  A    between atoms: C_2  and  N_10 
REMARK    3  A    between atoms: C_3  and  N_4 
REMARK    4  A    between atoms: N_10  and  C_11 
REMARK    5  A    between atoms: C_11  and  C_13 
REMARK       I    between atoms: C_13  and  N_15 
ROOT
HETATM    1  N   UNL     1     -41.565 -50.759  13.147  1.00  0.00     0.102 N 
HETATM    2  H   UNL     1     -40.548 -50.716  13.110  1.00  0.00     0.317 HD
ENDROOT
BRANCH   1   3
HETATM    3  C   UNL     1     -42.101 -51.976  12.511  1.00  0.00     0.237 C 
HETATM    4  C   UNL     1     -40.992 -52.995  12.210  1.00  0.00     0.044 C 
BRANCH   3   5
HETATM    5  C   UNL     1     -43.151 -52.679  13.399  1.00  0.00     0.183 C 
BRANCH   5   6
HETATM    6  N   UNL     1     -44.510 -52.192  13.265  1.00  0.00    -0.302 N 
HETATM    7  C   UNL     1     -45.263 -51.618  14.251  1.00  0.00     0.111 A 
HETATM    8  C   UNL     1     -46.539 -51.522  13.752  1.00  0.00     0.037 A 
HETATM    9  C   UNL     1     -46.456 -52.066  12.458  1.00  0.00     0.108 A 
HETATM   10  N   UNL     1     -45.225 -52.487  12.158  1.00  0.00    -0.310 N 
ATOM     11  HN  UNL     1     -44.901 -52.928  11.297  1.00  0.00     0.186 HD
ENDBRANCH   5   6
ENDBRANCH   3   5
ENDBRANCH   1   3
BRANCH   1  12
HETATM   12  C   UNL     1     -42.119 -49.475  12.668  1.00  0.00     0.308 C 
HETATM   13  C   UNL     1     -43.054 -48.819  13.686  1.00  0.00     0.053 C 
BRANCH  12  14
HETATM   14  C   UNL     1     -40.972 -48.482  12.326  1.00  0.00     0.253 C 
HETATM   15  O   UNL     1     -39.950 -48.418  13.014  1.00  0.00    -0.271 OA
HETATM   16  N   UNL     1     -41.154 -47.645  11.230  1.00  0.00    -0.346 N 
HETATM   17  C   UNL     1     -40.159 -46.611  10.936  1.00  0.00     0.152 C 
HETATM   18  C   UNL     1     -42.235 -47.705  10.238  1.00  0.00     0.152 C 
HETATM   19  C   UNL     1     -40.858 -45.261  10.738  1.00  0.00     0.187 C 
HETATM   20  O   UNL     1     -41.852 -45.345   9.700  1.00  0.00    -0.388 OA
HETATM   21  C   UNL     1     -42.853 -46.317  10.031  1.00  0.00     0.187 C 
ENDBRANCH  12  14
ENDBRANCH   1  12
TORSDOF 5
ENDMDL
MODEL 8
REMARK VINA RESULT:      -4.8      3.918      6.500
REMARK  5 active torsions:
REMARK  status: ('A' for Active; 'I' for Inactive)
REMARK    1  A    between atoms: C_2  and  C_3 
REMARK    2  A    between atoms: C_2  and  N_10 
REMARK    3  A    between atoms: C_3  and  N_4 
REMARK    4  A    between atoms: N_10  and  C_11 
REMARK    5  A    between atoms: C_11  and  C_13 
REMARK       I    between atoms: C_13  and  N_15 
ROOT
HETATM    1  N   UNL     1     -42.574 -53.197  14.442  1.00  0.00     0.102 N 
HETATM    2  H   UNL     1     -42.537 -52.919  15.421  1.00  0.00     0.317 HD
ENDROOT
BRANCH   1   3
HETATM    3  C   UNL     1     -43.134 -54.548  14.261  1.00  0.00     0.237 C 
HETATM    4  C   UNL     1     -43.113 -55.351  15.570  1.00  0.00     0.044 C 
BRANCH   3   5
HETATM    5  C   UNL     1     -44.596 -54.508  13.763  1.00  0.00     0.183 C 
BRANCH   5   6
HETATM    6  N   UNL     1     -45.200 -53.192  13.705  1.00  0.00    -0.302 N 
HETATM    7  C   UNL     1     -46.019 -52.637  14.648  1.00  0.00     0.111 A 
HETATM    8  C   UNL     1     -46.533 -51.494  14.086  1.00  0.00     0.037 A 
HETATM    9  C   UNL     1     -45.965 -51.445  12.800  1.00  0.00     0.108 A 
HETATM   10  N   UNL     1     -45.160 -52.482  12.556  1.00  0.00    -0.310 N 
ATOM     11  HN  UNL     1     -44.639 -52.690  11.704  1.00  0.00     0.186 HD
ENDBRANCH   5   6
ENDBRANCH   3   5
ENDBRANCH   1   3
BRANCH   1  12
HETATM   12  C   UNL     1     -41.255 -52.949  13.820  1.00  0.00     0.308 C 
HETATM   13  C   UNL     1     -40.837 -54.065  12.860  1.00  0.00     0.053 C 
BRANCH  12  14
HETATM   14  C   UNL     1     -41.264 -51.599  13.048  1.00  0.00     0.253 C 
HETATM   15  O   UNL     1     -42.249 -51.233  12.402  1.00  0.00    -0.271 OA
HETATM   16  N   UNL     1     -40.105 -50.830  13.090  1.00  0.00    -0.346 N 
HETATM   17  C   UNL     1     -40.017 -49.609  12.285  1.00  0.00     0.152 C 
HETATM   18  C   UNL     1     -38.919 -51.056  13.927  1.00  0.00     0.152 C 
HETATM   19  C   UNL     1     -38.714 -49.613  11.479  1.00  0.00     0.187 C 
HETATM   20  O   UNL     1     -37.574 -49.754  12.346  1.00  0.00    -0.388 OA
HETATM   21  C   UNL     1     -37.643 -50.983  13.082  1.00  0.00     0.187 C 
ENDBRANCH  12  14
ENDBRANCH   1  12
TORSDOF 5
ENDMDL
MODEL 9
REMARK VINA RESULT:      -4.8      4.994      6.851
REMARK  5 active torsions:
REMARK  status: ('A' for Active; 'I' for Inactive)
REMARK    1  A    between atoms: C_2  and  C_3 
REMARK    2  A    between atoms: C_2  and  N_10 
REMARK    3  A    between atoms: C_3  and  N_4 
REMARK    4  A    between atoms: N_10  and  C_11 
REMARK    5  A    between atoms: C_11  and  C_13 
REMARK       I    between atoms: C_13  and  N_15 
ROOT
HETATM    1  N   UNL     1     -44.735 -52.586  12.401  1.00  0.00     0.102 N 
HETATM    2  H   UNL     1     -44.695 -52.565  11.383  1.00  0.00     0.317 HD
ENDROOT
BRANCH   1   3
HETATM    3  C   UNL     1     -46.001 -52.046  12.927  1.00  0.00     0.237 C 
HETATM    4  C   UNL     1     -46.994 -51.727  11.799  1.00  0.00     0.044 C 
BRANCH   3   5
HETATM    5  C   UNL     1     -46.695 -53.032  13.893  1.00  0.00     0.183 C 
BRANCH   5   6
HETATM    6  N   UNL     1     -46.703 -52.638  15.288  1.00  0.00    -0.302 N 
HETATM    7  C   UNL     1     -47.213 -51.476  15.796  1.00  0.00     0.111 A 
HETATM    8  C   UNL     1     -46.807 -51.419  17.107  1.00  0.00     0.037 A 
HETATM    9  C   UNL     1     -46.055 -52.593  17.296  1.00  0.00     0.108 A 
HETATM   10  N   UNL     1     -45.978 -53.335  16.189  1.00  0.00    -0.310 N 
ATOM     11  HN  UNL     1     -45.487 -54.220  16.055  1.00  0.00     0.186 HD
ENDBRANCH   5   6
ENDBRANCH   3   5
ENDBRANCH   1   3
BRANCH   1  12
HETATM   12  C   UNL     1     -43.496 -51.989  12.944  1.00  0.00     0.308 C 
HETATM   13  C   UNL     1     -43.767 -50.999  14.079  1.00  0.00     0.053 C 
BRANCH  12  14
HETATM   14  C   UNL     1     -42.540 -53.100  13.464  1.00  0.00     0.253 C 
HETATM   15  O   UNL     1     -42.957 -54.044  14.139  1.00  0.00    -0.271 OA
HETATM   16  N   UNL     1     -41.188 -52.974  13.162  1.00  0.00    -0.346 N 
HETATM   17  C   UNL     1     -40.229 -53.927  13.726  1.00  0.00     0.152 C 
HETATM   18  C   UNL     1     -40.568 -52.001  12.253  1.00  0.00     0.152 C 
HETATM   19  C   UNL     1     -39.065 -53.168  14.373  1.00  0.00     0.187 C 
HETATM   20  O   UNL     1     -38.435 -52.287  13.425  1.00  0.00    -0.388 OA
HETATM   21  C   UNL     1     -39.372 -51.321  12.928  1.00  0.00     0.187 C 
ENDBRANCH  12  14
ENDBRANCH   1  12
TORSDOF 5
ENDMDL
