MODEL 1
REMARK VINA RESULT:      -6.6      0.000      0.000
REMARK  5 active torsions:
REMARK  status: ('A' for Active; 'I' for Inactive)
REMARK    1  A    between atoms: N_6  and  C_7 
REMARK    2  A    between atoms: C_7  and  C_8 
REMARK    3  A    between atoms: C_8  and  O_9 
REMARK    4  A    between atoms: O_9  and  C_10 
REMARK    5  A    between atoms: C_19  and  C_20 
REMARK       I    between atoms: C_20  and  N_22 
ROOT
HETATM    1  C   UNL     1     -37.876 -49.853  13.233  1.00  0.00     0.049 C 
HETATM    2  C   UNL     1     -38.919 -50.943  13.192  1.00  0.00    -0.039 A 
HETATM    3  C   UNL     1     -38.608 -52.103  14.004  1.00  0.00     0.033 A 
HETATM    4  C   UNL     1     -39.407 -53.180  14.060  1.00  0.00     0.011 A 
HETATM    5  C   UNL     1     -39.016 -54.346  14.926  1.00  0.00     0.068 C 
HETATM    6  N   UNL     1     -40.588 -53.198  13.323  1.00  0.00    -0.316 N 
HETATM    7  C   UNL     1     -40.996 -52.091  12.558  1.00  0.00     0.264 A 
HETATM    8  O   UNL     1     -42.081 -52.074  11.971  1.00  0.00    -0.267 OA
HETATM    9  C   UNL     1     -40.067 -50.903  12.479  1.00  0.00     0.105 A 
ENDROOT
BRANCH   6  10
HETATM   10  C   UNL     1     -41.529 -54.335  13.391  1.00  0.00     0.159 C 
BRANCH  10  11
HETATM   11  C   UNL     1     -42.569 -54.143  14.500  1.00  0.00     0.196 C 
BRANCH  11  12
HETATM   12  O   UNL     1     -43.878 -54.548  14.075  1.00  0.00    -0.349 OA
BRANCH  12  13
HETATM   13  C   UNL     1     -44.789 -53.525  13.949  1.00  0.00     0.071 A 
HETATM   14  C   UNL     1     -45.056 -52.790  15.111  1.00  0.00     0.037 A 
HETATM   15  C   UNL     1     -45.963 -51.721  15.088  1.00  0.00     0.006 A 
HETATM   16  C   UNL     1     -46.609 -51.381  13.901  1.00  0.00     0.042 A 
HETATM   17  C   UNL     1     -46.344 -52.113  12.753  1.00  0.00     0.119 A 
HETATM   18  F   UNL     1     -46.958 -51.793  11.607  1.00  0.00    -0.206 F 
HETATM   19  C   UNL     1     -45.446 -53.175  12.765  1.00  0.00     0.079 A 
ENDBRANCH  12  13
ENDBRANCH  11  12
ENDBRANCH  10  11
ENDBRANCH   6  10
BRANCH   9  20
HETATM   20  C   UNL     1     -40.408 -49.700  11.646  1.00  0.00     0.255 C 
HETATM   21  O   UNL     1     -40.678 -48.594  12.102  1.00  0.00    -0.268 OA
HETATM   22  N   UNL     1     -40.409 -49.868  10.295  1.00  0.00    -0.366 N 
HETATM   23  H   UNL     1     -40.211 -50.766   9.867  1.00  0.00     0.159 HD
HETATM   24  H   UNL     1     -40.643 -49.082   9.707  1.00  0.00     0.159 HD
ENDBRANCH   9  20
TORSDOF 5
ENDMDL
MODEL 2
REMARK VINA RESULT:      -6.1      2.979      6.642
REMARK  5 active torsions:
REMARK  status: ('A' for Active; 'I' for Inactive)
REMARK    1  A    between atoms: N_6  and  C_7 
REMARK    2  A    between atoms: C_7  and  C_8 
REMARK    3  A    between atoms: C_8  and  O_9 
REMARK    4  A    between atoms: O_9  and  C_10 
REMARK    5  A    between atoms: C_19  and  C_20 
REMARK       I    between atoms: C_20  and  N_22 
ROOT
HETATM    1  C   UNL     1     -46.395 -51.520  14.088  1.00  0.00     0.049 C 
HETATM    2  C   UNL     1     -45.017 -52.096  13.868  1.00  0.00    -0.039 A 
HETATM    3  C   UNL     1     -44.065 -51.168  13.290  1.00  0.00     0.033 A 
HETATM    4  C   UNL     1     -42.803 -51.519  12.995  1.00  0.00     0.011 A 
HETATM    5  C   UNL     1     -41.873 -50.500  12.397  1.00  0.00     0.068 C 
HETATM    6  N   UNL     1     -42.373 -52.818  13.255  1.00  0.00    -0.316 N 
HETATM    7  C   UNL     1     -43.213 -53.763  13.870  1.00  0.00     0.264 A 
HETATM    8  O   UNL     1     -42.808 -54.887  14.176  1.00  0.00    -0.267 OA
HETATM    9  C   UNL     1     -44.639 -53.360  14.162  1.00  0.00     0.105 A 
ENDROOT
BRANCH   6  10
HETATM   10  C   UNL     1     -40.981 -53.241  13.000  1.00  0.00     0.159 C 
BRANCH  10  11
HETATM   11  C   UNL     1     -40.104 -53.084  14.247  1.00  0.00     0.196 C 
BRANCH  11  12
HETATM   12  O   UNL     1     -38.737 -52.813  13.904  1.00  0.00    -0.349 OA
BRANCH  12  13
HETATM   13  C   UNL     1     -38.477 -51.511  13.547  1.00  0.00     0.071 A 
HETATM   14  C   UNL     1     -38.799 -50.534  14.498  1.00  0.00     0.037 A 
HETATM   15  C   UNL     1     -38.566 -49.176  14.237  1.00  0.00     0.006 A 
HETATM   16  C   UNL     1     -38.008 -48.788  13.021  1.00  0.00     0.042 A 
HETATM   17  C   UNL     1     -37.693 -49.758  12.080  1.00  0.00     0.119 A 
HETATM   18  F   UNL     1     -37.155 -49.394  10.909  1.00  0.00    -0.206 F 
HETATM   19  C   UNL     1     -37.920 -51.107  12.330  1.00  0.00     0.079 A 
ENDBRANCH  12  13
ENDBRANCH  11  12
ENDBRANCH  10  11
ENDBRANCH   6  10
BRANCH   9  20
HETATM   20  C   UNL     1     -45.613 -54.326  14.776  1.00  0.00     0.255 C 
HETATM   21  O   UNL     1     -45.937 -54.327  15.958  1.00  0.00    -0.268 OA
HETATM   22  N   UNL     1     -46.164 -55.253  13.946  1.00  0.00    -0.366 N 
HETATM   23  H   UNL     1     -45.916 -55.307  12.963  1.00  0.00     0.159 HD
HETATM   24  H   UNL     1     -46.815 -55.923  14.328  1.00  0.00     0.159 HD
ENDBRANCH   9  20
TORSDOF 5
ENDMDL
MODEL 3
REMARK VINA RESULT:      -6.0      3.174      4.647
REMARK  5 active torsions:
REMARK  status: ('A' for Active; 'I' for Inactive)
REMARK    1  A    between atoms: N_6  and  C_7 
REMARK    2  A    between atoms: C_7  and  C_8 
REMARK    3  A    between atoms: C_8  and  O_9 
REMARK    4  A    between atoms: O_9  and  C_10 
REMARK    5  A    between atoms: C_19  and  C_20 
REMARK       I    between atoms: C_20  and  N_22 
ROOT
HETATM    1  C   UNL     1     -41.172 -56.073  16.637  1.00  0.00     0.049 C 
HETATM    2  C   UNL     1     -41.721 -55.247  15.499  1.00  0.00    -0.039 A 
HETATM    3  C   UNL     1     -43.162 -55.303  15.356  1.00  0.00     0.033 A 
HETATM    4  C   UNL     1     -43.817 -54.657  14.378  1.00  0.00     0.011 A 
HETATM    5  C   UNL     1     -45.314 -54.764  14.295  1.00  0.00     0.068 C 
HETATM    6  N   UNL     1     -43.100 -53.891  13.462  1.00  0.00    -0.316 N 
HETATM    7  C   UNL     1     -41.707 -53.732  13.564  1.00  0.00     0.264 A 
HETATM    8  O   UNL     1     -41.082 -52.989  12.804  1.00  0.00    -0.267 OA
HETATM    9  C   UNL     1     -40.985 -54.496  14.649  1.00  0.00     0.105 A 
ENDROOT
BRANCH   6  10
HETATM   10  C   UNL     1     -43.775 -53.116  12.401  1.00  0.00     0.159 C 
BRANCH  10  11
HETATM   11  C   UNL     1     -44.036 -51.670  12.833  1.00  0.00     0.196 C 
BRANCH  11  12
HETATM   12  O   UNL     1     -45.419 -51.449  13.143  1.00  0.00    -0.349 OA
BRANCH  12  13
HETATM   13  C   UNL     1     -45.686 -51.224  14.474  1.00  0.00     0.071 A 
HETATM   14  C   UNL     1     -46.992 -51.501  14.896  1.00  0.00     0.037 A 
HETATM   15  C   UNL     1     -47.367 -51.313  16.234  1.00  0.00     0.006 A 
HETATM   16  C   UNL     1     -46.434 -50.847  17.158  1.00  0.00     0.042 A 
HETATM   17  C   UNL     1     -45.142 -50.571  16.736  1.00  0.00     0.119 A 
HETATM   18  F   UNL     1     -44.239 -50.123  17.618  1.00  0.00    -0.206 F 
HETATM   19  C   UNL     1     -44.761 -50.754  15.411  1.00  0.00     0.079 A 
ENDBRANCH  12  13
ENDBRANCH  11  12
ENDBRANCH  10  11
ENDBRANCH   6  10
BRANCH   9  20
HETATM   20  C   UNL     1     -39.491 -54.417  14.797  1.00  0.00     0.255 C 
HETATM   21  O   UNL     1     -38.915 -53.913  15.754  1.00  0.00    -0.268 OA
HETATM   22  N   UNL     1     -38.745 -54.948  13.791  1.00  0.00    -0.366 N 
HETATM   23  H   UNL     1     -39.173 -55.360  12.967  1.00  0.00     0.159 HD
HETATM   24  H   UNL     1     -37.739 -54.903  13.854  1.00  0.00     0.159 HD
ENDBRANCH   9  20
TORSDOF 5
ENDMDL
MODEL 4
REMARK VINA RESULT:      -5.9      1.848      2.376
REMARK  5 active torsions:
REMARK  status: ('A' for Active; 'I' for Inactive)
REMARK    1  A    between atoms: N_6  and  C_7 
REMARK    2  A    between atoms: C_7  and  C_8 
REMARK    3  A    between atoms: C_8  and  O_9 
REMARK    4  A    between atoms: O_9  and  C_10 
REMARK    5  A    between atoms: C_19  and  C_20 
REMARK       I    between atoms: C_20  and  N_22 
ROOT
HETATM    1  C   UNL     1     -40.838 -47.998  13.516  1.00  0.00     0.049 C 
HETATM    2  C   UNL     1     -40.982 -49.497  13.623  1.00  0.00    -0.039 A 
HETATM    3  C   UNL     1     -41.712 -49.948  14.791  1.00  0.00     0.033 A 
HETATM    4  C   UNL     1     -41.907 -51.248  15.063  1.00  0.00     0.011 A 
HETATM    5  C   UNL     1     -42.675 -51.638  16.296  1.00  0.00     0.068 C 
HETATM    6  N   UNL     1     -41.401 -52.214  14.197  1.00  0.00    -0.316 N 
HETATM    7  C   UNL     1     -40.735 -51.863  13.010  1.00  0.00     0.264 A 
HETATM    8  O   UNL     1     -40.359 -52.715  12.201  1.00  0.00    -0.267 OA
HETATM    9  C   UNL     1     -40.495 -50.396  12.739  1.00  0.00     0.105 A 
ENDROOT
BRANCH   6  10
HETATM   10  C   UNL     1     -41.633 -53.656  14.421  1.00  0.00     0.159 C 
BRANCH  10  11
HETATM   11  C   UNL     1     -42.799 -54.180  13.575  1.00  0.00     0.196 C 
BRANCH  11  12
HETATM   12  O   UNL     1     -43.963 -54.431  14.375  1.00  0.00    -0.349 OA
BRANCH  12  13
HETATM   13  C   UNL     1     -44.925 -53.449  14.323  1.00  0.00     0.071 A 
HETATM   14  C   UNL     1     -44.903 -52.624  13.192  1.00  0.00     0.037 A 
HETATM   15  C   UNL     1     -45.845 -51.597  13.037  1.00  0.00     0.006 A 
HETATM   16  C   UNL     1     -46.815 -51.390  14.016  1.00  0.00     0.042 A 
HETATM   17  C   UNL     1     -46.831 -52.207  15.137  1.00  0.00     0.119 A 
HETATM   18  F   UNL     1     -47.761 -52.016  16.082  1.00  0.00    -0.206 F 
HETATM   19  C   UNL     1     -45.901 -53.229  15.298  1.00  0.00     0.079 A 
ENDBRANCH  12  13
ENDBRANCH  11  12
ENDBRANCH  10  11
ENDBRANCH   6  10
BRANCH   9  20
HETATM   20  C   UNL     1     -39.750 -49.940  11.516  1.00  0.00     0.255 C 
HETATM   21  O   UNL     1     -38.580 -49.574  11.513  1.00  0.00    -0.268 OA
HETATM   22  N   UNL     1     -40.437 -49.943  10.342  1.00  0.00    -0.366 N 
HETATM   23  H   UNL     1     -41.413 -50.219  10.292  1.00  0.00     0.159 HD
HETATM   24  H   UNL     1     -39.969 -49.633   9.503  1.00  0.00     0.159 HD
ENDBRANCH   9  20
TORSDOF 5
ENDMDL
MODEL 5
REMARK VINA RESULT:      -5.8      2.704      4.252
REMARK  5 active torsions:
REMARK  status: ('A' for Active; 'I' for Inactive)
REMARK    1  A    between atoms: N_6  and  C_7 
REMARK    2  A    between atoms: C_7  and  C_8 
REMARK    3  A    between atoms: C_8  and  O_9 
REMARK    4  A    between atoms: O_9  and  C_10 
REMARK    5  A    between atoms: C_19  and  C_20 
REMARK       I    between atoms: C_20  and  N_22 
ROOT
HETATM    1  C   UNL     1     -39.162 -45.220  13.824  1.00  0.00     0.049 C 
HETATM    2  C   UNL     1     -39.065 -46.675  13.437  1.00  0.00    -0.039 A 
HETATM    3  C   UNL     1     -38.240 -47.477  14.319  1.00  0.00     0.033 A 
HETATM    4  C   UNL     1     -38.016 -48.784  14.108  1.00  0.00     0.011 A 
HETATM    5  C   UNL     1     -37.148 -49.550  15.068  1.00  0.00     0.068 C 
HETATM    6  N   UNL     1     -38.596 -49.411  13.008  1.00  0.00    -0.316 N 
HETATM    7  C   UNL     1     -39.458 -48.723  12.137  1.00  0.00     0.264 A 
HETATM    8  O   UNL     1     -40.037 -49.297  11.211  1.00  0.00    -0.267 OA
HETATM    9  C   UNL     1     -39.670 -47.246  12.371  1.00  0.00     0.105 A 
ENDROOT
BRANCH   6  10
HETATM   10  C   UNL     1     -38.426 -50.857  12.760  1.00  0.00     0.159 C 
BRANCH  10  11
HETATM   11  C   UNL     1     -39.513 -51.684  13.454  1.00  0.00     0.196 C 
BRANCH  11  12
HETATM   12  O   UNL     1     -40.004 -52.733  12.608  1.00  0.00    -0.349 OA
BRANCH  12  13
HETATM   13  C   UNL     1     -41.258 -53.198  12.931  1.00  0.00     0.071 A 
HETATM   14  C   UNL     1     -42.329 -52.602  12.254  1.00  0.00     0.037 A 
HETATM   15  C   UNL     1     -43.648 -53.009  12.503  1.00  0.00     0.006 A 
HETATM   16  C   UNL     1     -43.902 -54.016  13.432  1.00  0.00     0.042 A 
HETATM   17  C   UNL     1     -42.838 -54.602  14.102  1.00  0.00     0.119 A 
HETATM   18  F   UNL     1     -43.072 -55.571  14.996  1.00  0.00    -0.206 F 
HETATM   19  C   UNL     1     -41.527 -54.205  13.862  1.00  0.00     0.079 A 
ENDBRANCH  12  13
ENDBRANCH  11  12
ENDBRANCH  10  11
ENDBRANCH   6  10
BRANCH   9  20
HETATM   20  C   UNL     1     -40.540 -46.428  11.458  1.00  0.00     0.255 C 
HETATM   21  O   UNL     1     -41.682 -46.071  11.724  1.00  0.00    -0.268 OA
HETATM   22  N   UNL     1     -40.005 -46.066  10.261  1.00  0.00    -0.366 N 
HETATM   23  H   UNL     1     -39.070 -46.351   9.984  1.00  0.00     0.159 HD
HETATM   24  H   UNL     1     -40.565 -45.525   9.619  1.00  0.00     0.159 HD
ENDBRANCH   9  20
TORSDOF 5
ENDMDL
MODEL 6
REMARK VINA RESULT:      -5.8      2.606      5.928
REMARK  5 active torsions:
REMARK  status: ('A' for Active; 'I' for Inactive)
REMARK    1  A    between atoms: N_6  and  C_7 
REMARK    2  A    between atoms: C_7  and  C_8 
REMARK    3  A    between atoms: C_8  and  O_9 
REMARK    4  A    between atoms: O_9  and  C_10 
REMARK    5  A    between atoms: C_19  and  C_20 
REMARK       I    between atoms: C_20  and  N_22 
ROOT
HETATM    1  C   UNL     1     -45.345 -55.240  13.872  1.00  0.00     0.049 C 
HETATM    2  C   UNL     1     -44.317 -54.139  13.775  1.00  0.00    -0.039 A 
HETATM    3  C   UNL     1     -42.959 -54.558  14.059  1.00  0.00     0.033 A 
HETATM    4  C   UNL     1     -41.923 -53.704  14.051  1.00  0.00     0.011 A 
HETATM    5  C   UNL     1     -40.542 -54.213  14.356  1.00  0.00     0.068 C 
HETATM    6  N   UNL     1     -42.143 -52.361  13.754  1.00  0.00    -0.316 N 
HETATM    7  C   UNL     1     -43.418 -51.882  13.408  1.00  0.00     0.264 A 
HETATM    8  O   UNL     1     -43.599 -50.711  13.064  1.00  0.00    -0.267 OA
HETATM    9  C   UNL     1     -44.576 -52.851  13.456  1.00  0.00     0.105 A 
ENDROOT
BRANCH   6  10
HETATM   10  C   UNL     1     -41.032 -51.390  13.679  1.00  0.00     0.159 C 
BRANCH  10  11
HETATM   11  C   UNL     1     -40.470 -51.280  12.258  1.00  0.00     0.196 C 
BRANCH  11  12
HETATM   12  O   UNL     1     -39.593 -50.153  12.120  1.00  0.00    -0.349 OA
BRANCH  12  13
HETATM   13  C   UNL     1     -40.183 -49.017  11.616  1.00  0.00     0.071 A 
HETATM   14  C   UNL     1     -39.556 -47.805  11.930  1.00  0.00     0.037 A 
HETATM   15  C   UNL     1     -40.072 -46.589  11.459  1.00  0.00     0.006 A 
HETATM   16  C   UNL     1     -41.221 -46.580  10.671  1.00  0.00     0.042 A 
HETATM   17  C   UNL     1     -41.841 -47.783  10.364  1.00  0.00     0.119 A 
HETATM   18  F   UNL     1     -42.945 -47.784   9.606  1.00  0.00    -0.206 F 
HETATM   19  C   UNL     1     -41.337 -48.994  10.826  1.00  0.00     0.079 A 
ENDBRANCH  12  13
ENDBRANCH  11  12
ENDBRANCH  10  11
ENDBRANCH   6  10
BRANCH   9  20
HETATM   20  C   UNL     1     -45.978 -52.407  13.144  1.00  0.00     0.255 C 
HETATM   21  O   UNL     1     -46.826 -52.143  13.989  1.00  0.00    -0.268 OA
HETATM   22  N   UNL     1     -46.310 -52.296  11.829  1.00  0.00    -0.366 N 
HETATM   23  H   UNL     1     -45.651 -52.521  11.090  1.00  0.00     0.159 HD
HETATM   24  H   UNL     1     -47.246 -52.010  11.585  1.00  0.00     0.159 HD
ENDBRANCH   9  20
TORSDOF 5
ENDMDL
MODEL 7
REMARK VINA RESULT:      -5.8      3.185      6.602
REMARK  5 active torsions:
REMARK  status: ('A' for Active; 'I' for Inactive)
REMARK    1  A    between atoms: N_6  and  C_7 
REMARK    2  A    between atoms: C_7  and  C_8 
REMARK    3  A    between atoms: C_8  and  O_9 
REMARK    4  A    between atoms: O_9  and  C_10 
REMARK    5  A    between atoms: C_19  and  C_20 
REMARK       I    between atoms: C_20  and  N_22 
ROOT
HETATM    1  C   UNL     1     -46.392 -51.459  15.328  1.00  0.00     0.049 C 
HETATM    2  C   UNL     1     -45.172 -51.781  14.500  1.00  0.00    -0.039 A 
HETATM    3  C   UNL     1     -44.494 -50.623  13.953  1.00  0.00     0.033 A 
HETATM    4  C   UNL     1     -43.411 -50.724  13.166  1.00  0.00     0.011 A 
HETATM    5  C   UNL     1     -42.762 -49.476  12.636  1.00  0.00     0.068 C 
HETATM    6  N   UNL     1     -42.901 -51.984  12.859  1.00  0.00    -0.316 N 
HETATM    7  C   UNL     1     -43.461 -53.156  13.397  1.00  0.00     0.264 A 
HETATM    8  O   UNL     1     -42.960 -54.265  13.192  1.00  0.00    -0.267 OA
HETATM    9  C   UNL     1     -44.699 -53.023  14.251  1.00  0.00     0.105 A 
ENDROOT
BRANCH   6  10
HETATM   10  C   UNL     1     -41.682 -52.150  12.043  1.00  0.00     0.159 C 
BRANCH  10  11
HETATM   11  C   UNL     1     -40.413 -52.070  12.898  1.00  0.00     0.196 C 
BRANCH  11  12
HETATM   12  O   UNL     1     -39.784 -53.352  13.035  1.00  0.00    -0.349 OA
BRANCH  12  13
HETATM   13  C   UNL     1     -39.362 -53.657  14.309  1.00  0.00     0.071 A 
HETATM   14  C   UNL     1     -39.302 -52.587  15.211  1.00  0.00     0.037 A 
HETATM   15  C   UNL     1     -38.892 -52.792  16.536  1.00  0.00     0.006 A 
HETATM   16  C   UNL     1     -38.539 -54.069  16.966  1.00  0.00     0.042 A 
HETATM   17  C   UNL     1     -38.597 -55.125  16.068  1.00  0.00     0.119 A 
HETATM   18  F   UNL     1     -38.261 -56.357  16.473  1.00  0.00    -0.206 F 
HETATM   19  C   UNL     1     -39.002 -54.933  14.752  1.00  0.00     0.079 A 
ENDBRANCH  12  13
ENDBRANCH  11  12
ENDBRANCH  10  11
ENDBRANCH   6  10
BRANCH   9  20
HETATM   20  C   UNL     1     -45.384 -54.231  14.826  1.00  0.00     0.255 C 
HETATM   21  O   UNL     1     -45.306 -54.581  15.998  1.00  0.00    -0.268 OA
HETATM   22  N   UNL     1     -46.141 -54.973  13.971  1.00  0.00    -0.366 N 
HETATM   23  H   UNL     1     -46.224 -54.737  12.987  1.00  0.00     0.159 HD
HETATM   24  H   UNL     1     -46.607 -55.796  14.323  1.00  0.00     0.159 HD
ENDBRANCH   9  20
TORSDOF 5
ENDMDL
MODEL 8
REMARK VINA RESULT:      -5.8      2.794      3.911
REMARK  5 active torsions:
REMARK  status: ('A' for Active; 'I' for Inactive)
REMARK    1  A    between atoms: N_6  and  C_7 
REMARK    2  A    between atoms: C_7  and  C_8 
REMARK    3  A    between atoms: C_8  and  O_9 
REMARK    4  A    between atoms: O_9  and  C_10 
REMARK    5  A    between atoms: C_19  and  C_20 
REMARK       I    between atoms: C_20  and  N_22 
ROOT
HETATM    1  C   UNL     1     -39.349 -45.040  12.971  1.00  0.00     0.049 C 
HETATM    2  C   UNL     1     -39.841 -46.398  12.531  1.00  0.00    -0.039 A 
HETATM    3  C   UNL     1     -39.275 -47.510  13.269  1.00  0.00     0.033 A 
HETATM    4  C   UNL     1     -39.574 -48.788  12.991  1.00  0.00     0.011 A 
HETATM    5  C   UNL     1     -38.947 -49.888  13.802  1.00  0.00     0.068 C 
HETATM    6  N   UNL     1     -40.466 -49.076  11.960  1.00  0.00    -0.316 N 
HETATM    7  C   UNL     1     -41.106 -48.057  11.234  1.00  0.00     0.264 A 
HETATM    8  O   UNL     1     -41.958 -48.309  10.378  1.00  0.00    -0.267 OA
HETATM    9  C   UNL     1     -40.730 -46.626  11.539  1.00  0.00     0.105 A 
ENDROOT
BRANCH   6  10
HETATM   10  C   UNL     1     -40.871 -50.462  11.648  1.00  0.00     0.159 C 
BRANCH  10  11
HETATM   11  C   UNL     1     -42.066 -50.908  12.496  1.00  0.00     0.196 C 
BRANCH  11  12
HETATM   12  O   UNL     1     -42.448 -52.260  12.205  1.00  0.00    -0.349 OA
BRANCH  12  13
HETATM   13  C   UNL     1     -43.633 -52.663  12.777  1.00  0.00     0.071 A 
HETATM   14  C   UNL     1     -44.451 -51.645  13.283  1.00  0.00     0.037 A 
HETATM   15  C   UNL     1     -45.684 -51.948  13.878  1.00  0.00     0.006 A 
HETATM   16  C   UNL     1     -46.105 -53.273  13.971  1.00  0.00     0.042 A 
HETATM   17  C   UNL     1     -45.290 -54.279  13.472  1.00  0.00     0.119 A 
HETATM   18  F   UNL     1     -45.687 -55.555  13.555  1.00  0.00    -0.206 F 
HETATM   19  C   UNL     1     -44.066 -53.988  12.879  1.00  0.00     0.079 A 
ENDBRANCH  12  13
ENDBRANCH  11  12
ENDBRANCH  10  11
ENDBRANCH   6  10
BRANCH   9  20
HETATM   20  C   UNL     1     -41.335 -45.481  10.776  1.00  0.00     0.255 C 
HETATM   21  O   UNL     1     -40.738 -44.812   9.941  1.00  0.00    -0.268 OA
HETATM   22  N   UNL     1     -42.636 -45.184  11.044  1.00  0.00    -0.366 N 
HETATM   23  H   UNL     1     -43.170 -45.695  11.740  1.00  0.00     0.159 HD
HETATM   24  H   UNL     1     -43.071 -44.414  10.556  1.00  0.00     0.159 HD
ENDBRANCH   9  20
TORSDOF 5
ENDMDL
MODEL 9
REMARK VINA RESULT:      -5.8      3.240      6.287
REMARK  5 active torsions:
REMARK  status: ('A' for Active; 'I' for Inactive)
REMARK    1  A    between atoms: N_6  and  C_7 
REMARK    2  A    between atoms: C_7  and  C_8 
REMARK    3  A    between atoms: C_8  and  O_9 
REMARK    4  A    between atoms: O_9  and  C_10 
REMARK    5  A    between atoms: C_19  and  C_20 
REMARK       I    between atoms: C_20  and  N_22 
ROOT
HETATM    1  C   UNL     1     -41.935 -55.826  16.325  1.00  0.00     0.049 C 
HETATM    2  C   UNL     1     -41.620 -54.886  15.188  1.00  0.00    -0.039 A 
HETATM    3  C   UNL     1     -42.771 -54.481  14.406  1.00  0.00     0.033 A 
HETATM    4  C   UNL     1     -42.672 -53.675  13.338  1.00  0.00     0.011 A 
HETATM    5  C   UNL     1     -43.913 -53.299  12.577  1.00  0.00     0.068 C 
HETATM    6  N   UNL     1     -41.423 -53.192  12.955  1.00  0.00    -0.316 N 
HETATM    7  C   UNL     1     -40.263 -53.485  13.693  1.00  0.00     0.264 A 
HETATM    8  O   UNL     1     -39.169 -52.992  13.404  1.00  0.00    -0.267 OA
HETATM    9  C   UNL     1     -40.390 -54.422  14.871  1.00  0.00     0.105 A 
ENDROOT
BRANCH   6  10
HETATM   10  C   UNL     1     -41.264 -52.259  11.821  1.00  0.00     0.159 C 
BRANCH  10  11
HETATM   11  C   UNL     1     -41.487 -50.805  12.249  1.00  0.00     0.196 C 
BRANCH  11  12
HETATM   12  O   UNL     1     -40.350 -49.983  11.946  1.00  0.00    -0.349 OA
BRANCH  12  13
HETATM   13  C   UNL     1     -40.653 -48.722  11.488  1.00  0.00     0.071 A 
HETATM   14  C   UNL     1     -41.913 -48.567  10.895  1.00  0.00     0.037 A 
HETATM   15  C   UNL     1     -42.323 -47.320  10.402  1.00  0.00     0.006 A 
HETATM   16  C   UNL     1     -41.473 -46.220  10.499  1.00  0.00     0.042 A 
HETATM   17  C   UNL     1     -40.225 -46.378  11.084  1.00  0.00     0.119 A 
HETATM   18  F   UNL     1     -39.402 -45.326  11.183  1.00  0.00    -0.206 F 
HETATM   19  C   UNL     1     -39.810 -47.611  11.576  1.00  0.00     0.079 A 
ENDBRANCH  12  13
ENDBRANCH  11  12
ENDBRANCH  10  11
ENDBRANCH   6  10
BRANCH   9  20
HETATM   20  C   UNL     1     -39.190 -54.822  15.683  1.00  0.00     0.255 C 
HETATM   21  O   UNL     1     -38.626 -55.907  15.600  1.00  0.00    -0.268 OA
HETATM   22  N   UNL     1     -38.710 -53.903  16.564  1.00  0.00    -0.366 N 
HETATM   23  H   UNL     1     -39.151 -52.996  16.685  1.00  0.00     0.159 HD
HETATM   24  H   UNL     1     -37.911 -54.142  17.132  1.00  0.00     0.159 HD
ENDBRANCH   9  20
TORSDOF 5
ENDMDL
