MODEL 1
REMARK VINA RESULT:      -6.7      0.000      0.000
REMARK  3 active torsions:
REMARK  status: ('A' for Active; 'I' for Inactive)
REMARK    1  A    between atoms: N_2  and  C_4 
REMARK    2  A    between atoms: C_8  and  N_9 
REMARK       I    between atoms: N_9  and  C_10 
REMARK       I    between atoms: C_10  and  N_12 
REMARK    3  A    between atoms: N_12  and  C_13 
ROOT
HETATM    1  N   UNL     1     -43.531 -48.699  11.724  1.00  0.00    -0.306 N 
HETATM    2  C   UNL     1     -43.352 -49.641  12.717  1.00  0.00     0.321 C 
HETATM    3  O   UNL     1     -42.489 -49.599  13.580  1.00  0.00    -0.247 OA
HETATM    4  N   UNL     1     -44.259 -50.667  12.681  1.00  0.00    -0.337 N 
HETATM    5  H   UNL     1     -44.468 -48.588  11.355  1.00  0.00     0.171 HD
HETATM    6  H   UNL     1     -44.867 -50.748  11.878  1.00  0.00     0.164 HD
ENDROOT
BRANCH   1   7
HETATM    7  C   UNL     1     -42.605 -47.648  11.503  1.00  0.00     0.068 A 
HETATM    8  C   UNL     1     -42.673 -46.426  12.137  1.00  0.00     0.137 A 
HETATM    9  N   UNL     1     -41.832 -45.401  11.899  1.00  0.00    -0.200 N 
HETATM   10  C   UNL     1     -40.867 -45.575  10.986  1.00  0.00     0.679 A 
ATOM     11  HN  UNL     1     -41.927 -44.518  12.400  1.00  0.00     0.183 HD
HETATM   12  N   UNL     1     -40.678 -46.753  10.358  1.00  0.00    -0.200 N 
HETATM   13  C   UNL     1     -41.543 -47.759  10.634  1.00  0.00     0.137 A 
ATOM     14  HN  UNL     1     -39.911 -46.882   9.698  1.00  0.00     0.183 HD
BRANCH  10  15
HETATM   15  N   UNL     1     -40.073 -44.493  10.675  1.00  0.00    -0.226 N 
HETATM   16  C   UNL     1     -39.104 -44.647   9.612  1.00  0.00     0.168 C 
HETATM   17  C   UNL     1     -40.432 -43.191  11.178  1.00  0.00     0.168 C 
ENDBRANCH  10  15
ENDBRANCH   1   7
BRANCH   4  18
HETATM   18  C   UNL     1     -44.227 -51.706  13.740  1.00  0.00     0.103 C 
HETATM   19  C   UNL     1     -44.745 -53.122  13.328  1.00  0.00     0.041 C 
HETATM   20  C   UNL     1     -44.370 -54.600  13.308  1.00  0.00     0.035 C 
HETATM   21  C   UNL     1     -45.160 -53.202  14.839  1.00  0.00     0.137 C 
HETATM   22  C   UNL     1     -45.617 -55.262  13.963  1.00  0.00     0.168 C 
HETATM   23  O   UNL     1     -46.090 -54.287  14.927  1.00  0.00    -0.385 OA
HETATM   24  C   UNL     1     -45.457 -51.690  14.764  1.00  0.00    -0.000 C 
HETATM   25  C   UNL     1     -45.081 -50.910  16.026  1.00  0.00     0.019 C 
HETATM   26  C   UNL     1     -46.870 -51.355  14.280  1.00  0.00     0.019 C 
ENDBRANCH   4  18
TORSDOF 3
ENDMDL
MODEL 2
REMARK VINA RESULT:      -6.3      0.923      1.566
REMARK  3 active torsions:
REMARK  status: ('A' for Active; 'I' for Inactive)
REMARK    1  A    between atoms: N_2  and  C_4 
REMARK    2  A    between atoms: C_8  and  N_9 
REMARK       I    between atoms: N_9  and  C_10 
REMARK       I    between atoms: C_10  and  N_12 
REMARK    3  A    between atoms: N_12  and  C_13 
ROOT
HETATM    1  N   UNL     1     -43.491 -48.884  11.677  1.00  0.00    -0.306 N 
HETATM    2  C   UNL     1     -43.323 -49.574  12.861  1.00  0.00     0.321 C 
HETATM    3  O   UNL     1     -42.601 -49.227  13.783  1.00  0.00    -0.247 OA
HETATM    4  N   UNL     1     -44.068 -50.721  12.946  1.00  0.00    -0.337 N 
HETATM    5  H   UNL     1     -44.374 -49.000  11.195  1.00  0.00     0.171 HD
HETATM    6  H   UNL     1     -44.542 -51.053  12.118  1.00  0.00     0.164 HD
ENDROOT
BRANCH   1   7
HETATM    7  C   UNL     1     -42.696 -47.759  11.339  1.00  0.00     0.068 A 
HETATM    8  C   UNL     1     -41.555 -47.835  10.569  1.00  0.00     0.137 A 
HETATM    9  N   UNL     1     -40.763 -46.784  10.283  1.00  0.00    -0.200 N 
HETATM   10  C   UNL     1     -41.099 -45.586  10.779  1.00  0.00     0.679 A 
ATOM     11  HN  UNL     1     -39.930 -46.897   9.705  1.00  0.00     0.183 HD
HETATM   12  N   UNL     1     -42.228 -45.396  11.490  1.00  0.00    -0.200 N 
HETATM   13  C   UNL     1     -43.000 -46.480  11.747  1.00  0.00     0.137 A 
ATOM     14  HN  UNL     1     -42.493 -44.469  11.823  1.00  0.00     0.183 HD
BRANCH  10  15
HETATM   15  N   UNL     1     -40.233 -44.536  10.566  1.00  0.00    -0.226 N 
HETATM   16  C   UNL     1     -40.277 -43.424  11.491  1.00  0.00     0.168 C 
HETATM   17  C   UNL     1     -39.129 -44.709   9.656  1.00  0.00     0.168 C 
ENDBRANCH  10  15
ENDBRANCH   1   7
BRANCH   4  18
HETATM   18  C   UNL     1     -44.040 -51.516  14.198  1.00  0.00     0.103 C 
HETATM   19  C   UNL     1     -43.582 -53.004  14.057  1.00  0.00     0.041 C 
HETATM   20  C   UNL     1     -42.598 -54.035  14.599  1.00  0.00     0.035 C 
HETATM   21  C   UNL     1     -44.548 -53.219  15.275  1.00  0.00     0.137 C 
HETATM   22  C   UNL     1     -43.531 -55.235  14.928  1.00  0.00     0.168 C 
HETATM   23  O   UNL     1     -44.784 -54.630  15.335  1.00  0.00    -0.385 OA
HETATM   24  C   UNL     1     -45.446 -52.122  14.666  1.00  0.00    -0.000 C 
HETATM   25  C   UNL     1     -46.100 -51.200  15.696  1.00  0.00     0.019 C 
HETATM   26  C   UNL     1     -46.452 -52.641  13.636  1.00  0.00     0.019 C 
ENDBRANCH   4  18
TORSDOF 3
ENDMDL
MODEL 3
REMARK VINA RESULT:      -6.0      3.506      4.379
REMARK  3 active torsions:
REMARK  status: ('A' for Active; 'I' for Inactive)
REMARK    1  A    between atoms: N_2  and  C_4 
REMARK    2  A    between atoms: C_8  and  N_9 
REMARK       I    between atoms: N_9  and  C_10 
REMARK       I    between atoms: C_10  and  N_12 
REMARK    3  A    between atoms: N_12  and  C_13 
ROOT
HETATM    1  N   UNL     1     -41.444 -49.964  13.146  1.00  0.00    -0.306 N 
HETATM    2  C   UNL     1     -41.645 -51.327  13.229  1.00  0.00     0.321 C 
HETATM    3  O   UNL     1     -42.102 -52.028  12.340  1.00  0.00    -0.247 OA
HETATM    4  N   UNL     1     -41.264 -51.873  14.427  1.00  0.00    -0.337 N 
HETATM    5  H   UNL     1     -40.707 -49.568  13.717  1.00  0.00     0.171 HD
HETATM    6  H   UNL     1     -41.023 -51.252  15.188  1.00  0.00     0.164 HD
ENDROOT
BRANCH   1   7
HETATM    7  C   UNL     1     -41.913 -49.197  12.049  1.00  0.00     0.068 A 
HETATM    8  C   UNL     1     -43.164 -48.618  12.003  1.00  0.00     0.137 A 
HETATM    9  N   UNL     1     -43.642 -47.931  10.947  1.00  0.00    -0.200 N 
HETATM   10  C   UNL     1     -42.857 -47.802   9.870  1.00  0.00     0.679 A 
ATOM     11  HN  UNL     1     -44.576 -47.521  10.968  1.00  0.00     0.183 HD
HETATM   12  N   UNL     1     -41.596 -48.276   9.841  1.00  0.00    -0.200 N 
HETATM   13  C   UNL     1     -41.153 -48.954  10.927  1.00  0.00     0.137 A 
ATOM     14  HN  UNL     1     -40.995 -48.130   9.029  1.00  0.00     0.183 HD
BRANCH  10  15
HETATM   15  N   UNL     1     -43.388 -47.185   8.758  1.00  0.00    -0.226 N 
HETATM   16  C   UNL     1     -43.465 -47.949   7.531  1.00  0.00     0.168 C 
HETATM   17  C   UNL     1     -44.117 -45.953   8.918  1.00  0.00     0.168 C 
ENDBRANCH  10  15
ENDBRANCH   1   7
BRANCH   4  18
HETATM   18  C   UNL     1     -41.353 -53.340  14.620  1.00  0.00     0.103 C 
HETATM   19  C   UNL     1     -42.022 -53.819  15.949  1.00  0.00     0.041 C 
HETATM   20  C   UNL     1     -43.120 -54.717  16.508  1.00  0.00     0.035 C 
HETATM   21  C   UNL     1     -41.049 -55.037  15.781  1.00  0.00     0.137 C 
HETATM   22  C   UNL     1     -42.354 -55.536  17.587  1.00  0.00     0.168 C 
HETATM   23  O   UNL     1     -41.013 -55.682  17.058  1.00  0.00    -0.385 OA
HETATM   24  C   UNL     1     -40.030 -54.048  15.177  1.00  0.00    -0.000 C 
HETATM   25  C   UNL     1     -39.210 -54.617  14.018  1.00  0.00     0.019 C 
HETATM   26  C   UNL     1     -39.150 -53.348  16.216  1.00  0.00     0.019 C 
ENDBRANCH   4  18
TORSDOF 3
ENDMDL
MODEL 4
REMARK VINA RESULT:      -5.5      3.842      5.656
REMARK  3 active torsions:
REMARK  status: ('A' for Active; 'I' for Inactive)
REMARK    1  A    between atoms: N_2  and  C_4 
REMARK    2  A    between atoms: C_8  and  N_9 
REMARK       I    between atoms: N_9  and  C_10 
REMARK       I    between atoms: C_10  and  N_12 
REMARK    3  A    between atoms: N_12  and  C_13 
ROOT
HETATM    1  N   UNL     1     -40.163 -45.435  12.506  1.00  0.00    -0.306 N 
HETATM    2  C   UNL     1     -40.328 -46.670  11.911  1.00  0.00     0.321 C 
HETATM    3  O   UNL     1     -41.027 -46.895  10.935  1.00  0.00    -0.247 OA
HETATM    4  N   UNL     1     -39.609 -47.674  12.505  1.00  0.00    -0.337 N 
HETATM    5  H   UNL     1     -39.291 -45.269  12.993  1.00  0.00     0.171 HD
HETATM    6  H   UNL     1     -39.155 -47.487  13.389  1.00  0.00     0.164 HD
ENDROOT
BRANCH   1   7
HETATM    7  C   UNL     1     -40.936 -44.307  12.132  1.00  0.00     0.068 A 
HETATM    8  C   UNL     1     -40.471 -43.301  11.312  1.00  0.00     0.137 A 
HETATM    9  N   UNL     1     -41.176 -42.199  10.991  1.00  0.00    -0.200 N 
HETATM   10  C   UNL     1     -42.408 -42.067  11.500  1.00  0.00     0.679 A 
ATOM     11  HN  UNL     1     -40.784 -41.486  10.376  1.00  0.00     0.183 HD
HETATM   12  N   UNL     1     -42.977 -43.024  12.260  1.00  0.00    -0.200 N 
HETATM   13  C   UNL     1     -42.234 -44.119  12.552  1.00  0.00     0.137 A 
ATOM     14  HN  UNL     1     -43.932 -42.927  12.604  1.00  0.00     0.183 HD
BRANCH  10  15
HETATM   15  N   UNL     1     -43.085 -40.893  11.249  1.00  0.00    -0.226 N 
HETATM   16  C   UNL     1     -44.503 -40.854  11.535  1.00  0.00     0.168 C 
HETATM   17  C   UNL     1     -42.335 -39.684  11.020  1.00  0.00     0.168 C 
ENDBRANCH  10  15
ENDBRANCH   1   7
BRANCH   4  18
HETATM   18  C   UNL     1     -39.635 -49.036  11.917  1.00  0.00     0.103 C 
HETATM   19  C   UNL     1     -40.501 -50.094  12.675  1.00  0.00     0.041 C 
HETATM   20  C   UNL     1     -41.620 -51.113  12.490  1.00  0.00     0.035 C 
HETATM   21  C   UNL     1     -39.434 -51.095  12.106  1.00  0.00     0.137 C 
HETATM   22  C   UNL     1     -41.009 -52.390  13.137  1.00  0.00     0.168 C 
HETATM   23  O   UNL     1     -39.587 -52.296  12.870  1.00  0.00    -0.385 OA
HETATM   24  C   UNL     1     -38.390 -49.973  12.284  1.00  0.00    -0.000 C 
HETATM   25  C   UNL     1     -37.339 -49.909  11.174  1.00  0.00     0.019 C 
HETATM   26  C   UNL     1     -37.761 -49.922  13.677  1.00  0.00     0.019 C 
ENDBRANCH   4  18
TORSDOF 3
ENDMDL
MODEL 5
REMARK VINA RESULT:      -5.5      1.704      2.701
REMARK  3 active torsions:
REMARK  status: ('A' for Active; 'I' for Inactive)
REMARK    1  A    between atoms: N_2  and  C_4 
REMARK    2  A    between atoms: C_8  and  N_9 
REMARK       I    between atoms: N_9  and  C_10 
REMARK       I    between atoms: C_10  and  N_12 
REMARK    3  A    between atoms: N_12  and  C_13 
ROOT
HETATM    1  N   UNL     1     -41.543 -50.394  12.797  1.00  0.00    -0.306 N 
HETATM    2  C   UNL     1     -42.798 -50.741  13.258  1.00  0.00     0.321 C 
HETATM    3  O   UNL     1     -43.811 -50.075  13.111  1.00  0.00    -0.247 OA
HETATM    4  N   UNL     1     -42.838 -51.946  13.908  1.00  0.00    -0.337 N 
HETATM    5  H   UNL     1     -40.902 -51.150  12.589  1.00  0.00     0.171 HD
HETATM    6  H   UNL     1     -41.966 -52.403  14.136  1.00  0.00     0.164 HD
ENDROOT
BRANCH   1   7
HETATM    7  C   UNL     1     -41.269 -49.121  12.236  1.00  0.00     0.068 A 
HETATM    8  C   UNL     1     -40.781 -48.056  12.964  1.00  0.00     0.137 A 
HETATM    9  N   UNL     1     -40.565 -46.828  12.455  1.00  0.00    -0.200 N 
HETATM   10  C   UNL     1     -40.844 -46.622  11.161  1.00  0.00     0.679 A 
ATOM     11  HN  UNL     1     -40.199 -46.076  13.039  1.00  0.00     0.183 HD
HETATM   12  N   UNL     1     -41.265 -47.614  10.352  1.00  0.00    -0.200 N 
HETATM   13  C   UNL     1     -41.461 -48.836  10.903  1.00  0.00     0.137 A 
ATOM     14  HN  UNL     1     -41.431 -47.450   9.358  1.00  0.00     0.183 HD
BRANCH  10  15
HETATM   15  N   UNL     1     -40.716 -45.340  10.672  1.00  0.00    -0.226 N 
HETATM   16  C   UNL     1     -41.684 -44.352  11.098  1.00  0.00     0.168 C 
HETATM   17  C   UNL     1     -39.486 -44.952  10.029  1.00  0.00     0.168 C 
ENDBRANCH  10  15
ENDBRANCH   1   7
BRANCH   4  18
HETATM   18  C   UNL     1     -44.140 -52.474  14.384  1.00  0.00     0.103 C 
HETATM   19  C   UNL     1     -44.331 -52.533  15.935  1.00  0.00     0.041 C 
HETATM   20  C   UNL     1     -45.261 -52.109  17.066  1.00  0.00     0.035 C 
HETATM   21  C   UNL     1     -45.243 -53.761  15.586  1.00  0.00     0.137 C 
HETATM   22  C   UNL     1     -45.468 -53.445  17.837  1.00  0.00     0.168 C 
HETATM   23  O   UNL     1     -45.419 -54.473  16.816  1.00  0.00    -0.385 OA
HETATM   24  C   UNL     1     -44.266 -54.069  14.432  1.00  0.00    -0.000 C 
HETATM   25  C   UNL     1     -44.938 -54.582  13.157  1.00  0.00     0.019 C 
HETATM   26  C   UNL     1     -43.071 -54.933  14.842  1.00  0.00     0.019 C 
ENDBRANCH   4  18
TORSDOF 3
ENDMDL
MODEL 6
REMARK VINA RESULT:      -5.4      5.180      6.988
REMARK  3 active torsions:
REMARK  status: ('A' for Active; 'I' for Inactive)
REMARK    1  A    between atoms: N_2  and  C_4 
REMARK    2  A    between atoms: C_8  and  N_9 
REMARK       I    between atoms: N_9  and  C_10 
REMARK       I    between atoms: C_10  and  N_12 
REMARK    3  A    between atoms: N_12  and  C_13 
ROOT
HETATM    1  N   UNL     1     -39.330 -48.207  12.347  1.00  0.00    -0.306 N 
HETATM    2  C   UNL     1     -39.397 -48.032  13.715  1.00  0.00     0.321 C 
HETATM    3  O   UNL     1     -40.405 -47.742  14.340  1.00  0.00    -0.247 OA
HETATM    4  N   UNL     1     -38.204 -48.229  14.360  1.00  0.00    -0.337 N 
HETATM    5  H   UNL     1     -38.615 -48.831  11.995  1.00  0.00     0.171 HD
HETATM    6  H   UNL     1     -37.365 -48.327  13.806  1.00  0.00     0.164 HD
ENDROOT
BRANCH   1   7
HETATM    7  C   UNL     1     -40.419 -47.900  11.492  1.00  0.00     0.068 A 
HETATM    8  C   UNL     1     -41.414 -48.800  11.171  1.00  0.00     0.137 A 
HETATM    9  N   UNL     1     -42.425 -48.539  10.321  1.00  0.00    -0.200 N 
HETATM   10  C   UNL     1     -42.470 -47.330   9.744  1.00  0.00     0.679 A 
ATOM     11  HN  UNL     1     -43.137 -49.241  10.121  1.00  0.00     0.183 HD
HETATM   12  N   UNL     1     -41.581 -46.361  10.041  1.00  0.00    -0.200 N 
HETATM   13  C   UNL     1     -40.585 -46.665  10.908  1.00  0.00     0.137 A 
ATOM     14  HN  UNL     1     -41.655 -45.432   9.626  1.00  0.00     0.183 HD
BRANCH  10  15
HETATM   15  N   UNL     1     -43.448 -47.104   8.801  1.00  0.00    -0.226 N 
HETATM   16  C   UNL     1     -44.187 -45.861   8.876  1.00  0.00     0.168 C 
HETATM   17  C   UNL     1     -43.491 -47.929   7.621  1.00  0.00     0.168 C 
ENDBRANCH  10  15
ENDBRANCH   1   7
BRANCH   4  18
HETATM   18  C   UNL     1     -38.154 -48.148  15.840  1.00  0.00     0.103 C 
HETATM   19  C   UNL     1     -36.729 -48.166  16.481  1.00  0.00     0.041 C 
HETATM   20  C   UNL     1     -35.812 -47.414  17.439  1.00  0.00     0.035 C 
HETATM   21  C   UNL     1     -37.479 -48.860  17.672  1.00  0.00     0.137 C 
HETATM   22  C   UNL     1     -35.333 -48.548  18.391  1.00  0.00     0.168 C 
HETATM   23  O   UNL     1     -36.456 -49.461  18.474  1.00  0.00    -0.385 OA
HETATM   24  C   UNL     1     -38.386 -49.528  16.618  1.00  0.00    -0.000 C 
HETATM   25  C   UNL     1     -39.852 -49.655  17.038  1.00  0.00     0.019 C 
HETATM   26  C   UNL     1     -37.831 -50.840  16.059  1.00  0.00     0.019 C 
ENDBRANCH   4  18
TORSDOF 3
ENDMDL
MODEL 7
REMARK VINA RESULT:      -5.3      2.789      8.605
REMARK  3 active torsions:
REMARK  status: ('A' for Active; 'I' for Inactive)
REMARK    1  A    between atoms: N_2  and  C_4 
REMARK    2  A    between atoms: C_8  and  N_9 
REMARK       I    between atoms: N_9  and  C_10 
REMARK       I    between atoms: C_10  and  N_12 
REMARK    3  A    between atoms: N_12  and  C_13 
ROOT
HETATM    1  N   UNL     1     -41.615 -49.992  11.409  1.00  0.00    -0.306 N 
HETATM    2  C   UNL     1     -40.850 -48.990  11.971  1.00  0.00     0.321 C 
HETATM    3  O   UNL     1     -40.346 -49.027  13.082  1.00  0.00    -0.247 OA
HETATM    4  N   UNL     1     -40.671 -47.904  11.155  1.00  0.00    -0.337 N 
HETATM    5  H   UNL     1     -41.618 -50.061  10.399  1.00  0.00     0.171 HD
HETATM    6  H   UNL     1     -41.213 -47.842  10.304  1.00  0.00     0.164 HD
ENDROOT
BRANCH   1   7
HETATM    7  C   UNL     1     -42.038 -51.125  12.149  1.00  0.00     0.068 A 
HETATM    8  C   UNL     1     -41.492 -52.382  11.999  1.00  0.00     0.137 A 
HETATM    9  N   UNL     1     -41.918 -53.477  12.658  1.00  0.00    -0.200 N 
HETATM   10  C   UNL     1     -42.940 -53.341  13.513  1.00  0.00     0.679 A 
ATOM     11  HN  UNL     1     -41.475 -54.383  12.510  1.00  0.00     0.183 HD
HETATM   12  N   UNL     1     -43.501 -52.144  13.777  1.00  0.00    -0.200 N 
HETATM   13  C   UNL     1     -43.035 -51.068  13.097  1.00  0.00     0.137 A 
ATOM     14  HN  UNL     1     -44.249 -52.051  14.464  1.00  0.00     0.183 HD
BRANCH  10  15
HETATM   15  N   UNL     1     -43.436 -54.481  14.108  1.00  0.00    -0.226 N 
HETATM   16  C   UNL     1     -42.646 -55.098  15.152  1.00  0.00     0.168 C 
HETATM   17  C   UNL     1     -44.819 -54.834  13.909  1.00  0.00     0.168 C 
ENDBRANCH  10  15
ENDBRANCH   1   7
BRANCH   4  18
HETATM   18  C   UNL     1     -39.803 -46.788  11.607  1.00  0.00     0.103 C 
HETATM   19  C   UNL     1     -40.140 -46.180  13.007  1.00  0.00     0.041 C 
HETATM   20  C   UNL     1     -39.537 -45.831  14.363  1.00  0.00     0.035 C 
HETATM   21  C   UNL     1     -39.569 -44.868  12.365  1.00  0.00     0.137 C 
HETATM   22  C   UNL     1     -39.987 -44.354  14.551  1.00  0.00     0.168 C 
HETATM   23  O   UNL     1     -40.009 -43.801  13.211  1.00  0.00    -0.385 OA
HETATM   24  C   UNL     1     -40.174 -45.343  11.027  1.00  0.00    -0.000 C 
HETATM   25  C   UNL     1     -39.315 -45.032   9.800  1.00  0.00     0.019 C 
HETATM   26  C   UNL     1     -41.635 -44.936  10.826  1.00  0.00     0.019 C 
ENDBRANCH   4  18
TORSDOF 3
ENDMDL
MODEL 8
REMARK VINA RESULT:      -5.3      2.559      3.104
REMARK  3 active torsions:
REMARK  status: ('A' for Active; 'I' for Inactive)
REMARK    1  A    between atoms: N_2  and  C_4 
REMARK    2  A    between atoms: C_8  and  N_9 
REMARK       I    between atoms: N_9  and  C_10 
REMARK       I    between atoms: C_10  and  N_12 
REMARK    3  A    between atoms: N_12  and  C_13 
ROOT
HETATM    1  N   UNL     1     -40.246 -50.353  13.799  1.00  0.00    -0.306 N 
HETATM    2  C   UNL     1     -40.993 -51.482  13.528  1.00  0.00     0.321 C 
HETATM    3  O   UNL     1     -41.668 -51.656  12.525  1.00  0.00    -0.247 OA
HETATM    4  N   UNL     1     -40.911 -52.448  14.496  1.00  0.00    -0.337 N 
HETATM    5  H   UNL     1     -39.432 -50.467  14.389  1.00  0.00     0.171 HD
HETATM    6  H   UNL     1     -40.461 -52.220  15.372  1.00  0.00     0.164 HD
ENDROOT
BRANCH   1   7
HETATM    7  C   UNL     1     -40.321 -49.187  12.996  1.00  0.00     0.068 A 
HETATM    8  C   UNL     1     -41.238 -48.177  13.200  1.00  0.00     0.137 A 
HETATM    9  N   UNL     1     -41.354 -47.089  12.415  1.00  0.00    -0.200 N 
HETATM   10  C   UNL     1     -40.531 -46.978  11.364  1.00  0.00     0.679 A 
ATOM     11  HN  UNL     1     -42.050 -46.370  12.614  1.00  0.00     0.183 HD
HETATM   12  N   UNL     1     -39.560 -47.879  11.115  1.00  0.00    -0.200 N 
HETATM   13  C   UNL     1     -39.474 -48.954  11.936  1.00  0.00     0.137 A 
ATOM     14  HN  UNL     1     -38.913 -47.756  10.336  1.00  0.00     0.183 HD
BRANCH  10  15
HETATM   15  N   UNL     1     -40.721 -45.914  10.509  1.00  0.00    -0.226 N 
HETATM   16  C   UNL     1     -42.079 -45.572  10.145  1.00  0.00     0.168 C 
HETATM   17  C   UNL     1     -39.629 -45.007  10.261  1.00  0.00     0.168 C 
ENDBRANCH  10  15
ENDBRANCH   1   7
BRANCH   4  18
HETATM   18  C   UNL     1     -41.603 -53.744  14.292  1.00  0.00     0.103 C 
HETATM   19  C   UNL     1     -43.111 -53.662  13.891  1.00  0.00     0.041 C 
HETATM   20  C   UNL     1     -44.126 -54.134  12.856  1.00  0.00     0.035 C 
HETATM   21  C   UNL     1     -43.196 -55.025  14.662  1.00  0.00     0.137 C 
HETATM   22  C   UNL     1     -45.265 -54.701  13.751  1.00  0.00     0.168 C 
HETATM   23  O   UNL     1     -44.589 -55.240  14.914  1.00  0.00    -0.385 OA
HETATM   24  C   UNL     1     -42.123 -54.469  15.621  1.00  0.00    -0.000 C 
HETATM   25  C   UNL     1     -41.100 -55.505  16.091  1.00  0.00     0.019 C 
HETATM   26  C   UNL     1     -42.690 -53.651  16.783  1.00  0.00     0.019 C 
ENDBRANCH   4  18
TORSDOF 3
ENDMDL
MODEL 9
REMARK VINA RESULT:      -5.2      5.196      5.943
REMARK  3 active torsions:
REMARK  status: ('A' for Active; 'I' for Inactive)
REMARK    1  A    between atoms: N_2  and  C_4 
REMARK    2  A    between atoms: C_8  and  N_9 
REMARK       I    between atoms: N_9  and  C_10 
REMARK       I    between atoms: C_10  and  N_12 
REMARK    3  A    between atoms: N_12  and  C_13 
ROOT
HETATM    1  N   UNL     1     -40.114 -52.659  13.052  1.00  0.00    -0.306 N 
HETATM    2  C   UNL     1     -39.744 -52.681  14.382  1.00  0.00     0.321 C 
HETATM    3  O   UNL     1     -39.781 -51.724  15.140  1.00  0.00    -0.247 OA
HETATM    4  N   UNL     1     -39.328 -53.910  14.824  1.00  0.00    -0.337 N 
HETATM    5  H   UNL     1     -40.448 -53.526  12.651  1.00  0.00     0.171 HD
HETATM    6  H   UNL     1     -39.175 -54.642  14.144  1.00  0.00     0.164 HD
ENDROOT
BRANCH   1   7
HETATM    7  C   UNL     1     -40.426 -51.453  12.375  1.00  0.00     0.068 A 
HETATM    8  C   UNL     1     -39.474 -50.607  11.845  1.00  0.00     0.137 A 
HETATM    9  N   UNL     1     -39.753 -49.434  11.245  1.00  0.00    -0.200 N 
HETATM   10  C   UNL     1     -41.037 -49.059  11.157  1.00  0.00     0.679 A 
ATOM     11  HN  UNL     1     -39.009 -48.848  10.868  1.00  0.00     0.183 HD
HETATM   12  N   UNL     1     -42.044 -49.845  11.588  1.00  0.00    -0.200 N 
HETATM   13  C   UNL     1     -41.718 -51.020  12.178  1.00  0.00     0.137 A 
ATOM     14  HN  UNL     1     -43.018 -49.564  11.473  1.00  0.00     0.183 HD
BRANCH  10  15
HETATM   15  N   UNL     1     -41.308 -47.815  10.633  1.00  0.00    -0.226 N 
HETATM   16  C   UNL     1     -42.562 -47.633   9.932  1.00  0.00     0.168 C 
HETATM   17  C   UNL     1     -40.517 -46.686  11.053  1.00  0.00     0.168 C 
ENDBRANCH  10  15
ENDBRANCH   1   7
BRANCH   4  18
HETATM   18  C   UNL     1     -38.978 -54.090  16.254  1.00  0.00     0.103 C 
HETATM   19  C   UNL     1     -38.158 -55.374  16.603  1.00  0.00     0.041 C 
HETATM   20  C   UNL     1     -36.891 -55.862  17.298  1.00  0.00     0.035 C 
HETATM   21  C   UNL     1     -38.917 -55.258  17.971  1.00  0.00     0.137 C 
HETATM   22  C   UNL     1     -37.440 -56.981  18.229  1.00  0.00     0.168 C 
HETATM   23  O   UNL     1     -38.766 -56.532  18.606  1.00  0.00    -0.385 OA
HETATM   24  C   UNL     1     -40.125 -54.721  17.175  1.00  0.00    -0.000 C 
HETATM   25  C   UNL     1     -40.903 -53.610  17.882  1.00  0.00     0.019 C 
HETATM   26  C   UNL     1     -41.047 -55.814  16.630  1.00  0.00     0.019 C 
ENDBRANCH   4  18
TORSDOF 3
ENDMDL
