MODEL 1
REMARK VINA RESULT:      -5.8      0.000      0.000
REMARK  3 active torsions:
REMARK  status: ('A' for Active; 'I' for Inactive)
REMARK       I    between atoms: C_2  and  N_3 
REMARK       I    between atoms: C_2  and  N_12 
REMARK    1  A    between atoms: N_3  and  C_4 
REMARK    2  A    between atoms: N_7  and  C_9 
REMARK    3  A    between atoms: N_12  and  C_13 
ROOT
HETATM    1  O   UNL     1     -41.894 -47.836  11.981  1.00  0.00    -0.247 OA
HETATM    2  C   UNL     1     -41.606 -48.371  10.921  1.00  0.00     0.321 C 
HETATM    3  N   UNL     1     -40.532 -49.235  10.786  1.00  0.00    -0.336 N 
HETATM    4  N   UNL     1     -42.272 -48.239   9.719  1.00  0.00    -0.309 N 
HETATM    5  H   UNL     1     -40.094 -49.191   9.878  1.00  0.00     0.164 HD
HETATM    6  H   UNL     1     -41.969 -48.860   8.984  1.00  0.00     0.170 HD
ENDROOT
BRANCH   3   7
HETATM    7  C   UNL     1     -39.618 -49.448  11.900  1.00  0.00     0.116 C 
HETATM    8  C   UNL     1     -38.181 -49.641  11.419  1.00  0.00     0.057 C 
HETATM    9  C   UNL     1     -37.605 -50.766  12.272  1.00  0.00     0.275 C 
HETATM   10  N   UNL     1     -38.566 -51.034  13.349  1.00  0.00     0.095 N 
HETATM   11  C   UNL     1     -39.879 -50.698  12.753  1.00  0.00     0.298 C 
BRANCH  10  12
HETATM   12  C   UNL     1     -38.296 -50.265  14.581  1.00  0.00     0.223 A 
HETATM   13  C   UNL     1     -36.911 -50.223  15.170  1.00  0.00     0.038 A 
HETATM   14  C   UNL     1     -37.978 -51.041  15.832  1.00  0.00     0.038 A 
ENDBRANCH  10  12
ENDBRANCH   3   7
BRANCH   4  15
HETATM   15  C   UNL     1     -43.416 -47.457   9.448  1.00  0.00     0.038 A 
HETATM   16  C   UNL     1     -44.709 -47.967   9.392  1.00  0.00     0.046 A 
HETATM   17  C   UNL     1     -45.747 -47.102   9.079  1.00  0.00     0.090 A 
HETATM   18  N   UNL     1     -45.586 -45.784   8.835  1.00  0.00    -0.375 N 
HETATM   19  C   UNL     1     -44.327 -45.310   8.912  1.00  0.00     0.090 A 
ATOM     20  HN  UNL     1     -46.374 -45.180   8.604  1.00  0.00     0.164 HD
HETATM   21  C   UNL     1     -43.224 -46.094   9.213  1.00  0.00     0.046 A 
ENDBRANCH   4  15
TORSDOF 3
ENDMDL
MODEL 2
REMARK VINA RESULT:      -5.4      3.016      3.685
REMARK  3 active torsions:
REMARK  status: ('A' for Active; 'I' for Inactive)
REMARK       I    between atoms: C_2  and  N_3 
REMARK       I    between atoms: C_2  and  N_12 
REMARK    1  A    between atoms: N_3  and  C_4 
REMARK    2  A    between atoms: N_7  and  C_9 
REMARK    3  A    between atoms: N_12  and  C_13 
ROOT
HETATM    1  O   UNL     1     -42.985 -49.323  12.645  1.00  0.00    -0.247 OA
HETATM    2  C   UNL     1     -42.235 -49.575  11.715  1.00  0.00     0.321 C 
HETATM    3  N   UNL     1     -41.548 -50.774  11.611  1.00  0.00    -0.336 N 
HETATM    4  N   UNL     1     -41.954 -48.764  10.634  1.00  0.00    -0.309 N 
HETATM    5  H   UNL     1     -40.645 -50.681  11.169  1.00  0.00     0.164 HD
HETATM    6  H   UNL     1     -41.415 -49.193   9.897  1.00  0.00     0.170 HD
ENDROOT
BRANCH   3   7
HETATM    7  C   UNL     1     -41.607 -51.749  12.691  1.00  0.00     0.116 C 
HETATM    8  C   UNL     1     -40.257 -52.432  12.907  1.00  0.00     0.057 C 
HETATM    9  C   UNL     1     -40.571 -53.904  13.149  1.00  0.00     0.275 C 
HETATM   10  N   UNL     1     -42.024 -54.020  13.315  1.00  0.00     0.095 N 
HETATM   11  C   UNL     1     -42.572 -52.925  12.482  1.00  0.00     0.298 C 
BRANCH  10  12
HETATM   12  C   UNL     1     -42.463 -53.927  14.723  1.00  0.00     0.223 A 
HETATM   13  C   UNL     1     -41.727 -54.670  15.806  1.00  0.00     0.038 A 
HETATM   14  C   UNL     1     -43.068 -55.156  15.349  1.00  0.00     0.038 A 
ENDBRANCH  10  12
ENDBRANCH   3   7
BRANCH   4  15
HETATM   15  C   UNL     1     -42.460 -47.472  10.371  1.00  0.00     0.038 A 
HETATM   16  C   UNL     1     -42.003 -46.318  10.999  1.00  0.00     0.046 A 
HETATM   17  C   UNL     1     -42.607 -45.110  10.682  1.00  0.00     0.090 A 
HETATM   18  N   UNL     1     -43.610 -44.978   9.787  1.00  0.00    -0.375 N 
HETATM   19  C   UNL     1     -44.023 -46.108   9.179  1.00  0.00     0.090 A 
ATOM     20  HN  UNL     1     -44.032 -44.073   9.583  1.00  0.00     0.164 HD
HETATM   21  C   UNL     1     -43.486 -47.360   9.432  1.00  0.00     0.046 A 
ENDBRANCH   4  15
TORSDOF 3
ENDMDL
MODEL 3
REMARK VINA RESULT:      -5.3      3.609      6.947
REMARK  3 active torsions:
REMARK  status: ('A' for Active; 'I' for Inactive)
REMARK       I    between atoms: C_2  and  N_3 
REMARK       I    between atoms: C_2  and  N_12 
REMARK    1  A    between atoms: N_3  and  C_4 
REMARK    2  A    between atoms: N_7  and  C_9 
REMARK    3  A    between atoms: N_12  and  C_13 
ROOT
HETATM    1  O   UNL     1     -43.183 -49.829  13.347  1.00  0.00    -0.247 OA
HETATM    2  C   UNL     1     -42.621 -50.315  12.378  1.00  0.00     0.321 C 
HETATM    3  N   UNL     1     -42.016 -49.544  11.399  1.00  0.00    -0.336 N 
HETATM    4  N   UNL     1     -42.473 -51.657  12.094  1.00  0.00    -0.309 N 
HETATM    5  H   UNL     1     -42.064 -49.955  10.479  1.00  0.00     0.164 HD
HETATM    6  H   UNL     1     -41.864 -51.873  11.319  1.00  0.00     0.170 HD
ENDROOT
BRANCH   3   7
HETATM    7  C   UNL     1     -42.132 -48.093  11.432  1.00  0.00     0.116 C 
HETATM    8  C   UNL     1     -43.301 -47.603  10.579  1.00  0.00     0.057 C 
HETATM    9  C   UNL     1     -42.793 -46.363   9.851  1.00  0.00     0.275 C 
HETATM   10  N   UNL     1     -41.495 -46.011  10.440  1.00  0.00     0.095 N 
HETATM   11  C   UNL     1     -40.933 -47.309  10.878  1.00  0.00     0.298 C 
BRANCH  10  12
HETATM   12  C   UNL     1     -41.599 -45.042  11.551  1.00  0.00     0.223 A 
HETATM   13  C   UNL     1     -42.483 -43.829  11.429  1.00  0.00     0.038 A 
HETATM   14  C   UNL     1     -40.994 -43.678  11.345  1.00  0.00     0.038 A 
ENDBRANCH  10  12
ENDBRANCH   3   7
BRANCH   4  15
HETATM   15  C   UNL     1     -42.941 -52.756  12.848  1.00  0.00     0.038 A 
HETATM   16  C   UNL     1     -42.198 -53.390  13.838  1.00  0.00     0.046 A 
HETATM   17  C   UNL     1     -42.755 -54.484  14.482  1.00  0.00     0.090 A 
HETATM   18  N   UNL     1     -43.988 -54.970  14.220  1.00  0.00    -0.375 N 
HETATM   19  C   UNL     1     -44.696 -54.327  13.271  1.00  0.00     0.090 A 
ATOM     20  HN  UNL     1     -44.363 -55.779  14.714  1.00  0.00     0.164 HD
HETATM   21  C   UNL     1     -44.224 -53.230  12.567  1.00  0.00     0.046 A 
ENDBRANCH   4  15
TORSDOF 3
ENDMDL
MODEL 4
REMARK VINA RESULT:      -5.1      3.750      6.354
REMARK  3 active torsions:
REMARK  status: ('A' for Active; 'I' for Inactive)
REMARK       I    between atoms: C_2  and  N_3 
REMARK       I    between atoms: C_2  and  N_12 
REMARK    1  A    between atoms: N_3  and  C_4 
REMARK    2  A    between atoms: N_7  and  C_9 
REMARK    3  A    between atoms: N_12  and  C_13 
ROOT
HETATM    1  O   UNL     1     -41.926 -50.558  13.132  1.00  0.00    -0.247 OA
HETATM    2  C   UNL     1     -41.708 -51.202  12.118  1.00  0.00     0.321 C 
HETATM    3  N   UNL     1     -40.946 -50.713  11.069  1.00  0.00    -0.336 N 
HETATM    4  N   UNL     1     -42.139 -52.484  11.841  1.00  0.00    -0.309 N 
HETATM    5  H   UNL     1     -41.248 -51.045  10.165  1.00  0.00     0.164 HD
HETATM    6  H   UNL     1     -41.750 -52.904  11.011  1.00  0.00     0.170 HD
ENDROOT
BRANCH   3   7
HETATM    7  C   UNL     1     -40.467 -49.337  11.090  1.00  0.00     0.116 C 
HETATM    8  C   UNL     1     -39.358 -49.144  12.123  1.00  0.00     0.057 C 
HETATM    9  C   UNL     1     -39.645 -47.806  12.795  1.00  0.00     0.275 C 
HETATM   10  N   UNL     1     -40.708 -47.149  12.025  1.00  0.00     0.095 N 
HETATM   11  C   UNL     1     -41.503 -48.271  11.476  1.00  0.00     0.298 C 
BRANCH  10  12
HETATM   12  C   UNL     1     -40.197 -46.252  10.967  1.00  0.00     0.223 A 
HETATM   13  C   UNL     1     -39.598 -44.917  11.319  1.00  0.00     0.038 A 
HETATM   14  C   UNL     1     -40.961 -44.982  10.700  1.00  0.00     0.038 A 
ENDBRANCH  10  12
ENDBRANCH   3   7
BRANCH   4  15
HETATM   15  C   UNL     1     -42.930 -53.322  12.658  1.00  0.00     0.038 A 
HETATM   16  C   UNL     1     -44.300 -53.497  12.493  1.00  0.00     0.046 A 
HETATM   17  C   UNL     1     -44.973 -54.319  13.385  1.00  0.00     0.090 A 
HETATM   18  N   UNL     1     -44.379 -54.976  14.404  1.00  0.00    -0.375 N 
HETATM   19  C   UNL     1     -43.048 -54.805  14.533  1.00  0.00     0.090 A 
ATOM     20  HN  UNL     1     -44.908 -55.570  15.042  1.00  0.00     0.164 HD
HETATM   21  C   UNL     1     -42.290 -54.001  13.696  1.00  0.00     0.046 A 
ENDBRANCH   4  15
TORSDOF 3
ENDMDL
MODEL 5
REMARK VINA RESULT:      -5.0      1.826      2.366
REMARK  3 active torsions:
REMARK  status: ('A' for Active; 'I' for Inactive)
REMARK       I    between atoms: C_2  and  N_3 
REMARK       I    between atoms: C_2  and  N_12 
REMARK    1  A    between atoms: N_3  and  C_4 
REMARK    2  A    between atoms: N_7  and  C_9 
REMARK    3  A    between atoms: N_12  and  C_13 
ROOT
HETATM    1  O   UNL     1     -42.195 -49.311  12.140  1.00  0.00    -0.247 OA
HETATM    2  C   UNL     1     -41.480 -49.349  11.150  1.00  0.00     0.321 C 
HETATM    3  N   UNL     1     -40.495 -50.306  10.974  1.00  0.00    -0.336 N 
HETATM    4  N   UNL     1     -41.525 -48.499  10.063  1.00  0.00    -0.309 N 
HETATM    5  H   UNL     1     -39.693 -49.967  10.464  1.00  0.00     0.164 HD
HETATM    6  H   UNL     1     -40.947 -48.764   9.280  1.00  0.00     0.170 HD
ENDROOT
BRANCH   3   7
HETATM    7  C   UNL     1     -40.192 -51.251  12.039  1.00  0.00     0.116 C 
HETATM    8  C   UNL     1     -41.293 -52.299  12.192  1.00  0.00     0.057 C 
HETATM    9  C   UNL     1     -41.485 -52.484  13.693  1.00  0.00     0.275 C 
HETATM   10  N   UNL     1     -40.390 -51.775  14.365  1.00  0.00     0.095 N 
HETATM   11  C   UNL     1     -40.068 -50.657  13.450  1.00  0.00     0.298 C 
BRANCH  10  12
HETATM   12  C   UNL     1     -39.217 -52.633  14.637  1.00  0.00     0.223 A 
HETATM   13  C   UNL     1     -39.395 -54.087  14.984  1.00  0.00     0.038 A 
HETATM   14  C   UNL     1     -39.013 -53.107  16.052  1.00  0.00     0.038 A 
ENDBRANCH  10  12
ENDBRANCH   3   7
BRANCH   4  15
HETATM   15  C   UNL     1     -42.393 -47.403   9.861  1.00  0.00     0.038 A 
HETATM   16  C   UNL     1     -43.541 -47.457   9.077  1.00  0.00     0.046 A 
HETATM   17  C   UNL     1     -44.291 -46.300   8.924  1.00  0.00     0.090 A 
HETATM   18  N   UNL     1     -43.986 -45.119   9.503  1.00  0.00    -0.375 N 
HETATM   19  C   UNL     1     -42.879 -45.096  10.272  1.00  0.00     0.090 A 
ATOM     20  HN  UNL     1     -44.561 -44.288   9.365  1.00  0.00     0.164 HD
HETATM   21  C   UNL     1     -42.062 -46.196  10.480  1.00  0.00     0.046 A 
ENDBRANCH   4  15
TORSDOF 3
ENDMDL
MODEL 6
REMARK VINA RESULT:      -5.0      4.240      5.352
REMARK  3 active torsions:
REMARK  status: ('A' for Active; 'I' for Inactive)
REMARK       I    between atoms: C_2  and  N_3 
REMARK       I    between atoms: C_2  and  N_12 
REMARK    1  A    between atoms: N_3  and  C_4 
REMARK    2  A    between atoms: N_7  and  C_9 
REMARK    3  A    between atoms: N_12  and  C_13 
ROOT
HETATM    1  O   UNL     1     -42.294 -51.231  14.486  1.00  0.00    -0.247 OA
HETATM    2  C   UNL     1     -42.292 -51.412  13.278  1.00  0.00     0.321 C 
HETATM    3  N   UNL     1     -41.292 -50.930  12.450  1.00  0.00    -0.336 N 
HETATM    4  N   UNL     1     -43.228 -52.113  12.544  1.00  0.00    -0.309 N 
HETATM    5  H   UNL     1     -41.621 -50.678  11.530  1.00  0.00     0.164 HD
HETATM    6  H   UNL     1     -42.992 -52.272  11.577  1.00  0.00     0.170 HD
ENDROOT
BRANCH   3   7
HETATM    7  C   UNL     1     -40.246 -50.070  12.987  1.00  0.00     0.116 C 
HETATM    8  C   UNL     1     -39.522 -49.306  11.879  1.00  0.00     0.057 C 
HETATM    9  C   UNL     1     -38.044 -49.340  12.250  1.00  0.00     0.275 C 
HETATM   10  N   UNL     1     -37.947 -49.870  13.615  1.00  0.00     0.095 N 
HETATM   11  C   UNL     1     -39.108 -50.782  13.732  1.00  0.00     0.298 C 
BRANCH  10  12
HETATM   12  C   UNL     1     -37.953 -48.819  14.654  1.00  0.00     0.223 A 
HETATM   13  C   UNL     1     -37.060 -47.614  14.529  1.00  0.00     0.038 A 
HETATM   14  C   UNL     1     -36.728 -48.687  15.521  1.00  0.00     0.038 A 
ENDBRANCH  10  12
ENDBRANCH   3   7
BRANCH   4  15
HETATM   15  C   UNL     1     -44.390 -52.760  13.021  1.00  0.00     0.038 A 
HETATM   16  C   UNL     1     -45.575 -52.100  13.328  1.00  0.00     0.046 A 
HETATM   17  C   UNL     1     -46.635 -52.842  13.826  1.00  0.00     0.090 A 
HETATM   18  N   UNL     1     -46.596 -54.178  14.022  1.00  0.00    -0.375 N 
HETATM   19  C   UNL     1     -45.444 -54.798  13.701  1.00  0.00     0.090 A 
ATOM     20  HN  UNL     1     -47.397 -54.690  14.393  1.00  0.00     0.164 HD
HETATM   21  C   UNL     1     -44.329 -54.143  13.203  1.00  0.00     0.046 A 
ENDBRANCH   4  15
TORSDOF 3
ENDMDL
MODEL 7
REMARK VINA RESULT:      -4.9      4.325      5.246
REMARK  3 active torsions:
REMARK  status: ('A' for Active; 'I' for Inactive)
REMARK       I    between atoms: C_2  and  N_3 
REMARK       I    between atoms: C_2  and  N_12 
REMARK    1  A    between atoms: N_3  and  C_4 
REMARK    2  A    between atoms: N_7  and  C_9 
REMARK    3  A    between atoms: N_12  and  C_13 
ROOT
HETATM    1  O   UNL     1     -43.056 -49.305  13.481  1.00  0.00    -0.247 OA
HETATM    2  C   UNL     1     -42.661 -50.008  12.563  1.00  0.00     0.321 C 
HETATM    3  N   UNL     1     -42.732 -51.391  12.596  1.00  0.00    -0.336 N 
HETATM    4  N   UNL     1     -42.114 -49.582  11.370  1.00  0.00    -0.309 N 
HETATM    5  H   UNL     1     -41.973 -51.843  12.107  1.00  0.00     0.164 HD
HETATM    6  H   UNL     1     -41.969 -50.301  10.677  1.00  0.00     0.170 HD
ENDROOT
BRANCH   3   7
HETATM    7  C   UNL     1     -43.181 -52.074  13.801  1.00  0.00     0.116 C 
HETATM    8  C   UNL     1     -42.425 -53.384  14.020  1.00  0.00     0.057 C 
HETATM    9  C   UNL     1     -43.469 -54.394  14.482  1.00  0.00     0.275 C 
HETATM   10  N   UNL     1     -44.705 -53.651  14.757  1.00  0.00     0.095 N 
HETATM   11  C   UNL     1     -44.655 -52.507  13.819  1.00  0.00     0.298 C 
BRANCH  10  12
HETATM   12  C   UNL     1     -44.828 -53.218  16.165  1.00  0.00     0.223 A 
HETATM   13  C   UNL     1     -44.381 -54.118  17.285  1.00  0.00     0.038 A 
HETATM   14  C   UNL     1     -45.844 -53.921  17.025  1.00  0.00     0.038 A 
ENDBRANCH  10  12
ENDBRANCH   3   7
BRANCH   4  15
HETATM   15  C   UNL     1     -41.881 -48.253  10.954  1.00  0.00     0.038 A 
HETATM   16  C   UNL     1     -42.809 -47.484  10.258  1.00  0.00     0.046 A 
HETATM   17  C   UNL     1     -42.447 -46.203   9.871  1.00  0.00     0.090 A 
HETATM   18  N   UNL     1     -41.248 -45.642  10.138  1.00  0.00    -0.375 N 
HETATM   19  C   UNL     1     -40.373 -46.399  10.828  1.00  0.00     0.090 A 
ATOM     20  HN  UNL     1     -41.017 -44.696   9.834  1.00  0.00     0.164 HD
HETATM   21  C   UNL     1     -40.639 -47.691  11.254  1.00  0.00     0.046 A 
ENDBRANCH   4  15
TORSDOF 3
ENDMDL
MODEL 8
REMARK VINA RESULT:      -4.7      2.959      7.410
REMARK  3 active torsions:
REMARK  status: ('A' for Active; 'I' for Inactive)
REMARK       I    between atoms: C_2  and  N_3 
REMARK       I    between atoms: C_2  and  N_12 
REMARK    1  A    between atoms: N_3  and  C_4 
REMARK    2  A    between atoms: N_7  and  C_9 
REMARK    3  A    between atoms: N_12  and  C_13 
ROOT
HETATM    1  O   UNL     1     -39.872 -46.866  12.447  1.00  0.00    -0.247 OA
HETATM    2  C   UNL     1     -40.165 -47.418  11.398  1.00  0.00     0.321 C 
HETATM    3  N   UNL     1     -40.755 -46.749  10.339  1.00  0.00    -0.336 N 
HETATM    4  N   UNL     1     -39.959 -48.744  11.074  1.00  0.00    -0.309 N 
HETATM    5  H   UNL     1     -41.388 -47.325   9.804  1.00  0.00     0.164 HD
HETATM    6  H   UNL     1     -40.143 -48.991  10.114  1.00  0.00     0.170 HD
ENDROOT
BRANCH   3   7
HETATM    7  C   UNL     1     -41.163 -45.359  10.486  1.00  0.00     0.116 C 
HETATM    8  C   UNL     1     -39.960 -44.436  10.676  1.00  0.00     0.057 C 
HETATM    9  C   UNL     1     -40.370 -43.436  11.750  1.00  0.00     0.275 C 
HETATM   10  N   UNL     1     -41.808 -43.610  11.986  1.00  0.00     0.095 N 
HETATM   11  C   UNL     1     -42.050 -45.043  11.699  1.00  0.00     0.298 C 
BRANCH  10  12
HETATM   12  C   UNL     1     -42.650 -42.723  11.156  1.00  0.00     0.223 A 
HETATM   13  C   UNL     1     -42.347 -41.251  11.060  1.00  0.00     0.038 A 
HETATM   14  C   UNL     1     -43.519 -41.720  11.869  1.00  0.00     0.038 A 
ENDBRANCH  10  12
ENDBRANCH   3   7
BRANCH   4  15
HETATM   15  C   UNL     1     -39.378 -49.748  11.880  1.00  0.00     0.038 A 
HETATM   16  C   UNL     1     -40.106 -50.594  12.710  1.00  0.00     0.046 A 
HETATM   17  C   UNL     1     -39.416 -51.516  13.483  1.00  0.00     0.090 A 
HETATM   18  N   UNL     1     -38.073 -51.657  13.473  1.00  0.00    -0.375 N 
HETATM   19  C   UNL     1     -37.391 -50.839  12.647  1.00  0.00     0.090 A 
ATOM     20  HN  UNL     1     -37.601 -52.345  14.058  1.00  0.00     0.164 HD
HETATM   21  C   UNL     1     -37.989 -49.883  11.841  1.00  0.00     0.046 A 
ENDBRANCH   4  15
TORSDOF 3
ENDMDL
MODEL 9
REMARK VINA RESULT:      -4.7      6.062     10.398
REMARK  3 active torsions:
REMARK  status: ('A' for Active; 'I' for Inactive)
REMARK       I    between atoms: C_2  and  N_3 
REMARK       I    between atoms: C_2  and  N_12 
REMARK    1  A    between atoms: N_3  and  C_4 
REMARK    2  A    between atoms: N_7  and  C_9 
REMARK    3  A    between atoms: N_12  and  C_13 
ROOT
HETATM    1  O   UNL     1     -41.499 -54.001  16.636  1.00  0.00    -0.247 OA
HETATM    2  C   UNL     1     -41.026 -54.560  15.658  1.00  0.00     0.321 C 
HETATM    3  N   UNL     1     -41.614 -54.501  14.405  1.00  0.00    -0.336 N 
HETATM    4  N   UNL     1     -39.865 -55.306  15.611  1.00  0.00    -0.309 N 
HETATM    5  H   UNL     1     -41.480 -55.340  13.860  1.00  0.00     0.164 HD
HETATM    6  H   UNL     1     -39.561 -55.579  14.689  1.00  0.00     0.170 HD
ENDROOT
BRANCH   3   7
HETATM    7  C   UNL     1     -42.907 -53.854  14.231  1.00  0.00     0.116 C 
HETATM    8  C   UNL     1     -44.059 -54.805  14.551  1.00  0.00     0.057 C 
HETATM    9  C   UNL     1     -45.115 -54.551  13.482  1.00  0.00     0.275 C 
HETATM   10  N   UNL     1     -44.708 -53.353  12.740  1.00  0.00     0.095 N 
HETATM   11  C   UNL     1     -43.229 -53.368  12.810  1.00  0.00     0.298 C 
BRANCH  10  12
HETATM   12  C   UNL     1     -45.282 -52.103  13.283  1.00  0.00     0.223 A 
HETATM   13  C   UNL     1     -46.604 -52.118  14.003  1.00  0.00     0.038 A 
HETATM   14  C   UNL     1     -46.516 -51.555  12.617  1.00  0.00     0.038 A 
ENDBRANCH  10  12
ENDBRANCH   3   7
BRANCH   4  15
HETATM   15  C   UNL     1     -38.980 -55.592  16.674  1.00  0.00     0.038 A 
HETATM   16  C   UNL     1     -38.919 -56.822  17.321  1.00  0.00     0.046 A 
HETATM   17  C   UNL     1     -38.033 -56.968  18.379  1.00  0.00     0.090 A 
HETATM   18  N   UNL     1     -37.210 -55.991  18.817  1.00  0.00    -0.375 N 
HETATM   19  C   UNL     1     -37.276 -54.814  18.163  1.00  0.00     0.090 A 
ATOM     20  HN  UNL     1     -36.574 -56.135  19.600  1.00  0.00     0.164 HD
HETATM   21  C   UNL     1     -38.131 -54.570  17.099  1.00  0.00     0.046 A 
ENDBRANCH   4  15
TORSDOF 3
ENDMDL
