MODEL 1
REMARK VINA RESULT:      -5.2      0.000      0.000
REMARK  5 active torsions:
REMARK  status: ('A' for Active; 'I' for Inactive)
REMARK    1  A    between atoms: C_2  and  C_3 
REMARK    2  A    between atoms: C_2  and  N_10 
REMARK    3  A    between atoms: C_3  and  N_4 
REMARK       I    between atoms: N_10  and  C_11 
REMARK    4  A    between atoms: C_11  and  C_13 
REMARK    5  A    between atoms: C_13  and  C_14 
ROOT
HETATM    1  N   UNL     1     -41.181 -48.573  10.629  1.00  0.00    -0.355 N 
HETATM    2  C   UNL     1     -41.384 -49.587  11.540  1.00  0.00     0.218 C 
HETATM    3  O   UNL     1     -42.452 -49.813  12.101  1.00  0.00    -0.274 OA
HETATM    4  H   UNL     1     -40.209 -48.355  10.431  1.00  0.00     0.162 HD
ENDROOT
BRANCH   1   5
HETATM    5  C   UNL     1     -42.139 -47.480  10.367  1.00  0.00     0.098 C 
HETATM    6  C   UNL     1     -41.367 -46.155  10.410  1.00  0.00     0.034 C 
BRANCH   5   7
HETATM    7  C   UNL     1     -42.935 -47.632   9.055  1.00  0.00     0.153 C 
BRANCH   7   8
HETATM    8  N   UNL     1     -44.301 -47.155   9.098  1.00  0.00    -0.350 N 
HETATM    9  C   UNL     1     -45.425 -47.923   9.229  1.00  0.00     0.108 A 
HETATM   10  C   UNL     1     -46.470 -47.040   9.094  1.00  0.00     0.106 A 
HETATM   11  N   UNL     1     -46.010 -45.767   8.881  1.00  0.00    -0.361 N 
HETATM   12  C   UNL     1     -44.700 -45.871   8.867  1.00  0.00     0.182 A 
ATOM     13  HN  UNL     1     -46.566 -44.920   8.761  1.00  0.00     0.166 HD
ENDBRANCH   7   8
ENDBRANCH   5   7
ENDBRANCH   1   5
BRANCH   2  14
HETATM   14  C   UNL     1     -40.169 -50.443  11.823  1.00  0.00     0.111 C 
BRANCH  14  15
HETATM   15  C   UNL     1     -38.882 -49.638  12.027  1.00  0.00     0.017 C 
HETATM   16  C   UNL     1     -37.597 -50.385  11.624  1.00  0.00     0.012 C 
HETATM   17  C   UNL     1     -36.989 -50.915  12.924  1.00  0.00     0.027 C 
HETATM   18  C   UNL     1     -37.581 -50.007  13.952  1.00  0.00    -0.030 C 
HETATM   19  C   UNL     1     -38.608 -49.300  13.465  1.00  0.00    -0.026 C 
ENDBRANCH  14  15
ENDBRANCH   2  14
TORSDOF 5
ENDMDL
MODEL 2
REMARK VINA RESULT:      -5.0      3.845      5.189
REMARK  5 active torsions:
REMARK  status: ('A' for Active; 'I' for Inactive)
REMARK    1  A    between atoms: C_2  and  C_3 
REMARK    2  A    between atoms: C_2  and  N_10 
REMARK    3  A    between atoms: C_3  and  N_4 
REMARK       I    between atoms: N_10  and  C_11 
REMARK    4  A    between atoms: C_11  and  C_13 
REMARK    5  A    between atoms: C_13  and  C_14 
ROOT
HETATM    1  N   UNL     1     -43.473 -49.222  12.112  1.00  0.00    -0.355 N 
HETATM    2  C   UNL     1     -43.465 -49.858  13.336  1.00  0.00     0.218 C 
HETATM    3  O   UNL     1     -42.815 -49.485  14.307  1.00  0.00    -0.274 OA
HETATM    4  H   UNL     1     -43.856 -49.764  11.344  1.00  0.00     0.162 HD
ENDROOT
BRANCH   1   5
HETATM    5  C   UNL     1     -42.536 -48.149  11.723  1.00  0.00     0.098 C 
HETATM    6  C   UNL     1     -41.314 -48.804  11.064  1.00  0.00     0.034 C 
BRANCH   5   7
HETATM    7  C   UNL     1     -43.154 -47.061  10.819  1.00  0.00     0.153 C 
BRANCH   7   8
HETATM    8  N   UNL     1     -43.831 -47.548   9.636  1.00  0.00    -0.350 N 
HETATM    9  C   UNL     1     -43.261 -47.787   8.416  1.00  0.00     0.108 A 
HETATM   10  C   UNL     1     -44.315 -48.113   7.596  1.00  0.00     0.106 A 
HETATM   11  N   UNL     1     -45.500 -48.072   8.283  1.00  0.00    -0.361 N 
HETATM   12  C   UNL     1     -45.180 -47.707   9.504  1.00  0.00     0.182 A 
ATOM     13  HN  UNL     1     -46.432 -48.280   7.923  1.00  0.00     0.166 HD
ENDBRANCH   7   8
ENDBRANCH   5   7
ENDBRANCH   1   5
BRANCH   2  14
HETATM   14  C   UNL     1     -44.339 -51.090  13.419  1.00  0.00     0.111 C 
BRANCH  14  15
HETATM   15  C   UNL     1     -45.236 -51.127  14.659  1.00  0.00     0.017 C 
HETATM   16  C   UNL     1     -44.859 -52.215  15.682  1.00  0.00     0.012 C 
HETATM   17  C   UNL     1     -45.829 -53.374  15.446  1.00  0.00     0.027 C 
HETATM   18  C   UNL     1     -46.982 -52.699  14.777  1.00  0.00    -0.030 C 
HETATM   19  C   UNL     1     -46.667 -51.469  14.355  1.00  0.00    -0.026 C 
ENDBRANCH  14  15
ENDBRANCH   2  14
TORSDOF 5
ENDMDL
MODEL 3
REMARK VINA RESULT:      -5.0      3.475      6.796
REMARK  5 active torsions:
REMARK  status: ('A' for Active; 'I' for Inactive)
REMARK    1  A    between atoms: C_2  and  C_3 
REMARK    2  A    between atoms: C_2  and  N_10 
REMARK    3  A    between atoms: C_3  and  N_4 
REMARK       I    between atoms: N_10  and  C_11 
REMARK    4  A    between atoms: C_11  and  C_13 
REMARK    5  A    between atoms: C_13  and  C_14 
ROOT
HETATM    1  N   UNL     1     -42.223 -50.020  12.176  1.00  0.00    -0.355 N 
HETATM    2  C   UNL     1     -42.218 -51.391  12.324  1.00  0.00     0.218 C 
HETATM    3  O   UNL     1     -41.349 -52.133  11.878  1.00  0.00    -0.274 OA
HETATM    4  H   UNL     1     -43.107 -49.565  12.381  1.00  0.00     0.162 HD
ENDROOT
BRANCH   1   5
HETATM    5  C   UNL     1     -41.322 -49.273  11.276  1.00  0.00     0.098 C 
HETATM    6  C   UNL     1     -42.152 -48.198  10.561  1.00  0.00     0.034 C 
BRANCH   5   7
HETATM    7  C   UNL     1     -40.085 -48.667  11.972  1.00  0.00     0.153 C 
BRANCH   7   8
HETATM    8  N   UNL     1     -39.078 -49.619  12.388  1.00  0.00    -0.350 N 
HETATM    9  C   UNL     1     -38.884 -50.092  13.656  1.00  0.00     0.108 A 
HETATM   10  C   UNL     1     -37.749 -50.863  13.572  1.00  0.00     0.106 A 
HETATM   11  N   UNL     1     -37.252 -50.864  12.295  1.00  0.00    -0.361 N 
HETATM   12  C   UNL     1     -38.061 -50.088  11.609  1.00  0.00     0.182 A 
ATOM     13  HN  UNL     1     -36.430 -51.361  11.951  1.00  0.00     0.166 HD
ENDBRANCH   7   8
ENDBRANCH   5   7
ENDBRANCH   1   5
BRANCH   2  14
HETATM   14  C   UNL     1     -43.390 -51.953  13.099  1.00  0.00     0.111 C 
BRANCH  14  15
HETATM   15  C   UNL     1     -44.469 -50.916  13.422  1.00  0.00     0.017 C 
HETATM   16  C   UNL     1     -44.641 -50.627  14.924  1.00  0.00     0.012 C 
HETATM   17  C   UNL     1     -45.858 -51.436  15.376  1.00  0.00     0.027 C 
HETATM   18  C   UNL     1     -46.603 -51.641  14.097  1.00  0.00    -0.030 C 
HETATM   19  C   UNL     1     -45.853 -51.348  13.028  1.00  0.00    -0.026 C 
ENDBRANCH  14  15
ENDBRANCH   2  14
TORSDOF 5
ENDMDL
MODEL 4
REMARK VINA RESULT:      -5.0      4.244      7.062
REMARK  5 active torsions:
REMARK  status: ('A' for Active; 'I' for Inactive)
REMARK    1  A    between atoms: C_2  and  C_3 
REMARK    2  A    between atoms: C_2  and  N_10 
REMARK    3  A    between atoms: C_3  and  N_4 
REMARK       I    between atoms: N_10  and  C_11 
REMARK    4  A    between atoms: C_11  and  C_13 
REMARK    5  A    between atoms: C_13  and  C_14 
ROOT
HETATM    1  N   UNL     1     -42.352 -51.518  13.793  1.00  0.00    -0.355 N 
HETATM    2  C   UNL     1     -42.424 -52.572  12.908  1.00  0.00     0.218 C 
HETATM    3  O   UNL     1     -42.041 -52.528  11.743  1.00  0.00    -0.274 OA
HETATM    4  H   UNL     1     -42.916 -51.617  14.632  1.00  0.00     0.162 HD
ENDROOT
BRANCH   1   5
HETATM    5  C   UNL     1     -42.022 -50.130  13.413  1.00  0.00     0.098 C 
HETATM    6  C   UNL     1     -43.103 -49.210  13.998  1.00  0.00     0.034 C 
BRANCH   5   7
HETATM    7  C   UNL     1     -40.606 -49.676  13.826  1.00  0.00     0.153 C 
BRANCH   7   8
HETATM    8  N   UNL     1     -39.582 -49.844  12.818  1.00  0.00    -0.350 N 
HETATM    9  C   UNL     1     -38.231 -49.874  13.031  1.00  0.00     0.108 A 
HETATM   10  C   UNL     1     -37.680 -49.927  11.773  1.00  0.00     0.106 A 
HETATM   11  N   UNL     1     -38.656 -49.923  10.810  1.00  0.00    -0.361 N 
HETATM   12  C   UNL     1     -39.790 -49.850  11.469  1.00  0.00     0.182 A 
ATOM     13  HN  UNL     1     -38.528 -49.968   9.799  1.00  0.00     0.166 HD
ENDBRANCH   7   8
ENDBRANCH   5   7
ENDBRANCH   1   5
BRANCH   2  14
HETATM   14  C   UNL     1     -43.026 -53.840  13.474  1.00  0.00     0.111 C 
BRANCH  14  15
HETATM   15  C   UNL     1     -44.426 -54.151  12.939  1.00  0.00     0.017 C 
HETATM   16  C   UNL     1     -45.367 -52.933  12.880  1.00  0.00     0.012 C 
HETATM   17  C   UNL     1     -46.262 -53.028  14.117  1.00  0.00     0.027 C 
HETATM   18  C   UNL     1     -46.195 -54.482  14.453  1.00  0.00    -0.030 C 
HETATM   19  C   UNL     1     -45.202 -55.102  13.805  1.00  0.00    -0.026 C 
ENDBRANCH  14  15
ENDBRANCH   2  14
TORSDOF 5
ENDMDL
MODEL 5
REMARK VINA RESULT:      -5.0     13.340     16.160
REMARK  5 active torsions:
REMARK  status: ('A' for Active; 'I' for Inactive)
REMARK    1  A    between atoms: C_2  and  C_3 
REMARK    2  A    between atoms: C_2  and  N_10 
REMARK    3  A    between atoms: C_3  and  N_4 
REMARK       I    between atoms: N_10  and  C_11 
REMARK    4  A    between atoms: C_11  and  C_13 
REMARK    5  A    between atoms: C_13  and  C_14 
ROOT
HETATM    1  N   UNL     1     -51.581 -52.365  -0.905  1.00  0.00    -0.355 N 
HETATM    2  C   UNL     1     -50.486 -51.809  -0.278  1.00  0.00     0.218 C 
HETATM    3  O   UNL     1     -49.477 -52.431   0.037  1.00  0.00    -0.274 OA
HETATM    4  H   UNL     1     -52.424 -51.800  -0.888  1.00  0.00     0.162 HD
ENDROOT
BRANCH   1   5
HETATM    5  C   UNL     1     -51.796 -53.816  -1.079  1.00  0.00     0.098 C 
HETATM    6  C   UNL     1     -53.152 -54.170  -0.452  1.00  0.00     0.034 C 
BRANCH   5   7
HETATM    7  C   UNL     1     -51.700 -54.304  -2.539  1.00  0.00     0.153 C 
BRANCH   7   8
HETATM    8  N   UNL     1     -50.598 -55.197  -2.825  1.00  0.00    -0.350 N 
HETATM    9  C   UNL     1     -50.677 -56.405  -3.461  1.00  0.00     0.108 A 
HETATM   10  C   UNL     1     -49.406 -56.924  -3.385  1.00  0.00     0.106 A 
HETATM   11  N   UNL     1     -48.568 -56.070  -2.717  1.00  0.00    -0.361 N 
HETATM   12  C   UNL     1     -49.320 -55.048  -2.372  1.00  0.00     0.182 A 
ATOM     13  HN  UNL     1     -47.574 -56.199  -2.528  1.00  0.00     0.166 HD
ENDBRANCH   7   8
ENDBRANCH   5   7
ENDBRANCH   1   5
BRANCH   2  14
HETATM   14  C   UNL     1     -50.600 -50.328   0.009  1.00  0.00     0.111 C 
BRANCH  14  15
HETATM   15  C   UNL     1     -49.274 -49.673   0.407  1.00  0.00     0.017 C 
HETATM   16  C   UNL     1     -49.332 -48.875   1.723  1.00  0.00     0.012 C 
HETATM   17  C   UNL     1     -49.470 -47.405   1.322  1.00  0.00     0.027 C 
HETATM   18  C   UNL     1     -48.922 -47.397  -0.068  1.00  0.00    -0.030 C 
HETATM   19  C   UNL     1     -48.804 -48.632  -0.568  1.00  0.00    -0.026 C 
ENDBRANCH  14  15
ENDBRANCH   2  14
TORSDOF 5
ENDMDL
MODEL 6
REMARK VINA RESULT:      -4.9      3.624      6.622
REMARK  5 active torsions:
REMARK  status: ('A' for Active; 'I' for Inactive)
REMARK    1  A    between atoms: C_2  and  C_3 
REMARK    2  A    between atoms: C_2  and  N_10 
REMARK    3  A    between atoms: C_3  and  N_4 
REMARK       I    between atoms: N_10  and  C_11 
REMARK    4  A    between atoms: C_11  and  C_13 
REMARK    5  A    between atoms: C_13  and  C_14 
ROOT
HETATM    1  N   UNL     1     -41.795 -50.031  12.101  1.00  0.00    -0.355 N 
HETATM    2  C   UNL     1     -41.739 -51.406  12.192  1.00  0.00     0.218 C 
HETATM    3  O   UNL     1     -40.860 -52.099  11.690  1.00  0.00    -0.274 OA
HETATM    4  H   UNL     1     -42.687 -49.616  12.350  1.00  0.00     0.162 HD
ENDROOT
BRANCH   1   5
HETATM    5  C   UNL     1     -40.947 -49.218  11.205  1.00  0.00     0.098 C 
HETATM    6  C   UNL     1     -41.847 -48.186  10.512  1.00  0.00     0.034 C 
BRANCH   5   7
HETATM    7  C   UNL     1     -39.745 -48.548  11.901  1.00  0.00     0.153 C 
BRANCH   7   8
HETATM    8  N   UNL     1     -38.750 -49.455  12.433  1.00  0.00    -0.350 N 
HETATM    9  C   UNL     1     -37.860 -50.198  11.708  1.00  0.00     0.108 A 
HETATM   10  C   UNL     1     -37.220 -50.982  12.639  1.00  0.00     0.106 A 
HETATM   11  N   UNL     1     -37.701 -50.737  13.899  1.00  0.00    -0.361 N 
HETATM   12  C   UNL     1     -38.637 -49.828  13.741  1.00  0.00     0.182 A 
ATOM     13  HN  UNL     1     -37.396 -51.167  14.772  1.00  0.00     0.166 HD
ENDBRANCH   7   8
ENDBRANCH   5   7
ENDBRANCH   1   5
BRANCH   2  14
HETATM   14  C   UNL     1     -42.866 -52.038  12.978  1.00  0.00     0.111 C 
BRANCH  14  15
HETATM   15  C   UNL     1     -42.912 -53.565  12.870  1.00  0.00     0.017 C 
HETATM   16  C   UNL     1     -44.332 -54.150  12.762  1.00  0.00     0.012 C 
HETATM   17  C   UNL     1     -44.696 -54.645  14.163  1.00  0.00     0.027 C 
HETATM   18  C   UNL     1     -43.356 -54.847  14.792  1.00  0.00    -0.030 C 
HETATM   19  C   UNL     1     -42.378 -54.268  14.085  1.00  0.00    -0.026 C 
ENDBRANCH  14  15
ENDBRANCH   2  14
TORSDOF 5
ENDMDL
MODEL 7
REMARK VINA RESULT:      -4.9      3.758      5.057
REMARK  5 active torsions:
REMARK  status: ('A' for Active; 'I' for Inactive)
REMARK    1  A    between atoms: C_2  and  C_3 
REMARK    2  A    between atoms: C_2  and  N_10 
REMARK    3  A    between atoms: C_3  and  N_4 
REMARK       I    between atoms: N_10  and  C_11 
REMARK    4  A    between atoms: C_11  and  C_13 
REMARK    5  A    between atoms: C_13  and  C_14 
ROOT
HETATM    1  N   UNL     1     -43.973 -50.082  12.626  1.00  0.00    -0.355 N 
HETATM    2  C   UNL     1     -44.494 -50.932  13.579  1.00  0.00     0.218 C 
HETATM    3  O   UNL     1     -44.155 -50.946  14.757  1.00  0.00    -0.274 OA
HETATM    4  H   UNL     1     -44.166 -50.339  11.663  1.00  0.00     0.162 HD
ENDROOT
BRANCH   1   5
HETATM    5  C   UNL     1     -42.782 -49.232  12.828  1.00  0.00     0.098 C 
HETATM    6  C   UNL     1     -41.576 -49.958  12.218  1.00  0.00     0.034 C 
BRANCH   5   7
HETATM    7  C   UNL     1     -42.922 -47.799  12.274  1.00  0.00     0.153 C 
BRANCH   7   8
HETATM    8  N   UNL     1     -43.153 -47.703  10.849  1.00  0.00    -0.350 N 
HETATM    9  C   UNL     1     -44.358 -47.505  10.234  1.00  0.00     0.108 A 
HETATM   10  C   UNL     1     -44.086 -47.610   8.890  1.00  0.00     0.106 A 
HETATM   11  N   UNL     1     -42.758 -47.872   8.678  1.00  0.00    -0.361 N 
HETATM   12  C   UNL     1     -42.225 -47.944   9.878  1.00  0.00     0.182 A 
ATOM     13  HN  UNL     1     -42.284 -47.985   7.782  1.00  0.00     0.166 HD
ENDBRANCH   7   8
ENDBRANCH   5   7
ENDBRANCH   1   5
BRANCH   2  14
HETATM   14  C   UNL     1     -45.553 -51.886  13.070  1.00  0.00     0.111 C 
BRANCH  14  15
HETATM   15  C   UNL     1     -44.994 -53.230  12.594  1.00  0.00     0.017 C 
HETATM   16  C   UNL     1     -45.345 -54.421  13.505  1.00  0.00     0.012 C 
HETATM   17  C   UNL     1     -44.107 -54.674  14.367  1.00  0.00     0.027 C 
HETATM   18  C   UNL     1     -43.015 -54.063  13.551  1.00  0.00    -0.030 C 
HETATM   19  C   UNL     1     -43.494 -53.283  12.575  1.00  0.00    -0.026 C 
ENDBRANCH  14  15
ENDBRANCH   2  14
TORSDOF 5
ENDMDL
MODEL 8
REMARK VINA RESULT:      -4.8      6.170      7.222
REMARK  5 active torsions:
REMARK  status: ('A' for Active; 'I' for Inactive)
REMARK    1  A    between atoms: C_2  and  C_3 
REMARK    2  A    between atoms: C_2  and  N_10 
REMARK    3  A    between atoms: C_3  and  N_4 
REMARK       I    between atoms: N_10  and  C_11 
REMARK    4  A    between atoms: C_11  and  C_13 
REMARK    5  A    between atoms: C_13  and  C_14 
ROOT
HETATM    1  N   UNL     1     -44.850 -51.809  12.929  1.00  0.00    -0.355 N 
HETATM    2  C   UNL     1     -44.185 -52.981  12.639  1.00  0.00     0.218 C 
HETATM    3  O   UNL     1     -44.735 -54.031  12.324  1.00  0.00    -0.274 OA
HETATM    4  H   UNL     1     -44.296 -51.101  13.400  1.00  0.00     0.162 HD
ENDROOT
BRANCH   1   5
HETATM    5  C   UNL     1     -46.310 -51.703  13.126  1.00  0.00     0.098 C 
HETATM    6  C   UNL     1     -46.976 -51.740  11.744  1.00  0.00     0.034 C 
BRANCH   5   7
HETATM    7  C   UNL     1     -46.903 -52.768  14.071  1.00  0.00     0.153 C 
BRANCH   7   8
HETATM    8  N   UNL     1     -46.706 -52.524  15.484  1.00  0.00    -0.350 N 
HETATM    9  C   UNL     1     -45.937 -53.267  16.336  1.00  0.00     0.108 A 
HETATM   10  C   UNL     1     -46.164 -52.720  17.577  1.00  0.00     0.106 A 
HETATM   11  N   UNL     1     -47.049 -51.677  17.499  1.00  0.00    -0.361 N 
HETATM   12  C   UNL     1     -47.375 -51.596  16.228  1.00  0.00     0.182 A 
ATOM     13  HN  UNL     1     -47.382 -51.089  18.263  1.00  0.00     0.166 HD
ENDBRANCH   7   8
ENDBRANCH   5   7
ENDBRANCH   1   5
BRANCH   2  14
HETATM   14  C   UNL     1     -42.677 -52.899  12.734  1.00  0.00     0.111 C 
BRANCH  14  15
HETATM   15  C   UNL     1     -42.018 -54.192  13.223  1.00  0.00     0.017 C 
HETATM   16  C   UNL     1     -42.271 -54.508  14.709  1.00  0.00     0.012 C 
HETATM   17  C   UNL     1     -41.013 -54.065  15.457  1.00  0.00     0.027 C 
HETATM   18  C   UNL     1     -39.975 -54.081  14.383  1.00  0.00    -0.030 C 
HETATM   19  C   UNL     1     -40.518 -54.161  13.162  1.00  0.00    -0.026 C 
ENDBRANCH  14  15
ENDBRANCH   2  14
TORSDOF 5
ENDMDL
MODEL 9
REMARK VINA RESULT:      -4.8      4.784      7.767
REMARK  5 active torsions:
REMARK  status: ('A' for Active; 'I' for Inactive)
REMARK    1  A    between atoms: C_2  and  C_3 
REMARK    2  A    between atoms: C_2  and  N_10 
REMARK    3  A    between atoms: C_3  and  N_4 
REMARK       I    between atoms: N_10  and  C_11 
REMARK    4  A    between atoms: C_11  and  C_13 
REMARK    5  A    between atoms: C_13  and  C_14 
ROOT
HETATM    1  N   UNL     1     -42.253 -53.431  15.218  1.00  0.00    -0.355 N 
HETATM    2  C   UNL     1     -42.723 -52.250  15.751  1.00  0.00     0.218 C 
HETATM    3  O   UNL     1     -42.021 -51.277  16.008  1.00  0.00    -0.274 OA
HETATM    4  H   UNL     1     -42.890 -54.219  15.282  1.00  0.00     0.162 HD
ENDROOT
BRANCH   1   5
HETATM    5  C   UNL     1     -40.824 -53.782  15.094  1.00  0.00     0.098 C 
HETATM    6  C   UNL     1     -40.581 -55.065  15.900  1.00  0.00     0.034 C 
BRANCH   5   7
HETATM    7  C   UNL     1     -40.326 -53.921  13.641  1.00  0.00     0.153 C 
BRANCH   7   8
HETATM    8  N   UNL     1     -40.354 -52.705  12.856  1.00  0.00    -0.350 N 
HETATM    9  C   UNL     1     -39.623 -51.573  13.088  1.00  0.00     0.108 A 
HETATM   10  C   UNL     1     -40.080 -50.666  12.162  1.00  0.00     0.106 A 
HETATM   11  N   UNL     1     -41.067 -51.215  11.384  1.00  0.00    -0.361 N 
HETATM   12  C   UNL     1     -41.225 -52.437  11.840  1.00  0.00     0.182 A 
ATOM     13  HN  UNL     1     -41.569 -50.770  10.616  1.00  0.00     0.166 HD
ENDBRANCH   7   8
ENDBRANCH   5   7
ENDBRANCH   1   5
BRANCH   2  14
HETATM   14  C   UNL     1     -44.213 -52.216  16.012  1.00  0.00     0.111 C 
BRANCH  14  15
HETATM   15  C   UNL     1     -44.942 -51.083  15.282  1.00  0.00     0.017 C 
HETATM   16  C   UNL     1     -46.474 -51.232  15.252  1.00  0.00     0.012 C 
HETATM   17  C   UNL     1     -46.819 -51.794  13.872  1.00  0.00     0.027 C 
HETATM   18  C   UNL     1     -45.632 -51.398  13.056  1.00  0.00    -0.030 C 
HETATM   19  C   UNL     1     -44.608 -51.000  13.821  1.00  0.00    -0.026 C 
ENDBRANCH  14  15
ENDBRANCH   2  14
TORSDOF 5
ENDMDL
