MODEL 1
REMARK VINA RESULT:      -6.8      0.000      0.000
REMARK  5 active torsions:
REMARK  status: ('A' for Active; 'I' for Inactive)
REMARK    1  A    between atoms: C_2  and  O_4 
REMARK    2  A    between atoms: C_2  and  C_5 
REMARK    3  A    between atoms: C_5  and  N_6 
REMARK    4  A    between atoms: C_9  and  C_10 
REMARK    5  A    between atoms: C_16  and  C_21 
ROOT
HETATM    1  N   UNL     1     -42.661 -48.074  11.487  1.00  0.00    -0.239 N 
HETATM    2  N   UNL     1     -43.606 -48.798  12.165  1.00  0.00    -0.291 N 
ATOM      3  HN  UNL     1     -44.582 -48.502  12.180  1.00  0.00     0.187 HD
HETATM    4  C   UNL     1     -43.223 -49.873  12.788  1.00  0.00     0.086 C 
HETATM    5  C   UNL     1     -41.788 -50.344  12.627  1.00  0.00     0.075 C 
HETATM    6  N   UNL     1     -40.918 -49.557  12.071  1.00  0.00    -0.304 N 
ATOM      7  HN  UNL     1     -39.937 -49.833  12.045  1.00  0.00     0.171 HD
HETATM    8  C   UNL     1     -41.298 -48.367  11.523  1.00  0.00     0.341 C 
HETATM    9  O   UNL     1     -40.461 -47.617  11.022  1.00  0.00    -0.245 OA
ENDROOT
BRANCH   1  10
HETATM   10  C   UNL     1     -43.141 -46.893  10.775  1.00  0.00     0.191 C 
BRANCH  10  11
HETATM   11  C   UNL     1     -43.966 -47.215   9.506  1.00  0.00     0.069 C 
HETATM   12  C   UNL     1     -43.116 -47.899   8.431  1.00  0.00     0.047 C 
HETATM   13  C   UNL     1     -44.652 -45.972   8.932  1.00  0.00     0.047 C 
BRANCH  11  14
HETATM   14  O   UNL     1     -44.998 -48.144   9.883  1.00  0.00    -0.389 OA
HETATM   15  H   UNL     1     -44.571 -48.909  10.305  1.00  0.00     0.210 HD
ENDBRANCH  11  14
ENDBRANCH  10  11
ENDBRANCH   1  10
BRANCH   4  16
HETATM   16  C   UNL     1     -44.248 -50.513  13.667  1.00  0.00    -0.006 A 
HETATM   17  C   UNL     1     -45.364 -51.110  13.053  1.00  0.00     0.014 A 
HETATM   18  C   UNL     1     -46.424 -51.600  13.818  1.00  0.00     0.001 A 
HETATM   19  C   UNL     1     -46.369 -51.516  15.206  1.00  0.00     0.000 A 
HETATM   20  C   UNL     1     -45.258 -50.945  15.826  1.00  0.00     0.001 A 
HETATM   21  C   UNL     1     -44.207 -50.423  15.061  1.00  0.00     0.014 A 
ENDBRANCH   4  16
BRANCH   5  22
HETATM   22  C   UNL     1     -41.291 -51.707  12.991  1.00  0.00    -0.007 A 
HETATM   23  C   UNL     1     -41.893 -52.889  12.554  1.00  0.00     0.014 A 
HETATM   24  C   UNL     1     -41.326 -54.129  12.875  1.00  0.00     0.001 A 
HETATM   25  C   UNL     1     -40.127 -54.196  13.584  1.00  0.00     0.000 A 
HETATM   26  C   UNL     1     -39.499 -53.026  13.994  1.00  0.00     0.001 A 
HETATM   27  C   UNL     1     -40.082 -51.790  13.708  1.00  0.00     0.014 A 
ENDBRANCH   5  22
TORSDOF 5
ENDMDL
MODEL 2
REMARK VINA RESULT:      -6.7      2.354      5.121
REMARK  5 active torsions:
REMARK  status: ('A' for Active; 'I' for Inactive)
REMARK    1  A    between atoms: C_2  and  O_4 
REMARK    2  A    between atoms: C_2  and  C_5 
REMARK    3  A    between atoms: C_5  and  N_6 
REMARK    4  A    between atoms: C_9  and  C_10 
REMARK    5  A    between atoms: C_16  and  C_21 
ROOT
HETATM    1  N   UNL     1     -40.624 -49.886  12.960  1.00  0.00    -0.239 N 
HETATM    2  N   UNL     1     -40.711 -50.922  13.851  1.00  0.00    -0.291 N 
ATOM      3  HN  UNL     1     -39.877 -51.299  14.301  1.00  0.00     0.187 HD
HETATM    4  C   UNL     1     -41.888 -51.413  14.107  1.00  0.00     0.086 C 
HETATM    5  C   UNL     1     -43.111 -50.734  13.516  1.00  0.00     0.075 C 
HETATM    6  N   UNL     1     -42.956 -49.834  12.593  1.00  0.00    -0.304 N 
ATOM      7  HN  UNL     1     -43.777 -49.444  12.129  1.00  0.00     0.171 HD
HETATM    8  C   UNL     1     -41.712 -49.405  12.234  1.00  0.00     0.341 C 
HETATM    9  O   UNL     1     -41.576 -48.570  11.339  1.00  0.00    -0.245 OA
ENDROOT
BRANCH   1  10
HETATM   10  C   UNL     1     -39.287 -49.345  12.728  1.00  0.00     0.191 C 
BRANCH  10  11
HETATM   11  C   UNL     1     -38.256 -50.395  12.252  1.00  0.00     0.069 C 
HETATM   12  C   UNL     1     -37.368 -50.884  13.400  1.00  0.00     0.047 C 
HETATM   13  C   UNL     1     -37.396 -49.878  11.095  1.00  0.00     0.047 C 
BRANCH  11  14
HETATM   14  O   UNL     1     -38.989 -51.536  11.770  1.00  0.00    -0.389 OA
HETATM   15  H   UNL     1     -39.741 -51.682  12.369  1.00  0.00     0.210 HD
ENDBRANCH  11  14
ENDBRANCH  10  11
ENDBRANCH   1  10
BRANCH   4  16
HETATM   16  C   UNL     1     -41.907 -52.660  14.929  1.00  0.00    -0.006 A 
HETATM   17  C   UNL     1     -42.397 -53.836  14.332  1.00  0.00     0.014 A 
HETATM   18  C   UNL     1     -42.572 -54.999  15.083  1.00  0.00     0.001 A 
HETATM   19  C   UNL     1     -42.241 -55.004  16.434  1.00  0.00     0.000 A 
HETATM   20  C   UNL     1     -41.735 -53.849  17.032  1.00  0.00     0.001 A 
HETATM   21  C   UNL     1     -41.588 -52.672  16.289  1.00  0.00     0.014 A 
ENDBRANCH   4  16
BRANCH   5  22
HETATM   22  C   UNL     1     -44.518 -50.959  13.972  1.00  0.00    -0.007 A 
HETATM   23  C   UNL     1     -45.534 -51.422  13.133  1.00  0.00     0.014 A 
HETATM   24  C   UNL     1     -46.810 -51.680  13.648  1.00  0.00     0.001 A 
HETATM   25  C   UNL     1     -47.066 -51.532  15.012  1.00  0.00     0.000 A 
HETATM   26  C   UNL     1     -46.053 -51.105  15.863  1.00  0.00     0.001 A 
HETATM   27  C   UNL     1     -44.791 -50.811  15.345  1.00  0.00     0.014 A 
ENDBRANCH   5  22
TORSDOF 5
ENDMDL
MODEL 3
REMARK VINA RESULT:      -6.6      1.714      2.706
REMARK  5 active torsions:
REMARK  status: ('A' for Active; 'I' for Inactive)
REMARK    1  A    between atoms: C_2  and  O_4 
REMARK    2  A    between atoms: C_2  and  C_5 
REMARK    3  A    between atoms: C_5  and  N_6 
REMARK    4  A    between atoms: C_9  and  C_10 
REMARK    5  A    between atoms: C_16  and  C_21 
ROOT
HETATM    1  N   UNL     1     -41.700 -49.668  11.734  1.00  0.00    -0.239 N 
HETATM    2  N   UNL     1     -42.949 -49.916  12.239  1.00  0.00    -0.291 N 
ATOM      3  HN  UNL     1     -43.761 -49.393  11.911  1.00  0.00     0.187 HD
HETATM    4  C   UNL     1     -43.069 -50.838  13.148  1.00  0.00     0.086 C 
HETATM    5  C   UNL     1     -41.856 -51.679  13.507  1.00  0.00     0.075 C 
HETATM    6  N   UNL     1     -40.684 -51.319  13.082  1.00  0.00    -0.304 N 
ATOM      7  HN  UNL     1     -39.858 -51.828  13.397  1.00  0.00     0.171 HD
HETATM    8  C   UNL     1     -40.541 -50.271  12.220  1.00  0.00     0.341 C 
HETATM    9  O   UNL     1     -39.422 -49.923  11.843  1.00  0.00    -0.245 OA
ENDROOT
BRANCH   1  10
HETATM   10  C   UNL     1     -41.616 -48.648  10.691  1.00  0.00     0.191 C 
BRANCH  10  11
HETATM   11  C   UNL     1     -41.592 -47.197  11.229  1.00  0.00     0.069 C 
HETATM   12  C   UNL     1     -42.622 -46.311  10.523  1.00  0.00     0.047 C 
HETATM   13  C   UNL     1     -40.198 -46.571  11.140  1.00  0.00     0.047 C 
BRANCH  11  14
HETATM   14  O   UNL     1     -41.958 -47.244  12.620  1.00  0.00    -0.389 OA
HETATM   15  H   UNL     1     -41.150 -47.106  13.145  1.00  0.00     0.210 HD
ENDBRANCH  11  14
ENDBRANCH  10  11
ENDBRANCH   1  10
BRANCH   4  16
HETATM   16  C   UNL     1     -44.409 -50.934  13.802  1.00  0.00    -0.006 A 
HETATM   17  C   UNL     1     -44.483 -50.718  15.190  1.00  0.00     0.014 A 
HETATM   18  C   UNL     1     -45.675 -50.929  15.884  1.00  0.00     0.001 A 
HETATM   19  C   UNL     1     -46.812 -51.339  15.193  1.00  0.00     0.000 A 
HETATM   20  C   UNL     1     -46.755 -51.536  13.813  1.00  0.00     0.001 A 
HETATM   21  C   UNL     1     -45.553 -51.356  13.119  1.00  0.00     0.014 A 
ENDBRANCH   4  16
BRANCH   5  22
HETATM   22  C   UNL     1     -41.904 -52.967  14.265  1.00  0.00    -0.007 A 
HETATM   23  C   UNL     1     -41.078 -53.250  15.356  1.00  0.00     0.014 A 
HETATM   24  C   UNL     1     -41.231 -54.449  16.063  1.00  0.00     0.001 A 
HETATM   25  C   UNL     1     -42.243 -55.347  15.723  1.00  0.00     0.000 A 
HETATM   26  C   UNL     1     -43.093 -55.061  14.661  1.00  0.00     0.001 A 
HETATM   27  C   UNL     1     -42.919 -53.884  13.931  1.00  0.00     0.014 A 
ENDBRANCH   5  22
TORSDOF 5
ENDMDL
MODEL 4
REMARK VINA RESULT:      -6.3      1.600      2.314
REMARK  5 active torsions:
REMARK  status: ('A' for Active; 'I' for Inactive)
REMARK    1  A    between atoms: C_2  and  O_4 
REMARK    2  A    between atoms: C_2  and  C_5 
REMARK    3  A    between atoms: C_5  and  N_6 
REMARK    4  A    between atoms: C_9  and  C_10 
REMARK    5  A    between atoms: C_16  and  C_21 
ROOT
HETATM    1  N   UNL     1     -41.373 -49.301  11.686  1.00  0.00    -0.239 N 
HETATM    2  N   UNL     1     -42.398 -50.199  11.820  1.00  0.00    -0.291 N 
ATOM      3  HN  UNL     1     -43.225 -50.144  11.223  1.00  0.00     0.187 HD
HETATM    4  C   UNL     1     -42.289 -51.123  12.728  1.00  0.00     0.086 C 
HETATM    5  C   UNL     1     -40.986 -51.245  13.498  1.00  0.00     0.075 C 
HETATM    6  N   UNL     1     -40.102 -50.298  13.409  1.00  0.00    -0.304 N 
ATOM      7  HN  UNL     1     -39.268 -50.332  13.995  1.00  0.00     0.171 HD
HETATM    8  C   UNL     1     -40.273 -49.258  12.542  1.00  0.00     0.341 C 
HETATM    9  O   UNL     1     -39.442 -48.353  12.484  1.00  0.00    -0.245 OA
ENDROOT
BRANCH   1  10
HETATM   10  C   UNL     1     -41.523 -48.301  10.632  1.00  0.00     0.191 C 
BRANCH  10  11
HETATM   11  C   UNL     1     -42.746 -47.370  10.816  1.00  0.00     0.069 C 
HETATM   12  C   UNL     1     -42.786 -46.265   9.756  1.00  0.00     0.047 C 
HETATM   13  C   UNL     1     -42.804 -46.764  12.222  1.00  0.00     0.047 C 
BRANCH  11  14
HETATM   14  O   UNL     1     -43.930 -48.168  10.640  1.00  0.00    -0.389 OA
HETATM   15  H   UNL     1     -44.421 -48.162  11.480  1.00  0.00     0.210 HD
ENDBRANCH  11  14
ENDBRANCH  10  11
ENDBRANCH   1  10
BRANCH   4  16
HETATM   16  C   UNL     1     -43.510 -51.950  12.963  1.00  0.00    -0.006 A 
HETATM   17  C   UNL     1     -44.594 -51.351  13.630  1.00  0.00     0.014 A 
HETATM   18  C   UNL     1     -45.708 -52.104  14.005  1.00  0.00     0.001 A 
HETATM   19  C   UNL     1     -45.757 -53.461  13.699  1.00  0.00     0.000 A 
HETATM   20  C   UNL     1     -44.697 -54.061  13.019  1.00  0.00     0.001 A 
HETATM   21  C   UNL     1     -43.565 -53.315  12.670  1.00  0.00     0.014 A 
ENDBRANCH   4  16
BRANCH   5  22
HETATM   22  C   UNL     1     -40.583 -52.432  14.314  1.00  0.00    -0.007 A 
HETATM   23  C   UNL     1     -41.068 -52.682  15.601  1.00  0.00     0.014 A 
HETATM   24  C   UNL     1     -40.704 -53.853  16.276  1.00  0.00     0.001 A 
HETATM   25  C   UNL     1     -39.900 -54.808  15.652  1.00  0.00     0.000 A 
HETATM   26  C   UNL     1     -39.439 -54.587  14.359  1.00  0.00     0.001 A 
HETATM   27  C   UNL     1     -39.771 -53.402  13.699  1.00  0.00     0.014 A 
ENDBRANCH   5  22
TORSDOF 5
ENDMDL
MODEL 5
REMARK VINA RESULT:      -6.2      1.937      2.998
REMARK  5 active torsions:
REMARK  status: ('A' for Active; 'I' for Inactive)
REMARK    1  A    between atoms: C_2  and  O_4 
REMARK    2  A    between atoms: C_2  and  C_5 
REMARK    3  A    between atoms: C_5  and  N_6 
REMARK    4  A    between atoms: C_9  and  C_10 
REMARK    5  A    between atoms: C_16  and  C_21 
ROOT
HETATM    1  N   UNL     1     -41.184 -50.328  12.024  1.00  0.00    -0.239 N 
HETATM    2  N   UNL     1     -42.505 -50.444  12.369  1.00  0.00    -0.291 N 
ATOM      3  HN  UNL     1     -43.221 -49.887  11.901  1.00  0.00     0.187 HD
HETATM    4  C   UNL     1     -42.820 -51.284  13.310  1.00  0.00     0.086 C 
HETATM    5  C   UNL     1     -41.739 -52.183  13.884  1.00  0.00     0.075 C 
HETATM    6  N   UNL     1     -40.495 -51.945  13.600  1.00  0.00    -0.304 N 
ATOM      7  HN  UNL     1     -39.763 -52.489  14.057  1.00  0.00     0.171 HD
HETATM    8  C   UNL     1     -40.154 -50.977  12.701  1.00  0.00     0.341 C 
HETATM    9  O   UNL     1     -38.970 -50.743  12.458  1.00  0.00    -0.245 OA
ENDROOT
BRANCH   1  10
HETATM   10  C   UNL     1     -40.880 -49.398  10.939  1.00  0.00     0.191 C 
BRANCH  10  11
HETATM   11  C   UNL     1     -41.142 -47.913  11.289  1.00  0.00     0.069 C 
HETATM   12  C   UNL     1     -40.516 -47.525  12.631  1.00  0.00     0.047 C 
HETATM   13  C   UNL     1     -42.635 -47.571  11.278  1.00  0.00     0.047 C 
BRANCH  11  14
HETATM   14  O   UNL     1     -40.507 -47.110  10.278  1.00  0.00    -0.389 OA
HETATM   15  H   UNL     1     -39.813 -46.582  10.710  1.00  0.00     0.210 HD
ENDBRANCH  11  14
ENDBRANCH  10  11
ENDBRANCH   1  10
BRANCH   4  16
HETATM   16  C   UNL     1     -44.237 -51.229  13.781  1.00  0.00    -0.006 A 
HETATM   17  C   UNL     1     -44.470 -50.987  15.147  1.00  0.00     0.014 A 
HETATM   18  C   UNL     1     -45.759 -51.063  15.676  1.00  0.00     0.001 A 
HETATM   19  C   UNL     1     -46.831 -51.362  14.841  1.00  0.00     0.000 A 
HETATM   20  C   UNL     1     -46.614 -51.583  13.481  1.00  0.00     0.001 A 
HETATM   21  C   UNL     1     -45.319 -51.540  12.952  1.00  0.00     0.014 A 
ENDBRANCH   4  16
BRANCH   5  22
HETATM   22  C   UNL     1     -41.993 -53.404  14.709  1.00  0.00    -0.007 A 
HETATM   23  C   UNL     1     -42.914 -54.394  14.357  1.00  0.00     0.014 A 
HETATM   24  C   UNL     1     -43.045 -55.547  15.141  1.00  0.00     0.001 A 
HETATM   25  C   UNL     1     -42.220 -55.746  16.249  1.00  0.00     0.000 A 
HETATM   26  C   UNL     1     -41.276 -54.784  16.590  1.00  0.00     0.001 A 
HETATM   27  C   UNL     1     -41.170 -53.617  15.831  1.00  0.00     0.014 A 
ENDBRANCH   5  22
TORSDOF 5
ENDMDL
MODEL 6
REMARK VINA RESULT:      -6.2      2.788      6.444
REMARK  5 active torsions:
REMARK  status: ('A' for Active; 'I' for Inactive)
REMARK    1  A    between atoms: C_2  and  O_4 
REMARK    2  A    between atoms: C_2  and  C_5 
REMARK    3  A    between atoms: C_5  and  N_6 
REMARK    4  A    between atoms: C_9  and  C_10 
REMARK    5  A    between atoms: C_16  and  C_21 
ROOT
HETATM    1  N   UNL     1     -40.535 -50.601  11.802  1.00  0.00    -0.239 N 
HETATM    2  N   UNL     1     -41.596 -49.936  11.246  1.00  0.00    -0.291 N 
ATOM      3  HN  UNL     1     -42.459 -50.428  11.011  1.00  0.00     0.187 HD
HETATM    4  C   UNL     1     -41.473 -48.660  11.027  1.00  0.00     0.086 C 
HETATM    5  C   UNL     1     -40.223 -47.948  11.516  1.00  0.00     0.075 C 
HETATM    6  N   UNL     1     -39.211 -48.649  11.927  1.00  0.00    -0.304 N 
ATOM      7  HN  UNL     1     -38.339 -48.178  12.168  1.00  0.00     0.171 HD
HETATM    8  C   UNL     1     -39.297 -50.006  12.041  1.00  0.00     0.341 C 
HETATM    9  O   UNL     1     -38.323 -50.663  12.409  1.00  0.00    -0.245 OA
ENDROOT
BRANCH   1  10
HETATM   10  C   UNL     1     -40.730 -52.025  12.061  1.00  0.00     0.191 C 
BRANCH  10  11
HETATM   11  C   UNL     1     -41.441 -52.331  13.401  1.00  0.00     0.069 C 
HETATM   12  C   UNL     1     -40.448 -52.737  14.494  1.00  0.00     0.047 C 
HETATM   13  C   UNL     1     -42.531 -53.396  13.247  1.00  0.00     0.047 C 
BRANCH  11  14
HETATM   14  O   UNL     1     -42.079 -51.118  13.840  1.00  0.00    -0.389 OA
HETATM   15  H   UNL     1     -41.541 -50.741  14.557  1.00  0.00     0.210 HD
ENDBRANCH  11  14
ENDBRANCH  10  11
ENDBRANCH   1  10
BRANCH   4  16
HETATM   16  C   UNL     1     -42.577 -48.026  10.246  1.00  0.00    -0.006 A 
HETATM   17  C   UNL     1     -43.775 -47.725  10.920  1.00  0.00     0.014 A 
HETATM   18  C   UNL     1     -44.891 -47.263  10.221  1.00  0.00     0.001 A 
HETATM   19  C   UNL     1     -44.816 -47.079   8.844  1.00  0.00     0.000 A 
HETATM   20  C   UNL     1     -43.627 -47.356   8.168  1.00  0.00     0.001 A 
HETATM   21  C   UNL     1     -42.515 -47.849   8.861  1.00  0.00     0.014 A 
ENDBRANCH   4  16
BRANCH   5  22
HETATM   22  C   UNL     1     -40.079 -46.466  11.642  1.00  0.00    -0.007 A 
HETATM   23  C   UNL     1     -39.999 -45.603  10.546  1.00  0.00     0.014 A 
HETATM   24  C   UNL     1     -39.940 -44.218  10.742  1.00  0.00     0.001 A 
HETATM   25  C   UNL     1     -40.016 -43.681  12.028  1.00  0.00     0.000 A 
HETATM   26  C   UNL     1     -40.131 -44.528  13.125  1.00  0.00     0.001 A 
HETATM   27  C   UNL     1     -40.152 -45.910  12.934  1.00  0.00     0.014 A 
ENDBRANCH   5  22
TORSDOF 5
ENDMDL
MODEL 7
REMARK VINA RESULT:      -6.2      2.386      4.667
REMARK  5 active torsions:
REMARK  status: ('A' for Active; 'I' for Inactive)
REMARK    1  A    between atoms: C_2  and  O_4 
REMARK    2  A    between atoms: C_2  and  C_5 
REMARK    3  A    between atoms: C_5  and  N_6 
REMARK    4  A    between atoms: C_9  and  C_10 
REMARK    5  A    between atoms: C_16  and  C_21 
ROOT
HETATM    1  N   UNL     1     -41.303 -46.892  10.765  1.00  0.00    -0.239 N 
HETATM    2  N   UNL     1     -40.301 -47.440  11.522  1.00  0.00    -0.291 N 
ATOM      3  HN  UNL     1     -39.453 -46.913  11.732  1.00  0.00     0.187 HD
HETATM    4  C   UNL     1     -40.461 -48.652  11.965  1.00  0.00     0.086 C 
HETATM    5  C   UNL     1     -41.793 -49.346  11.739  1.00  0.00     0.075 C 
HETATM    6  N   UNL     1     -42.654 -48.823  10.920  1.00  0.00    -0.304 N 
ATOM      7  HN  UNL     1     -43.508 -49.332  10.696  1.00  0.00     0.171 HD
HETATM    8  C   UNL     1     -42.430 -47.601  10.355  1.00  0.00     0.341 C 
HETATM    9  O   UNL     1     -43.241 -47.125   9.560  1.00  0.00    -0.245 OA
ENDROOT
BRANCH   1  10
HETATM   10  C   UNL     1     -41.094 -45.518  10.317  1.00  0.00     0.191 C 
BRANCH  10  11
HETATM   11  C   UNL     1     -41.887 -44.463  11.126  1.00  0.00     0.069 C 
HETATM   12  C   UNL     1     -41.120 -43.143  11.248  1.00  0.00     0.047 C 
HETATM   13  C   UNL     1     -42.288 -44.979  12.511  1.00  0.00     0.047 C 
BRANCH  11  14
HETATM   14  O   UNL     1     -43.099 -44.181  10.402  1.00  0.00    -0.389 OA
HETATM   15  H   UNL     1     -42.908 -43.469   9.767  1.00  0.00     0.210 HD
ENDBRANCH  11  14
ENDBRANCH  10  11
ENDBRANCH   1  10
BRANCH   4  16
HETATM   16  C   UNL     1     -39.266 -49.270  12.614  1.00  0.00    -0.006 A 
HETATM   17  C   UNL     1     -38.410 -50.050  11.815  1.00  0.00     0.014 A 
HETATM   18  C   UNL     1     -37.358 -50.768  12.385  1.00  0.00     0.001 A 
HETATM   19  C   UNL     1     -37.137 -50.696  13.756  1.00  0.00     0.000 A 
HETATM   20  C   UNL     1     -37.967 -49.909  14.556  1.00  0.00     0.001 A 
HETATM   21  C   UNL     1     -39.043 -49.214  13.993  1.00  0.00     0.014 A 
ENDBRANCH   4  16
BRANCH   5  22
HETATM   22  C   UNL     1     -42.248 -50.576  12.458  1.00  0.00    -0.007 A 
HETATM   23  C   UNL     1     -41.821 -51.864  12.126  1.00  0.00     0.014 A 
HETATM   24  C   UNL     1     -42.232 -52.962  12.892  1.00  0.00     0.001 A 
HETATM   25  C   UNL     1     -43.026 -52.777  14.025  1.00  0.00     0.000 A 
HETATM   26  C   UNL     1     -43.428 -51.496  14.386  1.00  0.00     0.001 A 
HETATM   27  C   UNL     1     -43.050 -50.405  13.602  1.00  0.00     0.014 A 
ENDBRANCH   5  22
TORSDOF 5
ENDMDL
MODEL 8
REMARK VINA RESULT:      -6.1      1.881      2.959
REMARK  5 active torsions:
REMARK  status: ('A' for Active; 'I' for Inactive)
REMARK    1  A    between atoms: C_2  and  O_4 
REMARK    2  A    between atoms: C_2  and  C_5 
REMARK    3  A    between atoms: C_5  and  N_6 
REMARK    4  A    between atoms: C_9  and  C_10 
REMARK    5  A    between atoms: C_16  and  C_21 
ROOT
HETATM    1  N   UNL     1     -42.794 -47.961  11.337  1.00  0.00    -0.239 N 
HETATM    2  N   UNL     1     -42.949 -49.297  11.597  1.00  0.00    -0.291 N 
ATOM      3  HN  UNL     1     -43.805 -49.787  11.334  1.00  0.00     0.187 HD
HETATM    4  C   UNL     1     -41.975 -49.924  12.188  1.00  0.00     0.086 C 
HETATM    5  C   UNL     1     -40.672 -49.185  12.439  1.00  0.00     0.075 C 
HETATM    6  N   UNL     1     -40.628 -47.897  12.277  1.00  0.00    -0.304 N 
ATOM      7  HN  UNL     1     -39.783 -47.387  12.533  1.00  0.00     0.171 HD
HETATM    8  C   UNL     1     -41.697 -47.217  11.770  1.00  0.00     0.341 C 
HETATM    9  O   UNL     1     -41.654 -45.994  11.645  1.00  0.00    -0.245 OA
ENDROOT
BRANCH   1  10
HETATM   10  C   UNL     1     -43.899 -47.306  10.642  1.00  0.00     0.191 C 
BRANCH  10  11
HETATM   11  C   UNL     1     -43.792 -47.357   9.099  1.00  0.00     0.069 C 
HETATM   12  C   UNL     1     -43.415 -45.996   8.508  1.00  0.00     0.047 C 
HETATM   13  C   UNL     1     -45.074 -47.885   8.448  1.00  0.00     0.047 C 
BRANCH  11  14
HETATM   14  O   UNL     1     -42.731 -48.270   8.767  1.00  0.00    -0.389 OA
HETATM   15  H   UNL     1     -42.053 -47.773   8.277  1.00  0.00     0.210 HD
ENDBRANCH  11  14
ENDBRANCH  10  11
ENDBRANCH   1  10
BRANCH   4  16
HETATM   16  C   UNL     1     -42.271 -51.322  12.621  1.00  0.00    -0.006 A 
HETATM   17  C   UNL     1     -43.319 -51.520  13.539  1.00  0.00     0.014 A 
HETATM   18  C   UNL     1     -43.556 -52.780  14.091  1.00  0.00     0.001 A 
HETATM   19  C   UNL     1     -42.761 -53.859  13.716  1.00  0.00     0.000 A 
HETATM   20  C   UNL     1     -41.732 -53.678  12.790  1.00  0.00     0.001 A 
HETATM   21  C   UNL     1     -41.471 -52.409  12.259  1.00  0.00     0.014 A 
ENDBRANCH   4  16
BRANCH   5  22
HETATM   22  C   UNL     1     -39.373 -49.838  12.791  1.00  0.00    -0.007 A 
HETATM   23  C   UNL     1     -38.442 -50.261  11.840  1.00  0.00     0.014 A 
HETATM   24  C   UNL     1     -37.214 -50.798  12.247  1.00  0.00     0.001 A 
HETATM   25  C   UNL     1     -36.884 -50.863  13.601  1.00  0.00     0.000 A 
HETATM   26  C   UNL     1     -37.789 -50.412  14.556  1.00  0.00     0.001 A 
HETATM   27  C   UNL     1     -39.029 -49.912  14.154  1.00  0.00     0.014 A 
ENDBRANCH   5  22
TORSDOF 5
ENDMDL
MODEL 9
REMARK VINA RESULT:      -6.0      2.719      6.121
REMARK  5 active torsions:
REMARK  status: ('A' for Active; 'I' for Inactive)
REMARK    1  A    between atoms: C_2  and  O_4 
REMARK    2  A    between atoms: C_2  and  C_5 
REMARK    3  A    between atoms: C_5  and  N_6 
REMARK    4  A    between atoms: C_9  and  C_10 
REMARK    5  A    between atoms: C_16  and  C_21 
ROOT
HETATM    1  N   UNL     1     -41.215 -52.834  13.762  1.00  0.00    -0.239 N 
HETATM    2  N   UNL     1     -42.481 -52.627  14.242  1.00  0.00    -0.291 N 
ATOM      3  HN  UNL     1     -42.995 -53.377  14.707  1.00  0.00     0.187 HD
HETATM    4  C   UNL     1     -43.010 -51.449  14.089  1.00  0.00     0.086 C 
HETATM    5  C   UNL     1     -42.159 -50.331  13.512  1.00  0.00     0.075 C 
HETATM    6  N   UNL     1     -41.014 -50.617  12.971  1.00  0.00    -0.304 N 
ATOM      7  HN  UNL     1     -40.483 -49.884  12.502  1.00  0.00     0.171 HD
HETATM    8  C   UNL     1     -40.511 -51.884  13.023  1.00  0.00     0.341 C 
HETATM    9  O   UNL     1     -39.436 -52.149  12.486  1.00  0.00    -0.245 OA
ENDROOT
BRANCH   1  10
HETATM   10  C   UNL     1     -40.648 -54.161  13.985  1.00  0.00     0.191 C 
BRANCH  10  11
HETATM   11  C   UNL     1     -40.227 -54.429  15.450  1.00  0.00     0.069 C 
HETATM   12  C   UNL     1     -38.800 -54.976  15.542  1.00  0.00     0.047 C 
HETATM   13  C   UNL     1     -41.204 -55.361  16.171  1.00  0.00     0.047 C 
BRANCH  11  14
HETATM   14  O   UNL     1     -40.241 -53.167  16.143  1.00  0.00    -0.389 OA
HETATM   15  H   UNL     1     -41.124 -52.775  16.029  1.00  0.00     0.210 HD
ENDBRANCH  11  14
ENDBRANCH  10  11
ENDBRANCH   1  10
BRANCH   4  16
HETATM   16  C   UNL     1     -44.455 -51.334  14.452  1.00  0.00    -0.006 A 
HETATM   17  C   UNL     1     -44.783 -51.169  15.811  1.00  0.00     0.014 A 
HETATM   18  C   UNL     1     -46.113 -51.195  16.233  1.00  0.00     0.001 A 
HETATM   19  C   UNL     1     -47.129 -51.368  15.299  1.00  0.00     0.000 A 
HETATM   20  C   UNL     1     -46.817 -51.513  13.947  1.00  0.00     0.001 A 
HETATM   21  C   UNL     1     -45.482 -51.519  13.524  1.00  0.00     0.014 A 
ENDBRANCH   4  16
BRANCH   5  22
HETATM   22  C   UNL     1     -42.498 -48.877  13.582  1.00  0.00    -0.007 A 
HETATM   23  C   UNL     1     -42.421 -48.124  14.757  1.00  0.00     0.014 A 
HETATM   24  C   UNL     1     -42.681 -46.748  14.731  1.00  0.00     0.001 A 
HETATM   25  C   UNL     1     -42.966 -46.105  13.526  1.00  0.00     0.000 A 
HETATM   26  C   UNL     1     -43.011 -46.837  12.345  1.00  0.00     0.001 A 
HETATM   27  C   UNL     1     -42.788 -48.215  12.374  1.00  0.00     0.014 A 
ENDBRANCH   5  22
TORSDOF 5
ENDMDL
