MODEL 1
REMARK VINA RESULT:      -5.1      0.000      0.000
REMARK  4 active torsions:
REMARK  status: ('A' for Active; 'I' for Inactive)
REMARK    1  A    between atoms: O_2  and  C_3 
REMARK    2  A    between atoms: C_3  and  C_4 
REMARK    3  A    between atoms: C_4  and  N_5 
REMARK    4  A    between atoms: C_6  and  N_7 
ROOT
HETATM    1  N   UNL     1     -42.278 -46.212  10.358  1.00  0.00    -0.288 N 
HETATM    2  C   UNL     1     -43.239 -45.564   9.587  1.00  0.00     0.089 A 
HETATM    3  C   UNL     1     -43.823 -46.231   8.577  1.00  0.00     0.116 A 
HETATM    4  C   UNL     1     -43.479 -47.626   8.294  1.00  0.00     0.252 A 
HETATM    5  O   UNL     1     -43.998 -48.233   7.364  1.00  0.00    -0.268 OA
HETATM    6  N   UNL     1     -42.582 -48.192   9.140  1.00  0.00    -0.275 N 
HETATM    7  C   UNL     1     -41.963 -47.557  10.177  1.00  0.00     0.330 A 
HETATM    8  O   UNL     1     -41.180 -48.189  10.888  1.00  0.00    -0.246 OA
HETATM    9  H   UNL     1     -42.337 -49.156   8.984  1.00  0.00     0.173 HD
ENDROOT
BRANCH   1  10
HETATM   10  C   UNL     1     -41.519 -45.499  11.400  1.00  0.00     0.161 C 
BRANCH  10  11
HETATM   11  C   UNL     1     -40.257 -44.781  10.890  1.00  0.00     0.187 C 
BRANCH  11  12
HETATM   12  O   UNL     1     -40.571 -43.453  10.464  1.00  0.00    -0.394 OA
HETATM   13  C   UNL     1     -40.773 -42.588  11.574  1.00  0.00     0.201 C 
ENDBRANCH  11  12
ENDBRANCH  10  11
ENDBRANCH   1  10
BRANCH   2  14
HETATM   14  N   UNL     1     -43.635 -44.262   9.837  1.00  0.00    -0.288 NA
HETATM   15  H   UNL     1     -44.187 -44.178  10.685  1.00  0.00     0.125 HD
HETATM   16  H   UNL     1     -44.108 -43.815   9.056  1.00  0.00     0.125 HD
ENDBRANCH   2  14
TORSDOF 4
ENDMDL
MODEL 2
REMARK VINA RESULT:      -4.8      7.933      9.915
REMARK  4 active torsions:
REMARK  status: ('A' for Active; 'I' for Inactive)
REMARK    1  A    between atoms: O_2  and  C_3 
REMARK    2  A    between atoms: C_3  and  C_4 
REMARK    3  A    between atoms: C_4  and  N_5 
REMARK    4  A    between atoms: C_6  and  N_7 
ROOT
HETATM    1  N   UNL     1     -44.359 -54.369  13.567  1.00  0.00    -0.288 N 
HETATM    2  C   UNL     1     -43.161 -54.670  14.210  1.00  0.00     0.089 A 
HETATM    3  C   UNL     1     -42.024 -54.110  13.767  1.00  0.00     0.116 A 
HETATM    4  C   UNL     1     -42.031 -53.177  12.638  1.00  0.00     0.252 A 
HETATM    5  O   UNL     1     -40.993 -52.675  12.220  1.00  0.00    -0.268 OA
HETATM    6  N   UNL     1     -43.252 -52.894  12.119  1.00  0.00    -0.275 N 
HETATM    7  C   UNL     1     -44.432 -53.436  12.534  1.00  0.00     0.330 A 
HETATM    8  O   UNL     1     -45.481 -53.081  11.994  1.00  0.00    -0.246 OA
HETATM    9  H   UNL     1     -43.294 -52.241  11.353  1.00  0.00     0.173 HD
ENDROOT
BRANCH   1  10
HETATM   10  C   UNL     1     -45.617 -55.042  13.929  1.00  0.00     0.161 C 
BRANCH  10  11
HETATM   11  C   UNL     1     -46.443 -54.315  15.006  1.00  0.00     0.187 C 
BRANCH  11  12
HETATM   12  O   UNL     1     -45.937 -54.607  16.311  1.00  0.00    -0.394 OA
HETATM   13  C   UNL     1     -45.620 -53.417  17.020  1.00  0.00     0.201 C 
ENDBRANCH  11  12
ENDBRANCH  10  11
ENDBRANCH   1  10
BRANCH   2  14
HETATM   14  N   UNL     1     -43.101 -55.510  15.308  1.00  0.00    -0.288 NA
HETATM   15  H   UNL     1     -42.275 -56.100  15.303  1.00  0.00     0.125 HD
HETATM   16  H   UNL     1     -43.940 -56.068  15.450  1.00  0.00     0.125 HD
ENDBRANCH   2  14
TORSDOF 4
ENDMDL
MODEL 3
REMARK VINA RESULT:      -4.4      7.900      9.428
REMARK  4 active torsions:
REMARK  status: ('A' for Active; 'I' for Inactive)
REMARK    1  A    between atoms: O_2  and  C_3 
REMARK    2  A    between atoms: C_3  and  C_4 
REMARK    3  A    between atoms: C_4  and  N_5 
REMARK    4  A    between atoms: C_6  and  N_7 
ROOT
HETATM    1  N   UNL     1     -44.425 -54.289  13.757  1.00  0.00    -0.288 N 
HETATM    2  C   UNL     1     -44.304 -53.353  12.733  1.00  0.00     0.089 A 
HETATM    3  C   UNL     1     -43.082 -52.906  12.400  1.00  0.00     0.116 A 
HETATM    4  C   UNL     1     -41.884 -53.403  13.080  1.00  0.00     0.252 A 
HETATM    5  O   UNL     1     -40.768 -52.986  12.789  1.00  0.00    -0.268 OA
HETATM    6  N   UNL     1     -42.096 -54.361  14.017  1.00  0.00    -0.275 N 
HETATM    7  C   UNL     1     -43.316 -54.846  14.389  1.00  0.00     0.330 A 
HETATM    8  O   UNL     1     -43.376 -55.734  15.240  1.00  0.00    -0.246 OA
HETATM    9  H   UNL     1     -41.292 -54.738  14.490  1.00  0.00     0.173 HD
ENDROOT
BRANCH   1  10
HETATM   10  C   UNL     1     -45.743 -54.726  14.247  1.00  0.00     0.161 C 
BRANCH  10  11
HETATM   11  C   UNL     1     -46.374 -53.796  15.299  1.00  0.00     0.187 C 
BRANCH  11  12
HETATM   12  O   UNL     1     -47.118 -52.752  14.666  1.00  0.00    -0.394 OA
HETATM   13  C   UNL     1     -46.749 -51.476  15.172  1.00  0.00     0.201 C 
ENDBRANCH  11  12
ENDBRANCH  10  11
ENDBRANCH   1  10
BRANCH   2  14
HETATM   14  N   UNL     1     -45.397 -52.882  12.027  1.00  0.00    -0.288 NA
HETATM   15  H   UNL     1     -45.284 -52.978  11.023  1.00  0.00     0.125 HD
HETATM   16  H   UNL     1     -45.668 -51.932  12.268  1.00  0.00     0.125 HD
ENDBRANCH   2  14
TORSDOF 4
ENDMDL
MODEL 4
REMARK VINA RESULT:      -4.4      1.623      2.191
REMARK  4 active torsions:
REMARK  status: ('A' for Active; 'I' for Inactive)
REMARK    1  A    between atoms: O_2  and  C_3 
REMARK    2  A    between atoms: C_3  and  C_4 
REMARK    3  A    between atoms: C_4  and  N_5 
REMARK    4  A    between atoms: C_6  and  N_7 
ROOT
HETATM    1  N   UNL     1     -42.348 -46.178  10.398  1.00  0.00    -0.288 N 
HETATM    2  C   UNL     1     -43.293 -45.554   9.587  1.00  0.00     0.089 A 
HETATM    3  C   UNL     1     -43.823 -46.238   8.560  1.00  0.00     0.116 A 
HETATM    4  C   UNL     1     -43.440 -47.627   8.299  1.00  0.00     0.252 A 
HETATM    5  O   UNL     1     -43.909 -48.250   7.353  1.00  0.00    -0.268 OA
HETATM    6  N   UNL     1     -42.564 -48.170   9.181  1.00  0.00    -0.275 N 
HETATM    7  C   UNL     1     -41.999 -47.517  10.237  1.00  0.00     0.330 A 
HETATM    8  O   UNL     1     -41.231 -48.128  10.982  1.00  0.00    -0.246 OA
HETATM    9  H   UNL     1     -42.293 -49.130   9.041  1.00  0.00     0.173 HD
ENDROOT
BRANCH   1  10
HETATM   10  C   UNL     1     -41.645 -45.443  11.463  1.00  0.00     0.161 C 
BRANCH  10  11
HETATM   11  C   UNL     1     -42.455 -45.267  12.759  1.00  0.00     0.187 C 
BRANCH  11  12
HETATM   12  O   UNL     1     -43.231 -46.437  13.031  1.00  0.00    -0.394 OA
HETATM   13  C   UNL     1     -42.701 -47.164  14.132  1.00  0.00     0.201 C 
ENDBRANCH  11  12
ENDBRANCH  10  11
ENDBRANCH   1  10
BRANCH   2  14
HETATM   14  N   UNL     1     -43.725 -44.259   9.814  1.00  0.00    -0.288 NA
HETATM   15  H   UNL     1     -43.997 -43.784   8.959  1.00  0.00     0.125 HD
HETATM   16  H   UNL     1     -43.072 -43.692  10.348  1.00  0.00     0.125 HD
ENDBRANCH   2  14
TORSDOF 4
ENDMDL
MODEL 5
REMARK VINA RESULT:      -4.4      1.955      3.120
REMARK  4 active torsions:
REMARK  status: ('A' for Active; 'I' for Inactive)
REMARK    1  A    between atoms: O_2  and  C_3 
REMARK    2  A    between atoms: C_3  and  C_4 
REMARK    3  A    between atoms: C_4  and  N_5 
REMARK    4  A    between atoms: C_6  and  N_7 
ROOT
HETATM    1  N   UNL     1     -42.788 -45.974   9.728  1.00  0.00    -0.288 N 
HETATM    2  C   UNL     1     -43.037 -47.313   9.435  1.00  0.00     0.089 A 
HETATM    3  C   UNL     1     -44.273 -47.679   9.059  1.00  0.00     0.116 A 
HETATM    4  C   UNL     1     -45.348 -46.693   8.932  1.00  0.00     0.252 A 
HETATM    5  O   UNL     1     -46.481 -47.026   8.604  1.00  0.00    -0.268 OA
HETATM    6  N   UNL     1     -44.994 -45.406   9.173  1.00  0.00    -0.275 N 
HETATM    7  C   UNL     1     -43.755 -44.985   9.557  1.00  0.00     0.330 A 
HETATM    8  O   UNL     1     -43.553 -43.782   9.725  1.00  0.00    -0.246 OA
HETATM    9  H   UNL     1     -45.706 -44.700   9.077  1.00  0.00     0.173 HD
ENDROOT
BRANCH   1  10
HETATM   10  C   UNL     1     -41.488 -45.531  10.259  1.00  0.00     0.161 C 
BRANCH  10  11
HETATM   11  C   UNL     1     -41.362 -45.617  11.790  1.00  0.00     0.187 C 
BRANCH  11  12
HETATM   12  O   UNL     1     -40.019 -45.931  12.168  1.00  0.00    -0.394 OA
HETATM   13  C   UNL     1     -39.803 -47.336  12.188  1.00  0.00     0.201 C 
ENDBRANCH  11  12
ENDBRANCH  10  11
ENDBRANCH   1  10
BRANCH   2  14
HETATM   14  N   UNL     1     -42.048 -48.279   9.496  1.00  0.00    -0.288 NA
HETATM   15  H   UNL     1     -41.918 -48.647  10.433  1.00  0.00     0.125 HD
HETATM   16  H   UNL     1     -41.158 -47.989   9.098  1.00  0.00     0.125 HD
ENDBRANCH   2  14
TORSDOF 4
ENDMDL
MODEL 6
REMARK VINA RESULT:      -4.1      7.397      8.850
REMARK  4 active torsions:
REMARK  status: ('A' for Active; 'I' for Inactive)
REMARK    1  A    between atoms: O_2  and  C_3 
REMARK    2  A    between atoms: C_3  and  C_4 
REMARK    3  A    between atoms: C_4  and  N_5 
REMARK    4  A    between atoms: C_6  and  N_7 
ROOT
HETATM    1  N   UNL     1     -45.163 -53.146  13.609  1.00  0.00    -0.288 N 
HETATM    2  C   UNL     1     -45.620 -51.834  13.511  1.00  0.00     0.089 A 
HETATM    3  C   UNL     1     -46.539 -51.396  14.387  1.00  0.00     0.116 A 
HETATM    4  C   UNL     1     -47.045 -52.266  15.450  1.00  0.00     0.252 A 
HETATM    5  O   UNL     1     -47.895 -51.875  16.243  1.00  0.00    -0.268 OA
HETATM    6  N   UNL     1     -46.493 -53.504  15.507  1.00  0.00    -0.275 N 
HETATM    7  C   UNL     1     -45.559 -53.994  14.641  1.00  0.00     0.330 A 
HETATM    8  O   UNL     1     -45.118 -55.131  14.812  1.00  0.00    -0.246 OA
HETATM    9  H   UNL     1     -46.805 -54.122  16.238  1.00  0.00     0.173 HD
ENDROOT
BRANCH   1  10
HETATM   10  C   UNL     1     -44.249 -53.719  12.607  1.00  0.00     0.161 C 
BRANCH  10  11
HETATM   11  C   UNL     1     -42.760 -53.420  12.857  1.00  0.00     0.187 C 
BRANCH  11  12
HETATM   12  O   UNL     1     -42.316 -52.346  12.024  1.00  0.00    -0.394 OA
HETATM   13  C   UNL     1     -40.904 -52.195  12.083  1.00  0.00     0.201 C 
ENDBRANCH  11  12
ENDBRANCH  10  11
ENDBRANCH   1  10
BRANCH   2  14
HETATM   14  N   UNL     1     -45.145 -50.954  12.554  1.00  0.00    -0.288 NA
HETATM   15  H   UNL     1     -45.807 -50.214  12.341  1.00  0.00     0.125 HD
HETATM   16  H   UNL     1     -44.822 -51.404  11.701  1.00  0.00     0.125 HD
ENDBRANCH   2  14
TORSDOF 4
ENDMDL
MODEL 7
REMARK VINA RESULT:      -4.1      8.372      9.855
REMARK  4 active torsions:
REMARK  status: ('A' for Active; 'I' for Inactive)
REMARK    1  A    between atoms: O_2  and  C_3 
REMARK    2  A    between atoms: C_3  and  C_4 
REMARK    3  A    between atoms: C_4  and  N_5 
REMARK    4  A    between atoms: C_6  and  N_7 
ROOT
HETATM    1  N   UNL     1     -42.796 -53.755  13.885  1.00  0.00    -0.288 N 
HETATM    2  C   UNL     1     -42.148 -53.262  12.755  1.00  0.00     0.089 A 
HETATM    3  C   UNL     1     -40.811 -53.363  12.674  1.00  0.00     0.116 A 
HETATM    4  C   UNL     1     -40.036 -53.999  13.741  1.00  0.00     0.252 A 
HETATM    5  O   UNL     1     -38.814 -54.079  13.679  1.00  0.00    -0.268 OA
HETATM    6  N   UNL     1     -40.760 -54.507  14.769  1.00  0.00    -0.275 N 
HETATM    7  C   UNL     1     -42.116 -54.430  14.896  1.00  0.00     0.330 A 
HETATM    8  O   UNL     1     -42.661 -54.952  15.870  1.00  0.00    -0.246 OA
HETATM    9  H   UNL     1     -40.259 -54.968  15.511  1.00  0.00     0.173 HD
ENDROOT
BRANCH   1  10
HETATM   10  C   UNL     1     -44.243 -53.566  14.085  1.00  0.00     0.161 C 
BRANCH  10  11
HETATM   11  C   UNL     1     -45.116 -54.717  13.553  1.00  0.00     0.187 C 
BRANCH  11  12
HETATM   12  O   UNL     1     -46.098 -55.092  14.521  1.00  0.00    -0.394 OA
HETATM   13  C   UNL     1     -46.165 -54.148  15.582  1.00  0.00     0.201 C 
ENDBRANCH  11  12
ENDBRANCH  10  11
ENDBRANCH   1  10
BRANCH   2  14
HETATM   14  N   UNL     1     -42.834 -52.691  11.697  1.00  0.00    -0.288 NA
HETATM   15  H   UNL     1     -43.296 -53.381  11.114  1.00  0.00     0.125 HD
HETATM   16  H   UNL     1     -42.273 -52.060  11.131  1.00  0.00     0.125 HD
ENDBRANCH   2  14
TORSDOF 4
ENDMDL
MODEL 8
REMARK VINA RESULT:      -4.0      8.631      9.952
REMARK  4 active torsions:
REMARK  status: ('A' for Active; 'I' for Inactive)
REMARK    1  A    between atoms: O_2  and  C_3 
REMARK    2  A    between atoms: C_3  and  C_4 
REMARK    3  A    between atoms: C_4  and  N_5 
REMARK    4  A    between atoms: C_6  and  N_7 
ROOT
HETATM    1  N   UNL     1     -46.103 -53.306  15.528  1.00  0.00    -0.288 N 
HETATM    2  C   UNL     1     -46.475 -51.964  15.521  1.00  0.00     0.089 A 
HETATM    3  C   UNL     1     -46.705 -51.357  14.345  1.00  0.00     0.116 A 
HETATM    4  C   UNL     1     -46.593 -52.090  13.082  1.00  0.00     0.252 A 
HETATM    5  O   UNL     1     -46.787 -51.536  12.006  1.00  0.00    -0.268 OA
HETATM    6  N   UNL     1     -46.291 -53.408  13.193  1.00  0.00    -0.275 N 
HETATM    7  C   UNL     1     -46.048 -54.067  14.362  1.00  0.00     0.330 A 
HETATM    8  O   UNL     1     -45.804 -55.274  14.333  1.00  0.00    -0.246 OA
HETATM    9  H   UNL     1     -46.224 -53.945  12.344  1.00  0.00     0.173 HD
ENDROOT
BRANCH   1  10
HETATM   10  C   UNL     1     -45.721 -53.992  16.774  1.00  0.00     0.161 C 
BRANCH  10  11
HETATM   11  C   UNL     1     -44.220 -53.924  17.106  1.00  0.00     0.187 C 
BRANCH  11  12
HETATM   12  O   UNL     1     -43.609 -55.206  16.936  1.00  0.00    -0.394 OA
HETATM   13  C   UNL     1     -42.643 -55.184  15.894  1.00  0.00     0.201 C 
ENDBRANCH  11  12
ENDBRANCH  10  11
ENDBRANCH   1  10
BRANCH   2  14
HETATM   14  N   UNL     1     -46.639 -51.235  16.686  1.00  0.00    -0.288 NA
HETATM   15  H   UNL     1     -47.613 -51.153  16.961  1.00  0.00     0.125 HD
HETATM   16  H   UNL     1     -46.192 -50.322  16.670  1.00  0.00     0.125 HD
ENDBRANCH   2  14
TORSDOF 4
ENDMDL
MODEL 9
REMARK VINA RESULT:      -4.0      2.659      4.018
REMARK  4 active torsions:
REMARK  status: ('A' for Active; 'I' for Inactive)
REMARK    1  A    between atoms: O_2  and  C_3 
REMARK    2  A    between atoms: C_3  and  C_4 
REMARK    3  A    between atoms: C_4  and  N_5 
REMARK    4  A    between atoms: C_6  and  N_7 
ROOT
HETATM    1  N   UNL     1     -41.438 -47.633  11.457  1.00  0.00    -0.288 N 
HETATM    2  C   UNL     1     -42.744 -48.049  11.210  1.00  0.00     0.089 A 
HETATM    3  C   UNL     1     -43.487 -47.371  10.319  1.00  0.00     0.116 A 
HETATM    4  C   UNL     1     -42.937 -46.225   9.593  1.00  0.00     0.252 A 
HETATM    5  O   UNL     1     -43.616 -45.594   8.790  1.00  0.00    -0.268 OA
HETATM    6  N   UNL     1     -41.637 -45.936   9.851  1.00  0.00    -0.275 N 
HETATM    7  C   UNL     1     -40.844 -46.593  10.746  1.00  0.00     0.330 A 
HETATM    8  O   UNL     1     -39.668 -46.248  10.875  1.00  0.00    -0.246 OA
HETATM    9  H   UNL     1     -41.222 -45.164   9.355  1.00  0.00     0.173 HD
ENDROOT
BRANCH   1  10
HETATM   10  C   UNL     1     -40.618 -48.259  12.507  1.00  0.00     0.161 C 
BRANCH  10  11
HETATM   11  C   UNL     1     -39.730 -49.417  12.017  1.00  0.00     0.187 C 
BRANCH  11  12
HETATM   12  O   UNL     1     -38.346 -49.073  12.132  1.00  0.00    -0.394 OA
HETATM   13  C   UNL     1     -37.535 -49.919  11.327  1.00  0.00     0.201 C 
ENDBRANCH  11  12
ENDBRANCH  10  11
ENDBRANCH   1  10
BRANCH   2  14
HETATM   14  N   UNL     1     -43.301 -49.152  11.834  1.00  0.00    -0.288 NA
HETATM   15  H   UNL     1     -43.304 -49.067  12.845  1.00  0.00     0.125 HD
HETATM   16  H   UNL     1     -42.893 -50.039  11.549  1.00  0.00     0.125 HD
ENDBRANCH   2  14
TORSDOF 4
ENDMDL
