MODEL 1
REMARK VINA RESULT:      -6.1      0.000      0.000
REMARK  7 active torsions:
REMARK  status: ('A' for Active; 'I' for Inactive)
REMARK    1  A    between atoms: O_2  and  C_3 
REMARK    2  A    between atoms: C_8  and  O_9 
REMARK    3  A    between atoms: O_9  and  C_10 
REMARK    4  A    between atoms: C_10  and  C_11 
REMARK    5  A    between atoms: C_11  and  N_12 
REMARK    6  A    between atoms: C_13  and  C_14 
REMARK    7  A    between atoms: C_14  and  O_15 
ROOT
HETATM    1  N   UNL     1     -42.458 -50.452  12.910  1.00  0.00    -0.331 N 
HETATM    2  C   UNL     1     -41.623 -51.164  12.056  1.00  0.00     0.108 A 
HETATM    3  N   UNL     1     -42.136 -52.344  11.771  1.00  0.00    -0.342 N 
ATOM      4  HN  UNL     1     -41.722 -53.068  11.183  1.00  0.00     0.167 HD
HETATM    5  C   UNL     1     -43.336 -52.400  12.423  1.00  0.00     0.060 A 
HETATM    6  C   UNL     1     -44.253 -53.459  12.481  1.00  0.00     0.032 A 
HETATM    7  C   UNL     1     -45.440 -53.299  13.199  1.00  0.00     0.002 A 
HETATM    8  C   UNL     1     -45.724 -52.089  13.821  1.00  0.00     0.002 A 
HETATM    9  C   UNL     1     -44.823 -51.020  13.771  1.00  0.00     0.032 A 
HETATM   10  C   UNL     1     -43.601 -51.205  13.097  1.00  0.00     0.062 A 
ENDROOT
BRANCH   1  11
HETATM   11  C   UNL     1     -42.071 -49.193  13.527  1.00  0.00     0.157 C 
BRANCH  11  12
HETATM   12  C   UNL     1     -42.688 -47.907  12.979  1.00  0.00     0.196 C 
BRANCH  12  13
HETATM   13  O   UNL     1     -42.141 -47.584  11.696  1.00  0.00    -0.347 OA
BRANCH  13  14
HETATM   14  C   UNL     1     -43.039 -47.080  10.788  1.00  0.00     0.102 A 
HETATM   15  C   UNL     1     -42.845 -45.920  10.018  1.00  0.00     0.101 A 
HETATM   16  C   UNL     1     -43.770 -45.601   9.017  1.00  0.00     0.039 A 
HETATM   17  C   UNL     1     -44.912 -46.380   8.830  1.00  0.00     0.003 A 
HETATM   18  C   UNL     1     -45.127 -47.503   9.627  1.00  0.00     0.003 A 
HETATM   19  C   UNL     1     -44.182 -47.862  10.588  1.00  0.00     0.039 A 
BRANCH  15  20
HETATM   20  O   UNL     1     -41.712 -45.181  10.222  1.00  0.00    -0.353 OA
HETATM   21  C   UNL     1     -41.793 -44.151  11.204  1.00  0.00     0.210 C 
ENDBRANCH  15  20
ENDBRANCH  13  14
ENDBRANCH  12  13
ENDBRANCH  11  12
ENDBRANCH   1  11
BRANCH   2  22
HETATM   22  C   UNL     1     -40.302 -50.679  11.563  1.00  0.00     0.240 C 
BRANCH  22  23
HETATM   23  O   UNL     1     -40.517 -49.936  10.369  1.00  0.00    -0.393 OA
HETATM   24  H   UNL     1     -41.057 -50.509   9.794  1.00  0.00     0.209 HD
ENDBRANCH  22  23
ENDBRANCH   2  22
TORSDOF 7
ENDMDL
MODEL 2
REMARK VINA RESULT:      -6.1      2.766      4.593
REMARK  7 active torsions:
REMARK  status: ('A' for Active; 'I' for Inactive)
REMARK    1  A    between atoms: O_2  and  C_3 
REMARK    2  A    between atoms: C_8  and  O_9 
REMARK    3  A    between atoms: O_9  and  C_10 
REMARK    4  A    between atoms: C_10  and  C_11 
REMARK    5  A    between atoms: C_11  and  N_12 
REMARK    6  A    between atoms: C_13  and  C_14 
REMARK    7  A    between atoms: C_14  and  O_15 
ROOT
HETATM    1  N   UNL     1     -42.662 -52.746  14.174  1.00  0.00    -0.331 N 
HETATM    2  C   UNL     1     -42.382 -53.472  13.022  1.00  0.00     0.108 A 
HETATM    3  N   UNL     1     -43.443 -53.552  12.244  1.00  0.00    -0.342 N 
ATOM      4  HN  UNL     1     -43.514 -54.041  11.351  1.00  0.00     0.167 HD
HETATM    5  C   UNL     1     -44.427 -52.848  12.879  1.00  0.00     0.060 A 
HETATM    6  C   UNL     1     -45.762 -52.665  12.490  1.00  0.00     0.032 A 
HETATM    7  C   UNL     1     -46.606 -51.886  13.285  1.00  0.00     0.002 A 
HETATM    8  C   UNL     1     -46.118 -51.271  14.432  1.00  0.00     0.002 A 
HETATM    9  C   UNL     1     -44.788 -51.440  14.833  1.00  0.00     0.032 A 
HETATM   10  C   UNL     1     -43.956 -52.274  14.063  1.00  0.00     0.062 A 
ENDROOT
BRANCH   1  11
HETATM   11  C   UNL     1     -41.734 -52.639  15.288  1.00  0.00     0.157 C 
BRANCH  11  12
HETATM   12  C   UNL     1     -40.709 -51.506  15.263  1.00  0.00     0.196 C 
BRANCH  12  13
HETATM   13  O   UNL     1     -40.912 -50.660  14.124  1.00  0.00    -0.347 OA
BRANCH  13  14
HETATM   14  C   UNL     1     -39.836 -50.548  13.281  1.00  0.00     0.102 A 
HETATM   15  C   UNL     1     -39.810 -49.786  12.100  1.00  0.00     0.101 A 
HETATM   16  C   UNL     1     -38.601 -49.631  11.412  1.00  0.00     0.039 A 
HETATM   17  C   UNL     1     -37.447 -50.283  11.847  1.00  0.00     0.003 A 
HETATM   18  C   UNL     1     -37.486 -51.077  12.992  1.00  0.00     0.003 A 
HETATM   19  C   UNL     1     -38.672 -51.191  13.716  1.00  0.00     0.039 A 
BRANCH  15  20
HETATM   20  O   UNL     1     -40.957 -49.155  11.704  1.00  0.00    -0.353 OA
HETATM   21  C   UNL     1     -40.815 -47.821  11.221  1.00  0.00     0.210 C 
ENDBRANCH  15  20
ENDBRANCH  13  14
ENDBRANCH  12  13
ENDBRANCH  11  12
ENDBRANCH   1  11
BRANCH   2  22
HETATM   22  C   UNL     1     -41.068 -54.113  12.724  1.00  0.00     0.240 C 
BRANCH  22  23
HETATM   23  O   UNL     1     -40.525 -53.497  11.562  1.00  0.00    -0.393 OA
HETATM   24  H   UNL     1     -40.642 -52.539  11.691  1.00  0.00     0.209 HD
ENDBRANCH  22  23
ENDBRANCH   2  22
TORSDOF 7
ENDMDL
MODEL 3
REMARK VINA RESULT:      -5.9      3.838      5.041
REMARK  7 active torsions:
REMARK  status: ('A' for Active; 'I' for Inactive)
REMARK    1  A    between atoms: O_2  and  C_3 
REMARK    2  A    between atoms: C_8  and  O_9 
REMARK    3  A    between atoms: O_9  and  C_10 
REMARK    4  A    between atoms: C_10  and  C_11 
REMARK    5  A    between atoms: C_11  and  N_12 
REMARK    6  A    between atoms: C_13  and  C_14 
REMARK    7  A    between atoms: C_14  and  O_15 
ROOT
HETATM    1  N   UNL     1     -42.607 -51.435  13.663  1.00  0.00    -0.331 N 
HETATM    2  C   UNL     1     -42.225 -52.165  12.544  1.00  0.00     0.108 A 
HETATM    3  N   UNL     1     -43.259 -52.779  12.004  1.00  0.00    -0.342 N 
ATOM      4  HN  UNL     1     -43.254 -53.391  11.188  1.00  0.00     0.167 HD
HETATM    5  C   UNL     1     -44.341 -52.426  12.762  1.00  0.00     0.060 A 
HETATM    6  C   UNL     1     -45.673 -52.846  12.635  1.00  0.00     0.032 A 
HETATM    7  C   UNL     1     -46.636 -52.346  13.515  1.00  0.00     0.002 A 
HETATM    8  C   UNL     1     -46.282 -51.415  14.484  1.00  0.00     0.002 A 
HETATM    9  C   UNL     1     -44.958 -50.982  14.623  1.00  0.00     0.032 A 
HETATM   10  C   UNL     1     -43.981 -51.533  13.774  1.00  0.00     0.062 A 
ENDROOT
BRANCH   1  11
HETATM   11  C   UNL     1     -41.652 -50.797  14.555  1.00  0.00     0.157 C 
BRANCH  11  12
HETATM   12  C   UNL     1     -41.330 -49.321  14.324  1.00  0.00     0.196 C 
BRANCH  12  13
HETATM   13  O   UNL     1     -39.968 -49.036  14.664  1.00  0.00    -0.347 OA
BRANCH  13  14
HETATM   14  C   UNL     1     -39.034 -49.499  13.772  1.00  0.00     0.102 A 
HETATM   15  C   UNL     1     -38.095 -50.511  14.038  1.00  0.00     0.101 A 
HETATM   16  C   UNL     1     -37.301 -51.000  12.994  1.00  0.00     0.039 A 
HETATM   17  C   UNL     1     -37.385 -50.442  11.717  1.00  0.00     0.003 A 
HETATM   18  C   UNL     1     -38.283 -49.406  11.467  1.00  0.00     0.003 A 
HETATM   19  C   UNL     1     -39.118 -48.952  12.487  1.00  0.00     0.039 A 
BRANCH  15  20
HETATM   20  O   UNL     1     -38.043 -51.041  15.298  1.00  0.00    -0.353 OA
HETATM   21  C   UNL     1     -37.131 -50.430  16.208  1.00  0.00     0.210 C 
ENDBRANCH  15  20
ENDBRANCH  13  14
ENDBRANCH  12  13
ENDBRANCH  11  12
ENDBRANCH   1  11
BRANCH   2  22
HETATM   22  C   UNL     1     -40.824 -52.278  12.043  1.00  0.00     0.240 C 
BRANCH  22  23
HETATM   23  O   UNL     1     -40.650 -53.580  11.495  1.00  0.00    -0.393 OA
HETATM   24  H   UNL     1     -40.195 -53.450  10.643  1.00  0.00     0.209 HD
ENDBRANCH  22  23
ENDBRANCH   2  22
TORSDOF 7
ENDMDL
MODEL 4
REMARK VINA RESULT:      -5.7      1.833      2.818
REMARK  7 active torsions:
REMARK  status: ('A' for Active; 'I' for Inactive)
REMARK    1  A    between atoms: O_2  and  C_3 
REMARK    2  A    between atoms: C_8  and  O_9 
REMARK    3  A    between atoms: O_9  and  C_10 
REMARK    4  A    between atoms: C_10  and  C_11 
REMARK    5  A    between atoms: C_11  and  N_12 
REMARK    6  A    between atoms: C_13  and  C_14 
REMARK    7  A    between atoms: C_14  and  O_15 
ROOT
HETATM    1  N   UNL     1     -42.680 -52.045  13.305  1.00  0.00    -0.331 N 
HETATM    2  C   UNL     1     -42.277 -53.363  13.123  1.00  0.00     0.108 A 
HETATM    3  N   UNL     1     -43.287 -54.193  13.289  1.00  0.00    -0.342 N 
ATOM      4  HN  UNL     1     -43.262 -55.211  13.229  1.00  0.00     0.167 HD
HETATM    5  C   UNL     1     -44.375 -53.410  13.558  1.00  0.00     0.060 A 
HETATM    6  C   UNL     1     -45.686 -53.807  13.857  1.00  0.00     0.032 A 
HETATM    7  C   UNL     1     -46.661 -52.833  14.087  1.00  0.00     0.002 A 
HETATM    8  C   UNL     1     -46.340 -51.484  13.987  1.00  0.00     0.002 A 
HETATM    9  C   UNL     1     -45.038 -51.070  13.686  1.00  0.00     0.032 A 
HETATM   10  C   UNL     1     -44.045 -52.053  13.514  1.00  0.00     0.062 A 
ENDROOT
BRANCH   1  11
HETATM   11  C   UNL     1     -41.745 -50.931  13.351  1.00  0.00     0.157 C 
BRANCH  11  12
HETATM   12  C   UNL     1     -41.481 -50.163  12.057  1.00  0.00     0.196 C 
BRANCH  12  13
HETATM   13  O   UNL     1     -42.389 -49.065  11.920  1.00  0.00    -0.347 OA
BRANCH  13  14
HETATM   14  C   UNL     1     -41.854 -47.930  11.365  1.00  0.00     0.102 A 
HETATM   15  C   UNL     1     -42.449 -47.173  10.340  1.00  0.00     0.101 A 
HETATM   16  C   UNL     1     -41.876 -45.951   9.970  1.00  0.00     0.039 A 
HETATM   17  C   UNL     1     -40.686 -45.518  10.558  1.00  0.00     0.003 A 
HETATM   18  C   UNL     1     -40.072 -46.293  11.540  1.00  0.00     0.003 A 
HETATM   19  C   UNL     1     -40.666 -47.484  11.955  1.00  0.00     0.039 A 
BRANCH  15  20
HETATM   20  O   UNL     1     -43.618 -47.622   9.790  1.00  0.00    -0.353 OA
HETATM   21  C   UNL     1     -43.784 -47.413   8.389  1.00  0.00     0.210 C 
ENDBRANCH  15  20
ENDBRANCH  13  14
ENDBRANCH  12  13
ENDBRANCH  11  12
ENDBRANCH   1  11
BRANCH   2  22
HETATM   22  C   UNL     1     -40.879 -53.788  12.822  1.00  0.00     0.240 C 
BRANCH  22  23
HETATM   23  O   UNL     1     -40.636 -53.573  11.437  1.00  0.00    -0.393 OA
HETATM   24  H   UNL     1     -39.831 -53.025  11.391  1.00  0.00     0.209 HD
ENDBRANCH  22  23
ENDBRANCH   2  22
TORSDOF 7
ENDMDL
MODEL 5
REMARK VINA RESULT:      -5.7      2.544      6.702
REMARK  7 active torsions:
REMARK  status: ('A' for Active; 'I' for Inactive)
REMARK    1  A    between atoms: O_2  and  C_3 
REMARK    2  A    between atoms: C_8  and  O_9 
REMARK    3  A    between atoms: O_9  and  C_10 
REMARK    4  A    between atoms: C_10  and  C_11 
REMARK    5  A    between atoms: C_11  and  N_12 
REMARK    6  A    between atoms: C_13  and  C_14 
REMARK    7  A    between atoms: C_14  and  O_15 
ROOT
HETATM    1  N   UNL     1     -40.592 -49.457  11.518  1.00  0.00    -0.331 N 
HETATM    2  C   UNL     1     -39.329 -48.879  11.563  1.00  0.00     0.108 A 
HETATM    3  N   UNL     1     -39.387 -47.594  11.276  1.00  0.00    -0.342 N 
ATOM      4  HN  UNL     1     -38.605 -46.940  11.222  1.00  0.00     0.167 HD
HETATM    5  C   UNL     1     -40.708 -47.315  11.067  1.00  0.00     0.060 A 
HETATM    6  C   UNL     1     -41.298 -46.100  10.689  1.00  0.00     0.032 A 
HETATM    7  C   UNL     1     -42.686 -46.028  10.543  1.00  0.00     0.002 A 
HETATM    8  C   UNL     1     -43.476 -47.142  10.804  1.00  0.00     0.002 A 
HETATM    9  C   UNL     1     -42.904 -48.361  11.185  1.00  0.00     0.032 A 
HETATM   10  C   UNL     1     -41.503 -48.447  11.272  1.00  0.00     0.062 A 
ENDROOT
BRANCH   1  11
HETATM   11  C   UNL     1     -40.811 -50.890  11.623  1.00  0.00     0.157 C 
BRANCH  11  12
HETATM   12  C   UNL     1     -41.789 -51.391  12.686  1.00  0.00     0.196 C 
BRANCH  12  13
HETATM   13  O   UNL     1     -42.739 -52.299  12.118  1.00  0.00    -0.347 OA
BRANCH  13  14
HETATM   14  C   UNL     1     -43.248 -53.231  12.988  1.00  0.00     0.102 A 
HETATM   15  C   UNL     1     -44.576 -53.693  12.991  1.00  0.00     0.101 A 
HETATM   16  C   UNL     1     -44.929 -54.757  13.828  1.00  0.00     0.039 A 
HETATM   17  C   UNL     1     -43.995 -55.310  14.706  1.00  0.00     0.003 A 
HETATM   18  C   UNL     1     -42.691 -54.818  14.735  1.00  0.00     0.003 A 
HETATM   19  C   UNL     1     -42.316 -53.796  13.864  1.00  0.00     0.039 A 
BRANCH  15  20
HETATM   20  O   UNL     1     -45.465 -53.134  12.114  1.00  0.00    -0.353 OA
HETATM   21  C   UNL     1     -46.372 -52.174  12.652  1.00  0.00     0.210 C 
ENDBRANCH  15  20
ENDBRANCH  13  14
ENDBRANCH  12  13
ENDBRANCH  11  12
ENDBRANCH   1  11
BRANCH   2  22
HETATM   22  C   UNL     1     -38.067 -49.621  11.852  1.00  0.00     0.240 C 
BRANCH  22  23
HETATM   23  O   UNL     1     -37.512 -50.054  10.616  1.00  0.00    -0.393 OA
HETATM   24  H   UNL     1     -36.547 -49.956  10.710  1.00  0.00     0.209 HD
ENDBRANCH  22  23
ENDBRANCH   2  22
TORSDOF 7
ENDMDL
MODEL 6
REMARK VINA RESULT:      -5.7      2.666      4.039
REMARK  7 active torsions:
REMARK  status: ('A' for Active; 'I' for Inactive)
REMARK    1  A    between atoms: O_2  and  C_3 
REMARK    2  A    between atoms: C_8  and  O_9 
REMARK    3  A    between atoms: O_9  and  C_10 
REMARK    4  A    between atoms: C_10  and  C_11 
REMARK    5  A    between atoms: C_11  and  N_12 
REMARK    6  A    between atoms: C_13  and  C_14 
REMARK    7  A    between atoms: C_14  and  O_15 
ROOT
HETATM    1  N   UNL     1     -41.512 -53.366  12.935  1.00  0.00    -0.331 N 
HETATM    2  C   UNL     1     -40.724 -53.913  13.941  1.00  0.00     0.108 A 
HETATM    3  N   UNL     1     -41.462 -54.566  14.816  1.00  0.00    -0.342 N 
ATOM      4  HN  UNL     1     -41.139 -55.045  15.657  1.00  0.00     0.167 HD
HETATM    5  C   UNL     1     -42.749 -54.471  14.367  1.00  0.00     0.060 A 
HETATM    6  C   UNL     1     -43.923 -54.958  14.961  1.00  0.00     0.032 A 
HETATM    7  C   UNL     1     -45.148 -54.763  14.318  1.00  0.00     0.002 A 
HETATM    8  C   UNL     1     -45.198 -54.123  13.085  1.00  0.00     0.002 A 
HETATM    9  C   UNL     1     -44.037 -53.634  12.476  1.00  0.00     0.032 A 
HETATM   10  C   UNL     1     -42.813 -53.779  13.154  1.00  0.00     0.062 A 
ENDROOT
BRANCH   1  11
HETATM   11  C   UNL     1     -40.991 -52.453  11.930  1.00  0.00     0.157 C 
BRANCH  11  12
HETATM   12  C   UNL     1     -41.277 -50.961  12.101  1.00  0.00     0.196 C 
BRANCH  12  13
HETATM   13  O   UNL     1     -40.425 -50.178  11.256  1.00  0.00    -0.347 OA
BRANCH  13  14
HETATM   14  C   UNL     1     -40.149 -48.915  11.714  1.00  0.00     0.102 A 
HETATM   15  C   UNL     1     -40.768 -47.737  11.260  1.00  0.00     0.101 A 
HETATM   16  C   UNL     1     -40.508 -46.530  11.919  1.00  0.00     0.039 A 
HETATM   17  C   UNL     1     -39.590 -46.476  12.968  1.00  0.00     0.003 A 
HETATM   18  C   UNL     1     -38.942 -47.637  13.386  1.00  0.00     0.003 A 
HETATM   19  C   UNL     1     -39.237 -48.855  12.773  1.00  0.00     0.039 A 
BRANCH  15  20
HETATM   20  O   UNL     1     -41.667 -47.825  10.233  1.00  0.00    -0.353 OA
HETATM   21  C   UNL     1     -43.046 -47.737  10.586  1.00  0.00     0.210 C 
ENDBRANCH  15  20
ENDBRANCH  13  14
ENDBRANCH  12  13
ENDBRANCH  11  12
ENDBRANCH   1  11
BRANCH   2  22
HETATM   22  C   UNL     1     -39.245 -53.748  14.044  1.00  0.00     0.240 C 
BRANCH  22  23
HETATM   23  O   UNL     1     -38.627 -54.845  13.383  1.00  0.00    -0.393 OA
HETATM   24  H   UNL     1     -37.874 -55.103  13.945  1.00  0.00     0.209 HD
ENDBRANCH  22  23
ENDBRANCH   2  22
TORSDOF 7
ENDMDL
MODEL 7
REMARK VINA RESULT:      -5.6      2.031      2.953
REMARK  7 active torsions:
REMARK  status: ('A' for Active; 'I' for Inactive)
REMARK    1  A    between atoms: O_2  and  C_3 
REMARK    2  A    between atoms: C_8  and  O_9 
REMARK    3  A    between atoms: O_9  and  C_10 
REMARK    4  A    between atoms: C_10  and  C_11 
REMARK    5  A    between atoms: C_11  and  N_12 
REMARK    6  A    between atoms: C_13  and  C_14 
REMARK    7  A    between atoms: C_14  and  O_15 
ROOT
HETATM    1  N   UNL     1     -43.186 -52.127  13.547  1.00  0.00    -0.331 N 
HETATM    2  C   UNL     1     -42.397 -53.086  12.923  1.00  0.00     0.108 A 
HETATM    3  N   UNL     1     -42.988 -54.265  12.937  1.00  0.00    -0.342 N 
ATOM      4  HN  UNL     1     -42.621 -55.141  12.564  1.00  0.00     0.167 HD
HETATM    5  C   UNL     1     -44.192 -54.073  13.554  1.00  0.00     0.060 A 
HETATM    6  C   UNL     1     -45.180 -55.021  13.861  1.00  0.00     0.032 A 
HETATM    7  C   UNL     1     -46.357 -54.605  14.488  1.00  0.00     0.002 A 
HETATM    8  C   UNL     1     -46.561 -53.260  14.773  1.00  0.00     0.002 A 
HETATM    9  C   UNL     1     -45.588 -52.300  14.471  1.00  0.00     0.032 A 
HETATM   10  C   UNL     1     -44.379 -52.730  13.895  1.00  0.00     0.062 A 
ENDROOT
BRANCH   1  11
HETATM   11  C   UNL     1     -42.717 -50.779  13.829  1.00  0.00     0.157 C 
BRANCH  11  12
HETATM   12  C   UNL     1     -43.080 -49.671  12.841  1.00  0.00     0.196 C 
BRANCH  12  13
HETATM   13  O   UNL     1     -42.135 -49.617  11.765  1.00  0.00    -0.347 OA
BRANCH  13  14
HETATM   14  C   UNL     1     -41.675 -48.362  11.455  1.00  0.00     0.102 A 
HETATM   15  C   UNL     1     -40.386 -47.880  11.746  1.00  0.00     0.101 A 
HETATM   16  C   UNL     1     -39.990 -46.637  11.238  1.00  0.00     0.039 A 
HETATM   17  C   UNL     1     -40.884 -45.849  10.513  1.00  0.00     0.003 A 
HETATM   18  C   UNL     1     -42.177 -46.309  10.267  1.00  0.00     0.003 A 
HETATM   19  C   UNL     1     -42.562 -47.570  10.719  1.00  0.00     0.039 A 
BRANCH  15  20
HETATM   20  O   UNL     1     -39.532 -48.681  12.454  1.00  0.00    -0.353 OA
HETATM   21  C   UNL     1     -38.684 -49.536  11.692  1.00  0.00     0.210 C 
ENDBRANCH  15  20
ENDBRANCH  13  14
ENDBRANCH  12  13
ENDBRANCH  11  12
ENDBRANCH   1  11
BRANCH   2  22
HETATM   22  C   UNL     1     -41.043 -52.831  12.352  1.00  0.00     0.240 C 
BRANCH  22  23
HETATM   23  O   UNL     1     -41.202 -52.406  11.003  1.00  0.00    -0.393 OA
HETATM   24  H   UNL     1     -40.969 -53.177  10.454  1.00  0.00     0.209 HD
ENDBRANCH  22  23
ENDBRANCH   2  22
TORSDOF 7
ENDMDL
MODEL 8
REMARK VINA RESULT:      -5.5      3.889      5.866
REMARK  7 active torsions:
REMARK  status: ('A' for Active; 'I' for Inactive)
REMARK    1  A    between atoms: O_2  and  C_3 
REMARK    2  A    between atoms: C_8  and  O_9 
REMARK    3  A    between atoms: O_9  and  C_10 
REMARK    4  A    between atoms: C_10  and  C_11 
REMARK    5  A    between atoms: C_11  and  N_12 
REMARK    6  A    between atoms: C_13  and  C_14 
REMARK    7  A    between atoms: C_14  and  O_15 
ROOT
HETATM    1  N   UNL     1     -42.851 -52.746  13.252  1.00  0.00    -0.331 N 
HETATM    2  C   UNL     1     -42.713 -51.451  12.767  1.00  0.00     0.108 A 
HETATM    3  N   UNL     1     -43.851 -50.791  12.852  1.00  0.00    -0.342 N 
ATOM      4  HN  UNL     1     -44.030 -49.833  12.552  1.00  0.00     0.167 HD
HETATM    5  C   UNL     1     -44.743 -51.654  13.425  1.00  0.00     0.060 A 
HETATM    6  C   UNL     1     -46.105 -51.456  13.694  1.00  0.00     0.032 A 
HETATM    7  C   UNL     1     -46.838 -52.475  14.307  1.00  0.00     0.002 A 
HETATM    8  C   UNL     1     -46.214 -53.661  14.677  1.00  0.00     0.002 A 
HETATM    9  C   UNL     1     -44.855 -53.875  14.419  1.00  0.00     0.032 A 
HETATM   10  C   UNL     1     -44.134 -52.870  13.748  1.00  0.00     0.062 A 
ENDROOT
BRANCH   1  11
HETATM   11  C   UNL     1     -41.809 -53.753  13.126  1.00  0.00     0.157 C 
BRANCH  11  12
HETATM   12  C   UNL     1     -40.648 -53.712  14.118  1.00  0.00     0.196 C 
BRANCH  12  13
HETATM   13  O   UNL     1     -39.442 -53.280  13.477  1.00  0.00    -0.347 OA
BRANCH  13  14
HETATM   14  C   UNL     1     -38.765 -52.275  14.121  1.00  0.00     0.102 A 
HETATM   15  C   UNL     1     -38.044 -51.249  13.485  1.00  0.00     0.101 A 
HETATM   16  C   UNL     1     -37.529 -50.198  14.252  1.00  0.00     0.039 A 
HETATM   17  C   UNL     1     -37.664 -50.199  15.641  1.00  0.00     0.003 A 
HETATM   18  C   UNL     1     -38.339 -51.242  16.274  1.00  0.00     0.003 A 
HETATM   19  C   UNL     1     -38.905 -52.264  15.513  1.00  0.00     0.039 A 
BRANCH  15  20
HETATM   20  O   UNL     1     -37.935 -51.275  12.122  1.00  0.00    -0.353 OA
HETATM   21  C   UNL     1     -37.764 -50.016  11.474  1.00  0.00     0.210 C 
ENDBRANCH  15  20
ENDBRANCH  13  14
ENDBRANCH  12  13
ENDBRANCH  11  12
ENDBRANCH   1  11
BRANCH   2  22
HETATM   22  C   UNL     1     -41.458 -50.892  12.186  1.00  0.00     0.240 C 
BRANCH  22  23
HETATM   23  O   UNL     1     -41.013 -51.770  11.158  1.00  0.00    -0.393 OA
HETATM   24  H   UNL     1     -40.682 -51.196  10.444  1.00  0.00     0.209 HD
ENDBRANCH  22  23
ENDBRANCH   2  22
TORSDOF 7
ENDMDL
MODEL 9
REMARK VINA RESULT:      -5.4      4.448      6.763
REMARK  7 active torsions:
REMARK  status: ('A' for Active; 'I' for Inactive)
REMARK    1  A    between atoms: O_2  and  C_3 
REMARK    2  A    between atoms: C_8  and  O_9 
REMARK    3  A    between atoms: O_9  and  C_10 
REMARK    4  A    between atoms: C_10  and  C_11 
REMARK    5  A    between atoms: C_11  and  N_12 
REMARK    6  A    between atoms: C_13  and  C_14 
REMARK    7  A    between atoms: C_14  and  O_15 
ROOT
HETATM    1  N   UNL     1     -43.187 -51.943  13.586  1.00  0.00    -0.331 N 
HETATM    2  C   UNL     1     -42.614 -52.667  12.547  1.00  0.00     0.108 A 
HETATM    3  N   UNL     1     -43.244 -53.810  12.366  1.00  0.00    -0.342 N 
ATOM      4  HN  UNL     1     -43.018 -54.535  11.683  1.00  0.00     0.167 HD
HETATM    5  C   UNL     1     -44.261 -53.828  13.278  1.00  0.00     0.060 A 
HETATM    6  C   UNL     1     -45.197 -54.842  13.527  1.00  0.00     0.032 A 
HETATM    7  C   UNL     1     -46.175 -54.646  14.506  1.00  0.00     0.002 A 
HETATM    8  C   UNL     1     -46.239 -53.445  15.201  1.00  0.00     0.002 A 
HETATM    9  C   UNL     1     -45.315 -52.421  14.963  1.00  0.00     0.032 A 
HETATM   10  C   UNL     1     -44.296 -52.644  14.020  1.00  0.00     0.062 A 
ENDROOT
BRANCH   1  11
HETATM   11  C   UNL     1     -42.598 -50.725  14.121  1.00  0.00     0.157 C 
BRANCH  11  12
HETATM   12  C   UNL     1     -41.950 -50.789  15.504  1.00  0.00     0.196 C 
BRANCH  12  13
HETATM   13  O   UNL     1     -41.038 -51.890  15.590  1.00  0.00    -0.347 OA
BRANCH  13  14
HETATM   14  C   UNL     1     -41.579 -53.061  16.058  1.00  0.00     0.102 A 
HETATM   15  C   UNL     1     -41.337 -54.336  15.515  1.00  0.00     0.101 A 
HETATM   16  C   UNL     1     -41.825 -55.466  16.181  1.00  0.00     0.039 A 
HETATM   17  C   UNL     1     -42.606 -55.332  17.330  1.00  0.00     0.003 A 
HETATM   18  C   UNL     1     -42.885 -54.065  17.838  1.00  0.00     0.003 A 
HETATM   19  C   UNL     1     -42.354 -52.936  17.215  1.00  0.00     0.039 A 
BRANCH  15  20
HETATM   20  O   UNL     1     -40.562 -54.433  14.392  1.00  0.00    -0.353 OA
HETATM   21  C   UNL     1     -39.193 -54.777  14.592  1.00  0.00     0.210 C 
ENDBRANCH  15  20
ENDBRANCH  13  14
ENDBRANCH  12  13
ENDBRANCH  11  12
ENDBRANCH   1  11
BRANCH   2  22
HETATM   22  C   UNL     1     -41.418 -52.232  11.769  1.00  0.00     0.240 C 
BRANCH  22  23
HETATM   23  O   UNL     1     -40.601 -53.372  11.532  1.00  0.00    -0.393 OA
HETATM   24  H   UNL     1     -41.202 -54.064  11.200  1.00  0.00     0.209 HD
ENDBRANCH  22  23
ENDBRANCH   2  22
TORSDOF 7
ENDMDL
