MODEL 1
REMARK VINA RESULT:      -5.8      0.000      0.000
REMARK  4 active torsions:
REMARK  status: ('A' for Active; 'I' for Inactive)
REMARK    1  A    between atoms: C_2  and  C_4 
REMARK    2  A    between atoms: C_4  and  C_5 
REMARK    3  A    between atoms: C_11  and  N_12 
REMARK       I    between atoms: N_12  and  C_13 
REMARK       I    between atoms: C_13  and  N_15 
REMARK    4  A    between atoms: N_15  and  C_16 
ROOT
HETATM    1  N   UNL     1     -43.067 -52.654  11.856  1.00  0.00    -0.301 N 
HETATM    2  C   UNL     1     -44.188 -52.797  12.616  1.00  0.00     0.321 C 
HETATM    3  O   UNL     1     -45.209 -53.239  12.095  1.00  0.00    -0.247 OA
HETATM    4  N   UNL     1     -44.080 -52.543  13.956  1.00  0.00    -0.332 N 
HETATM    5  H   UNL     1     -43.095 -53.214  11.013  1.00  0.00     0.171 HD
HETATM    6  H   UNL     1     -43.144 -52.660  14.320  1.00  0.00     0.165 HD
ENDROOT
BRANCH   1   7
HETATM    7  C   UNL     1     -41.845 -52.188  12.265  1.00  0.00     0.102 C 
HETATM    8  C   UNL     1     -40.697 -52.758  12.779  1.00  0.00     0.044 C 
HETATM    9  N   UNL     1     -39.641 -51.861  12.909  1.00  0.00    -0.355 N 
HETATM   10  C   UNL     1     -40.043 -50.640  12.618  1.00  0.00     0.049 C 
ATOM     11  HN  UNL     1     -38.693 -52.112  13.188  1.00  0.00     0.166 HD
HETATM   12  C   UNL     1     -39.174 -49.434  12.653  1.00  0.00     0.076 C 
HETATM   13  S   UNL     1     -41.696 -50.493  12.187  1.00  0.00    -0.057 SA
BRANCH   8  14
HETATM   14  C   UNL     1     -40.485 -54.152  13.300  1.00  0.00     0.064 C 
BRANCH  14  15
HETATM   15  C   UNL     1     -40.492 -54.204  14.850  1.00  0.00    -0.017 C 
HETATM   16  C   UNL     1     -41.761 -54.857  15.401  1.00  0.00     0.010 C 
HETATM   17  C   UNL     1     -39.262 -54.959  15.368  1.00  0.00     0.010 C 
ENDBRANCH  14  15
ENDBRANCH   8  14
ENDBRANCH   1   7
BRANCH   4  18
HETATM   18  C   UNL     1     -45.178 -52.825  14.891  1.00  0.00     0.054 C 
HETATM   19  C   UNL     1     -46.357 -51.867  14.647  1.00  0.00     0.041 C 
HETATM   20  C   UNL     1     -44.702 -52.689  16.338  1.00  0.00     0.059 C 
HETATM   21  C   UNL     1     -45.511 -53.713  17.116  1.00  0.00     0.170 C 
HETATM   22  O   UNL     1     -46.168 -54.570  16.177  1.00  0.00    -0.389 OA
HETATM   23  C   UNL     1     -45.644 -54.286  14.872  1.00  0.00     0.198 C 
ENDBRANCH   4  18
TORSDOF 4
ENDMDL
MODEL 2
REMARK VINA RESULT:      -5.7      1.904      3.466
REMARK  4 active torsions:
REMARK  status: ('A' for Active; 'I' for Inactive)
REMARK    1  A    between atoms: C_2  and  C_4 
REMARK    2  A    between atoms: C_4  and  C_5 
REMARK    3  A    between atoms: C_11  and  N_12 
REMARK       I    between atoms: N_12  and  C_13 
REMARK       I    between atoms: C_13  and  N_15 
REMARK    4  A    between atoms: N_15  and  C_16 
ROOT
HETATM    1  N   UNL     1     -43.492 -52.900  12.019  1.00  0.00    -0.301 N 
HETATM    2  C   UNL     1     -44.659 -52.879  12.723  1.00  0.00     0.321 C 
HETATM    3  O   UNL     1     -45.710 -53.129  12.140  1.00  0.00    -0.247 OA
HETATM    4  N   UNL     1     -44.578 -52.687  14.075  1.00  0.00    -0.332 N 
HETATM    5  H   UNL     1     -43.570 -53.422  11.155  1.00  0.00     0.171 HD
HETATM    6  H   UNL     1     -43.693 -52.968  14.476  1.00  0.00     0.165 HD
ENDROOT
BRANCH   1   7
HETATM    7  C   UNL     1     -42.233 -52.655  12.500  1.00  0.00     0.102 C 
HETATM    8  C   UNL     1     -41.436 -51.537  12.647  1.00  0.00     0.044 C 
HETATM    9  N   UNL     1     -40.253 -51.784  13.338  1.00  0.00    -0.355 N 
HETATM   10  C   UNL     1     -40.128 -53.074  13.578  1.00  0.00     0.049 C 
ATOM     11  HN  UNL     1     -39.581 -51.071  13.618  1.00  0.00     0.166 HD
HETATM   12  C   UNL     1     -38.982 -53.692  14.297  1.00  0.00     0.076 C 
HETATM   13  S   UNL     1     -41.400 -54.059  12.988  1.00  0.00    -0.057 SA
BRANCH   8  14
HETATM   14  C   UNL     1     -41.627 -50.158  12.080  1.00  0.00     0.064 C 
BRANCH  14  15
HETATM   15  C   UNL     1     -42.937 -49.496  12.580  1.00  0.00    -0.017 C 
HETATM   16  C   UNL     1     -42.958 -49.331  14.101  1.00  0.00     0.010 C 
HETATM   17  C   UNL     1     -43.137 -48.130  11.914  1.00  0.00     0.010 C 
ENDBRANCH  14  15
ENDBRANCH   8  14
ENDBRANCH   1   7
BRANCH   4  18
HETATM   18  C   UNL     1     -45.752 -52.812  14.949  1.00  0.00     0.054 C 
HETATM   19  C   UNL     1     -46.466 -54.154  14.712  1.00  0.00     0.041 C 
HETATM   20  C   UNL     1     -46.732 -51.664  14.701  1.00  0.00     0.059 C 
HETATM   21  C   UNL     1     -47.377 -51.399  16.052  1.00  0.00     0.170 C 
HETATM   22  O   UNL     1     -46.633 -52.106  17.048  1.00  0.00    -0.389 OA
HETATM   23  C   UNL     1     -45.438 -52.612  16.437  1.00  0.00     0.198 C 
ENDBRANCH   4  18
TORSDOF 4
ENDMDL
MODEL 3
REMARK VINA RESULT:      -5.7      3.003      4.356
REMARK  4 active torsions:
REMARK  status: ('A' for Active; 'I' for Inactive)
REMARK    1  A    between atoms: C_2  and  C_4 
REMARK    2  A    between atoms: C_4  and  C_5 
REMARK    3  A    between atoms: C_11  and  N_12 
REMARK       I    between atoms: N_12  and  C_13 
REMARK       I    between atoms: C_13  and  N_15 
REMARK    4  A    between atoms: N_15  and  C_16 
ROOT
HETATM    1  N   UNL     1     -42.825 -48.828  13.364  1.00  0.00    -0.301 N 
HETATM    2  C   UNL     1     -43.491 -49.905  13.866  1.00  0.00     0.321 C 
HETATM    3  O   UNL     1     -43.729 -49.949  15.070  1.00  0.00    -0.247 OA
HETATM    4  N   UNL     1     -43.958 -50.832  12.974  1.00  0.00    -0.332 N 
HETATM    5  H   UNL     1     -42.865 -48.025  13.980  1.00  0.00     0.171 HD
HETATM    6  H   UNL     1     -44.120 -50.462  12.048  1.00  0.00     0.165 HD
ENDROOT
BRANCH   1   7
HETATM    7  C   UNL     1     -42.481 -48.605  12.057  1.00  0.00     0.102 C 
HETATM    8  C   UNL     1     -41.487 -49.057  11.210  1.00  0.00     0.044 C 
HETATM    9  N   UNL     1     -41.646 -48.637   9.893  1.00  0.00    -0.355 N 
HETATM   10  C   UNL     1     -42.656 -47.795   9.803  1.00  0.00     0.049 C 
ATOM     11  HN  UNL     1     -41.064 -48.936   9.111  1.00  0.00     0.166 HD
HETATM   12  C   UNL     1     -43.107 -47.150   8.541  1.00  0.00     0.076 C 
HETATM   13  S   UNL     1     -43.462 -47.452  11.276  1.00  0.00    -0.057 SA
BRANCH   8  14
HETATM   14  C   UNL     1     -40.240 -49.828  11.543  1.00  0.00     0.064 C 
BRANCH  14  15
HETATM   15  C   UNL     1     -39.020 -48.897  11.770  1.00  0.00    -0.017 C 
HETATM   16  C   UNL     1     -38.978 -48.336  13.193  1.00  0.00     0.010 C 
HETATM   17  C   UNL     1     -37.714 -49.643  11.475  1.00  0.00     0.010 C 
ENDBRANCH  14  15
ENDBRANCH   8  14
ENDBRANCH   1   7
BRANCH   4  18
HETATM   18  C   UNL     1     -44.827 -51.940  13.390  1.00  0.00     0.054 C 
HETATM   19  C   UNL     1     -46.178 -51.409  13.899  1.00  0.00     0.041 C 
HETATM   20  C   UNL     1     -44.159 -52.767  14.490  1.00  0.00     0.059 C 
HETATM   21  C   UNL     1     -44.643 -54.189  14.262  1.00  0.00     0.170 C 
HETATM   22  O   UNL     1     -45.281 -54.245  12.983  1.00  0.00    -0.389 OA
HETATM   23  C   UNL     1     -45.029 -53.006  12.305  1.00  0.00     0.198 C 
ENDBRANCH   4  18
TORSDOF 4
ENDMDL
MODEL 4
REMARK VINA RESULT:      -5.4      5.628      8.182
REMARK  4 active torsions:
REMARK  status: ('A' for Active; 'I' for Inactive)
REMARK    1  A    between atoms: C_2  and  C_4 
REMARK    2  A    between atoms: C_4  and  C_5 
REMARK    3  A    between atoms: C_11  and  N_12 
REMARK       I    between atoms: N_12  and  C_13 
REMARK       I    between atoms: C_13  and  N_15 
REMARK    4  A    between atoms: N_15  and  C_16 
ROOT
HETATM    1  N   UNL     1     -41.538 -47.296  12.989  1.00  0.00    -0.301 N 
HETATM    2  C   UNL     1     -40.432 -47.956  13.434  1.00  0.00     0.321 C 
HETATM    3  O   UNL     1     -40.297 -48.144  14.640  1.00  0.00    -0.247 OA
HETATM    4  N   UNL     1     -39.584 -48.474  12.493  1.00  0.00    -0.332 N 
HETATM    5  H   UNL     1     -42.290 -47.297  13.667  1.00  0.00     0.171 HD
HETATM    6  H   UNL     1     -40.028 -48.669  11.606  1.00  0.00     0.165 HD
ENDROOT
BRANCH   1   7
HETATM    7  C   UNL     1     -41.859 -47.004  11.689  1.00  0.00     0.102 C 
HETATM    8  C   UNL     1     -41.295 -46.243  10.683  1.00  0.00     0.044 C 
HETATM    9  N   UNL     1     -41.938 -46.378   9.457  1.00  0.00    -0.355 N 
HETATM   10  C   UNL     1     -43.020 -47.117   9.590  1.00  0.00     0.049 C 
ATOM     11  HN  UNL     1     -41.618 -45.965   8.582  1.00  0.00     0.166 HD
HETATM   12  C   UNL     1     -43.948 -47.465   8.481  1.00  0.00     0.076 C 
HETATM   13  S   UNL     1     -43.335 -47.681  11.178  1.00  0.00    -0.057 SA
BRANCH   8  14
HETATM   14  C   UNL     1     -40.179 -45.239  10.770  1.00  0.00     0.064 C 
BRANCH  14  15
HETATM   15  C   UNL     1     -40.350 -44.277  11.975  1.00  0.00    -0.017 C 
HETATM   16  C   UNL     1     -39.143 -44.307  12.914  1.00  0.00     0.010 C 
HETATM   17  C   UNL     1     -40.585 -42.843  11.488  1.00  0.00     0.010 C 
ENDBRANCH  14  15
ENDBRANCH   8  14
ENDBRANCH   1   7
BRANCH   4  18
HETATM   18  C   UNL     1     -38.456 -49.341  12.859  1.00  0.00     0.054 C 
HETATM   19  C   UNL     1     -37.545 -48.645  13.885  1.00  0.00     0.041 C 
HETATM   20  C   UNL     1     -37.638 -49.713  11.621  1.00  0.00     0.059 C 
HETATM   21  C   UNL     1     -37.118 -51.113  11.899  1.00  0.00     0.170 C 
HETATM   22  O   UNL     1     -37.810 -51.628  13.040  1.00  0.00    -0.389 OA
HETATM   23  C   UNL     1     -38.882 -50.729  13.355  1.00  0.00     0.198 C 
ENDBRANCH   4  18
TORSDOF 4
ENDMDL
MODEL 5
REMARK VINA RESULT:      -5.3      1.900      3.593
REMARK  4 active torsions:
REMARK  status: ('A' for Active; 'I' for Inactive)
REMARK    1  A    between atoms: C_2  and  C_4 
REMARK    2  A    between atoms: C_4  and  C_5 
REMARK    3  A    between atoms: C_11  and  N_12 
REMARK       I    between atoms: N_12  and  C_13 
REMARK       I    between atoms: C_13  and  N_15 
REMARK    4  A    between atoms: N_15  and  C_16 
ROOT
HETATM    1  N   UNL     1     -43.361 -52.644  11.978  1.00  0.00    -0.301 N 
HETATM    2  C   UNL     1     -44.446 -52.887  12.764  1.00  0.00     0.321 C 
HETATM    3  O   UNL     1     -45.359 -53.578  12.321  1.00  0.00    -0.247 OA
HETATM    4  N   UNL     1     -44.406 -52.435  14.055  1.00  0.00    -0.332 N 
HETATM    5  H   UNL     1     -43.273 -53.310  11.221  1.00  0.00     0.171 HD
HETATM    6  H   UNL     1     -43.469 -52.324  14.420  1.00  0.00     0.165 HD
ENDROOT
BRANCH   1   7
HETATM    7  C   UNL     1     -42.253 -51.907  12.304  1.00  0.00     0.102 C 
HETATM    8  C   UNL     1     -42.005 -50.581  12.603  1.00  0.00     0.044 C 
HETATM    9  N   UNL     1     -40.699 -50.339  13.018  1.00  0.00    -0.355 N 
HETATM   10  C   UNL     1     -39.975 -51.434  12.903  1.00  0.00     0.049 C 
ATOM     11  HN  UNL     1     -40.353 -49.444  13.361  1.00  0.00     0.166 HD
HETATM   12  C   UNL     1     -38.534 -51.535  13.257  1.00  0.00     0.076 C 
HETATM   13  S   UNL     1     -40.804 -52.802  12.287  1.00  0.00    -0.057 SA
BRANCH   8  14
HETATM   14  C   UNL     1     -42.908 -49.391  12.438  1.00  0.00     0.064 C 
BRANCH  14  15
HETATM   15  C   UNL     1     -42.138 -48.135  11.952  1.00  0.00    -0.017 C 
HETATM   16  C   UNL     1     -41.833 -48.188  10.454  1.00  0.00     0.010 C 
HETATM   17  C   UNL     1     -42.932 -46.862  12.269  1.00  0.00     0.010 C 
ENDBRANCH  14  15
ENDBRANCH   8  14
ENDBRANCH   1   7
BRANCH   4  18
HETATM   18  C   UNL     1     -45.445 -52.784  15.033  1.00  0.00     0.054 C 
HETATM   19  C   UNL     1     -46.739 -52.000  14.754  1.00  0.00     0.041 C 
HETATM   20  C   UNL     1     -44.968 -52.487  16.456  1.00  0.00     0.059 C 
HETATM   21  C   UNL     1     -45.630 -53.547  17.321  1.00  0.00     0.170 C 
HETATM   22  O   UNL     1     -46.187 -54.543  16.459  1.00  0.00    -0.389 OA
HETATM   23  C   UNL     1     -45.723 -54.289  15.126  1.00  0.00     0.198 C 
ENDBRANCH   4  18
TORSDOF 4
ENDMDL
MODEL 6
REMARK VINA RESULT:      -5.3      3.145      6.402
REMARK  4 active torsions:
REMARK  status: ('A' for Active; 'I' for Inactive)
REMARK    1  A    between atoms: C_2  and  C_4 
REMARK    2  A    between atoms: C_4  and  C_5 
REMARK    3  A    between atoms: C_11  and  N_12 
REMARK       I    between atoms: N_12  and  C_13 
REMARK       I    between atoms: C_13  and  N_15 
REMARK    4  A    between atoms: N_15  and  C_16 
ROOT
HETATM    1  N   UNL     1     -41.781 -51.522  11.751  1.00  0.00    -0.301 N 
HETATM    2  C   UNL     1     -40.820 -50.561  11.848  1.00  0.00     0.321 C 
HETATM    3  O   UNL     1     -40.432 -50.002  10.825  1.00  0.00    -0.247 OA
HETATM    4  N   UNL     1     -40.418 -50.193  13.103  1.00  0.00    -0.332 N 
HETATM    5  H   UNL     1     -42.302 -51.463  10.885  1.00  0.00     0.171 HD
HETATM    6  H   UNL     1     -41.112 -50.357  13.819  1.00  0.00     0.165 HD
ENDROOT
BRANCH   1   7
HETATM    7  C   UNL     1     -42.336 -52.241  12.777  1.00  0.00     0.102 C 
HETATM    8  C   UNL     1     -43.544 -52.229  13.446  1.00  0.00     0.044 C 
HETATM    9  N   UNL     1     -43.693 -53.280  14.345  1.00  0.00    -0.355 N 
HETATM   10  C   UNL     1     -42.573 -53.970  14.426  1.00  0.00     0.049 C 
ATOM     11  HN  UNL     1     -44.544 -53.486  14.866  1.00  0.00     0.166 HD
HETATM   12  C   UNL     1     -42.377 -55.162  15.294  1.00  0.00     0.076 C 
HETATM   13  S   UNL     1     -41.286 -53.401  13.448  1.00  0.00    -0.057 SA
BRANCH   8  14
HETATM   14  C   UNL     1     -44.636 -51.196  13.406  1.00  0.00     0.064 C 
BRANCH  14  15
HETATM   15  C   UNL     1     -46.048 -51.835  13.451  1.00  0.00    -0.017 C 
HETATM   16  C   UNL     1     -46.877 -51.326  14.632  1.00  0.00     0.010 C 
HETATM   17  C   UNL     1     -46.802 -51.566  12.143  1.00  0.00     0.010 C 
ENDBRANCH  14  15
ENDBRANCH   8  14
ENDBRANCH   1   7
BRANCH   4  18
HETATM   18  C   UNL     1     -39.513 -49.057  13.326  1.00  0.00     0.054 C 
HETATM   19  C   UNL     1     -38.102 -49.375  12.802  1.00  0.00     0.041 C 
HETATM   20  C   UNL     1     -39.438 -48.713  14.815  1.00  0.00     0.059 C 
HETATM   21  C   UNL     1     -39.235 -47.208  14.860  1.00  0.00     0.170 C 
HETATM   22  O   UNL     1     -39.474 -46.684  13.551  1.00  0.00    -0.389 OA
HETATM   23  C   UNL     1     -40.030 -47.734  12.746  1.00  0.00     0.198 C 
ENDBRANCH   4  18
TORSDOF 4
ENDMDL
MODEL 7
REMARK VINA RESULT:      -5.0      2.823      6.285
REMARK  4 active torsions:
REMARK  status: ('A' for Active; 'I' for Inactive)
REMARK    1  A    between atoms: C_2  and  C_4 
REMARK    2  A    between atoms: C_4  and  C_5 
REMARK    3  A    between atoms: C_11  and  N_12 
REMARK       I    between atoms: N_12  and  C_13 
REMARK       I    between atoms: C_13  and  N_15 
REMARK    4  A    between atoms: N_15  and  C_16 
ROOT
HETATM    1  N   UNL     1     -44.526 -54.213  16.314  1.00  0.00    -0.301 N 
HETATM    2  C   UNL     1     -43.267 -54.223  15.795  1.00  0.00     0.321 C 
HETATM    3  O   UNL     1     -42.644 -55.281  15.765  1.00  0.00    -0.247 OA
HETATM    4  N   UNL     1     -42.806 -53.065  15.231  1.00  0.00    -0.332 N 
HETATM    5  H   UNL     1     -44.943 -55.135  16.340  1.00  0.00     0.171 HD
HETATM    6  H   UNL     1     -43.539 -52.454  14.897  1.00  0.00     0.165 HD
ENDROOT
BRANCH   1   7
HETATM    7  C   UNL     1     -45.367 -53.136  16.422  1.00  0.00     0.102 C 
HETATM    8  C   UNL     1     -46.330 -52.556  15.621  1.00  0.00     0.044 C 
HETATM    9  N   UNL     1     -47.032 -51.531  16.248  1.00  0.00    -0.355 N 
HETATM   10  C   UNL     1     -46.510 -51.281  17.432  1.00  0.00     0.049 C 
ATOM     11  HN  UNL     1     -47.833 -51.043  15.849  1.00  0.00     0.166 HD
HETATM   12  C   UNL     1     -47.011 -50.245  18.374  1.00  0.00     0.076 C 
HETATM   13  S   UNL     1     -45.156 -52.242  17.856  1.00  0.00    -0.057 SA
BRANCH   8  14
HETATM   14  C   UNL     1     -46.632 -52.810  14.170  1.00  0.00     0.064 C 
BRANCH  14  15
HETATM   15  C   UNL     1     -46.433 -51.542  13.300  1.00  0.00    -0.017 C 
HETATM   16  C   UNL     1     -44.981 -51.063  13.298  1.00  0.00     0.010 C 
HETATM   17  C   UNL     1     -46.888 -51.803  11.859  1.00  0.00     0.010 C 
ENDBRANCH  14  15
ENDBRANCH   8  14
ENDBRANCH   1   7
BRANCH   4  18
HETATM   18  C   UNL     1     -41.534 -53.011  14.498  1.00  0.00     0.054 C 
HETATM   19  C   UNL     1     -40.351 -53.281  15.444  1.00  0.00     0.041 C 
HETATM   20  C   UNL     1     -41.352 -51.646  13.832  1.00  0.00     0.059 C 
HETATM   21  C   UNL     1     -40.579 -51.932  12.556  1.00  0.00     0.170 C 
HETATM   22  O   UNL     1     -40.576 -53.346  12.341  1.00  0.00    -0.389 OA
HETATM   23  C   UNL     1     -41.485 -53.940  13.279  1.00  0.00     0.198 C 
ENDBRANCH   4  18
TORSDOF 4
ENDMDL
MODEL 8
REMARK VINA RESULT:      -5.0      2.436      3.834
REMARK  4 active torsions:
REMARK  status: ('A' for Active; 'I' for Inactive)
REMARK    1  A    between atoms: C_2  and  C_4 
REMARK    2  A    between atoms: C_4  and  C_5 
REMARK    3  A    between atoms: C_11  and  N_12 
REMARK       I    between atoms: N_12  and  C_13 
REMARK       I    between atoms: C_13  and  N_15 
REMARK    4  A    between atoms: N_15  and  C_16 
ROOT
HETATM    1  N   UNL     1     -41.829 -50.671  14.820  1.00  0.00    -0.301 N 
HETATM    2  C   UNL     1     -42.310 -51.896  15.171  1.00  0.00     0.321 C 
HETATM    3  O   UNL     1     -42.181 -52.275  16.332  1.00  0.00    -0.247 OA
HETATM    4  N   UNL     1     -43.013 -52.594  14.227  1.00  0.00    -0.332 N 
HETATM    5  H   UNL     1     -41.690 -50.065  15.618  1.00  0.00     0.171 HD
HETATM    6  H   UNL     1     -43.444 -52.010  13.524  1.00  0.00     0.165 HD
ENDROOT
BRANCH   1   7
HETATM    7  C   UNL     1     -41.889 -50.084  13.583  1.00  0.00     0.102 C 
HETATM    8  C   UNL     1     -41.207 -50.230  12.390  1.00  0.00     0.044 C 
HETATM    9  N   UNL     1     -41.744 -49.481  11.348  1.00  0.00    -0.355 N 
HETATM   10  C   UNL     1     -42.713 -48.708  11.795  1.00  0.00     0.049 C 
ATOM     11  HN  UNL     1     -41.432 -49.524  10.378  1.00  0.00     0.166 HD
HETATM   12  C   UNL     1     -43.506 -47.775  10.952  1.00  0.00     0.076 C 
HETATM   13  S   UNL     1     -43.030 -48.824  13.475  1.00  0.00    -0.057 SA
BRANCH   8  14
HETATM   14  C   UNL     1     -39.937 -50.987  12.114  1.00  0.00     0.064 C 
BRANCH  14  15
HETATM   15  C   UNL     1     -38.692 -50.274  12.703  1.00  0.00    -0.017 C 
HETATM   16  C   UNL     1     -37.535 -51.243  12.951  1.00  0.00     0.010 C 
HETATM   17  C   UNL     1     -38.227 -49.149  11.771  1.00  0.00     0.010 C 
ENDBRANCH  14  15
ENDBRANCH   8  14
ENDBRANCH   1   7
BRANCH   4  18
HETATM   18  C   UNL     1     -43.713 -53.845  14.549  1.00  0.00     0.054 C 
HETATM   19  C   UNL     1     -42.714 -54.930  14.987  1.00  0.00     0.041 C 
HETATM   20  C   UNL     1     -44.509 -54.343  13.341  1.00  0.00     0.059 C 
HETATM   21  C   UNL     1     -45.729 -55.030  13.930  1.00  0.00     0.170 C 
HETATM   22  O   UNL     1     -45.800 -54.701  15.320  1.00  0.00    -0.389 OA
HETATM   23  C   UNL     1     -44.831 -53.676  15.586  1.00  0.00     0.198 C 
ENDBRANCH   4  18
TORSDOF 4
ENDMDL
MODEL 9
REMARK VINA RESULT:      -4.9      4.129      5.866
REMARK  4 active torsions:
REMARK  status: ('A' for Active; 'I' for Inactive)
REMARK    1  A    between atoms: C_2  and  C_4 
REMARK    2  A    between atoms: C_4  and  C_5 
REMARK    3  A    between atoms: C_11  and  N_12 
REMARK       I    between atoms: N_12  and  C_13 
REMARK       I    between atoms: C_13  and  N_15 
REMARK    4  A    between atoms: N_15  and  C_16 
ROOT
HETATM    1  N   UNL     1     -41.491 -49.735  11.839  1.00  0.00    -0.301 N 
HETATM    2  C   UNL     1     -41.920 -50.977  12.195  1.00  0.00     0.321 C 
HETATM    3  O   UNL     1     -41.230 -51.951  11.906  1.00  0.00    -0.247 OA
HETATM    4  N   UNL     1     -43.052 -51.061  12.960  1.00  0.00    -0.332 N 
HETATM    5  H   UNL     1     -40.497 -49.708  11.646  1.00  0.00     0.171 HD
HETATM    6  H   UNL     1     -43.237 -50.231  13.508  1.00  0.00     0.165 HD
ENDROOT
BRANCH   1   7
HETATM    7  C   UNL     1     -42.120 -48.542  12.082  1.00  0.00     0.102 C 
HETATM    8  C   UNL     1     -42.952 -47.704  11.365  1.00  0.00     0.044 C 
HETATM    9  N   UNL     1     -43.459 -46.649  12.116  1.00  0.00    -0.355 N 
HETATM   10  C   UNL     1     -42.913 -46.640  13.315  1.00  0.00     0.049 C 
ATOM     11  HN  UNL     1     -44.153 -45.979  11.786  1.00  0.00     0.166 HD
HETATM   12  C   UNL     1     -43.225 -45.647  14.378  1.00  0.00     0.076 C 
HETATM   13  S   UNL     1     -41.763 -47.876  13.609  1.00  0.00    -0.057 SA
BRANCH   8  14
HETATM   14  C   UNL     1     -43.280 -47.727   9.898  1.00  0.00     0.064 C 
BRANCH  14  15
HETATM   15  C   UNL     1     -44.599 -46.976   9.582  1.00  0.00    -0.017 C 
HETATM   16  C   UNL     1     -44.352 -45.652   8.856  1.00  0.00     0.010 C 
HETATM   17  C   UNL     1     -45.530 -47.856   8.739  1.00  0.00     0.010 C 
ENDBRANCH  14  15
ENDBRANCH   8  14
ENDBRANCH   1   7
BRANCH   4  18
HETATM   18  C   UNL     1     -43.508 -52.333  13.535  1.00  0.00     0.054 C 
HETATM   19  C   UNL     1     -42.390 -52.985  14.366  1.00  0.00     0.041 C 
HETATM   20  C   UNL     1     -43.951 -53.296  12.433  1.00  0.00     0.059 C 
HETATM   21  C   UNL     1     -45.077 -54.109  13.050  1.00  0.00     0.170 C 
HETATM   22  O   UNL     1     -45.460 -53.482  14.277  1.00  0.00    -0.389 OA
HETATM   23  C   UNL     1     -44.800 -52.210  14.354  1.00  0.00     0.198 C 
ENDBRANCH   4  18
TORSDOF 4
ENDMDL
