MODEL 1
REMARK VINA RESULT:      -5.4      0.000      0.000
REMARK  3 active torsions:
REMARK  status: ('A' for Active; 'I' for Inactive)
REMARK    1  A    between atoms: C_2  and  C_3 
REMARK    2  A    between atoms: C_2  and  N_10 
REMARK    3  A    between atoms: C_3  and  N_4 
REMARK       I    between atoms: N_10  and  C_11 
REMARK       I    between atoms: C_11  and  N_13 
ROOT
HETATM    1  N   UNL     1     -41.440 -48.239  10.460  1.00  0.00    -0.337 N 
HETATM    2  C   UNL     1     -41.562 -49.215  11.413  1.00  0.00     0.318 C 
HETATM    3  O   UNL     1     -42.596 -49.395  12.046  1.00  0.00    -0.247 OA
HETATM    4  N   UNL     1     -40.429 -50.002  11.549  1.00  0.00    -0.333 N 
HETATM    5  C   UNL     1     -40.520 -51.262  12.295  1.00  0.00     0.137 C 
HETATM    6  C   UNL     1     -39.810 -51.223  13.649  1.00  0.00     0.093 C 
HETATM    7  S   UNL     1     -38.037 -50.815  13.481  1.00  0.00    -0.166 SA
HETATM    8  C   UNL     1     -38.235 -49.294  12.500  1.00  0.00     0.093 C 
HETATM    9  C   UNL     1     -39.065 -49.548  11.238  1.00  0.00     0.137 C 
HETATM   10  H   UNL     1     -40.825 -48.495   9.703  1.00  0.00     0.164 HD
ENDROOT
BRANCH   1  11
HETATM   11  C   UNL     1     -42.506 -47.291  10.109  1.00  0.00     0.102 C 
HETATM   12  C   UNL     1     -41.939 -45.883  10.319  1.00  0.00     0.034 C 
BRANCH  11  13
HETATM   13  C   UNL     1     -43.044 -47.497   8.680  1.00  0.00     0.172 C 
BRANCH  13  14
HETATM   14  N   UNL     1     -44.459 -47.819   8.641  1.00  0.00    -0.302 N 
HETATM   15  C   UNL     1     -45.397 -47.517   9.585  1.00  0.00     0.111 A 
HETATM   16  C   UNL     1     -46.591 -48.002   9.107  1.00  0.00     0.037 A 
HETATM   17  C   UNL     1     -46.267 -48.585   7.869  1.00  0.00     0.108 A 
HETATM   18  N   UNL     1     -44.966 -48.489   7.586  1.00  0.00    -0.310 N 
ATOM     19  HN  UNL     1     -44.472 -48.840   6.766  1.00  0.00     0.186 HD
ENDBRANCH  13  14
ENDBRANCH  11  13
ENDBRANCH   1  11
TORSDOF 3
ENDMDL
MODEL 2
REMARK VINA RESULT:      -5.1      3.388      5.901
REMARK  3 active torsions:
REMARK  status: ('A' for Active; 'I' for Inactive)
REMARK    1  A    between atoms: C_2  and  C_3 
REMARK    2  A    between atoms: C_2  and  N_10 
REMARK    3  A    between atoms: C_3  and  N_4 
REMARK       I    between atoms: N_10  and  C_11 
REMARK       I    between atoms: C_11  and  N_13 
ROOT
HETATM    1  N   UNL     1     -42.181 -49.741  11.967  1.00  0.00    -0.337 N 
HETATM    2  C   UNL     1     -41.961 -51.060  12.263  1.00  0.00     0.318 C 
HETATM    3  O   UNL     1     -41.050 -51.706  11.760  1.00  0.00    -0.247 OA
HETATM    4  N   UNL     1     -42.829 -51.566  13.218  1.00  0.00    -0.333 N 
HETATM    5  C   UNL     1     -42.521 -52.851  13.854  1.00  0.00     0.137 C 
HETATM    6  C   UNL     1     -43.444 -53.988  13.414  1.00  0.00     0.093 C 
HETATM    7  S   UNL     1     -45.200 -53.616  13.757  1.00  0.00    -0.166 SA
HETATM    8  C   UNL     1     -45.267 -51.999  12.924  1.00  0.00     0.093 C 
HETATM    9  C   UNL     1     -44.187 -51.052  13.455  1.00  0.00     0.137 C 
HETATM   10  H   UNL     1     -42.551 -49.213  12.742  1.00  0.00     0.164 HD
ENDROOT
BRANCH   1  11
HETATM   11  C   UNL     1     -41.382 -48.967  11.007  1.00  0.00     0.102 C 
HETATM   12  C   UNL     1     -42.345 -48.013  10.291  1.00  0.00     0.034 C 
BRANCH  11  13
HETATM   13  C   UNL     1     -40.207 -48.222  11.670  1.00  0.00     0.172 C 
BRANCH  13  14
HETATM   14  N   UNL     1     -39.088 -49.089  11.993  1.00  0.00    -0.302 N 
HETATM   15  C   UNL     1     -38.490 -49.241  13.209  1.00  0.00     0.111 A 
HETATM   16  C   UNL     1     -37.497 -50.175  13.034  1.00  0.00     0.037 A 
HETATM   17  C   UNL     1     -37.574 -50.523  11.674  1.00  0.00     0.108 A 
HETATM   18  N   UNL     1     -38.533 -49.854  11.030  1.00  0.00    -0.310 N 
ATOM     19  HN  UNL     1     -38.786 -49.908  10.043  1.00  0.00     0.186 HD
ENDBRANCH  13  14
ENDBRANCH  11  13
ENDBRANCH   1  11
TORSDOF 3
ENDMDL
MODEL 3
REMARK VINA RESULT:      -5.0      3.992      5.419
REMARK  3 active torsions:
REMARK  status: ('A' for Active; 'I' for Inactive)
REMARK    1  A    between atoms: C_2  and  C_3 
REMARK    2  A    between atoms: C_2  and  N_10 
REMARK    3  A    between atoms: C_3  and  N_4 
REMARK       I    between atoms: N_10  and  C_11 
REMARK       I    between atoms: C_11  and  N_13 
ROOT
HETATM    1  N   UNL     1     -42.607 -52.396  12.807  1.00  0.00    -0.337 N 
HETATM    2  C   UNL     1     -41.438 -51.922  12.272  1.00  0.00     0.318 C 
HETATM    3  O   UNL     1     -40.505 -52.657  11.970  1.00  0.00    -0.247 OA
HETATM    4  N   UNL     1     -41.441 -50.553  12.060  1.00  0.00    -0.333 N 
HETATM    5  C   UNL     1     -40.397 -49.959  11.218  1.00  0.00     0.137 C 
HETATM    6  C   UNL     1     -39.373 -49.136  12.002  1.00  0.00     0.093 C 
HETATM    7  S   UNL     1     -40.158 -47.778  12.939  1.00  0.00    -0.166 SA
HETATM    8  C   UNL     1     -41.402 -48.780  13.814  1.00  0.00     0.093 C 
HETATM    9  C   UNL     1     -42.249 -49.598  12.834  1.00  0.00     0.137 C 
HETATM   10  H   UNL     1     -43.417 -51.859  12.537  1.00  0.00     0.164 HD
ENDROOT
BRANCH   1  11
HETATM   11  C   UNL     1     -42.864 -53.812  13.103  1.00  0.00     0.102 C 
HETATM   12  C   UNL     1     -42.384 -54.063  14.537  1.00  0.00     0.034 C 
BRANCH  11  13
HETATM   13  C   UNL     1     -44.340 -54.207  12.903  1.00  0.00     0.172 C 
BRANCH  13  14
HETATM   14  N   UNL     1     -45.260 -53.103  13.108  1.00  0.00    -0.302 N 
HETATM   15  C   UNL     1     -45.680 -52.593  14.301  1.00  0.00     0.111 A 
HETATM   16  C   UNL     1     -46.524 -51.552  13.998  1.00  0.00     0.037 A 
HETATM   17  C   UNL     1     -46.553 -51.517  12.592  1.00  0.00     0.108 A 
HETATM   18  N   UNL     1     -45.795 -52.469  12.044  1.00  0.00    -0.310 N 
ATOM     19  HN  UNL     1     -45.654 -52.671  11.053  1.00  0.00     0.186 HD
ENDBRANCH  13  14
ENDBRANCH  11  13
ENDBRANCH   1  11
TORSDOF 3
ENDMDL
MODEL 4
REMARK VINA RESULT:      -5.0      2.138      2.920
REMARK  3 active torsions:
REMARK  status: ('A' for Active; 'I' for Inactive)
REMARK    1  A    between atoms: C_2  and  C_3 
REMARK    2  A    between atoms: C_2  and  N_10 
REMARK    3  A    between atoms: C_3  and  N_4 
REMARK       I    between atoms: N_10  and  C_11 
REMARK       I    between atoms: C_11  and  N_13 
ROOT
HETATM    1  N   UNL     1     -41.228 -50.143  12.219  1.00  0.00    -0.337 N 
HETATM    2  C   UNL     1     -41.611 -51.425  12.512  1.00  0.00     0.318 C 
HETATM    3  O   UNL     1     -42.776 -51.798  12.441  1.00  0.00    -0.247 OA
HETATM    4  N   UNL     1     -40.554 -52.259  12.841  1.00  0.00    -0.333 N 
HETATM    5  C   UNL     1     -40.772 -53.709  12.874  1.00  0.00     0.137 C 
HETATM    6  C   UNL     1     -40.769 -54.297  14.286  1.00  0.00     0.093 C 
HETATM    7  S   UNL     1     -39.203 -53.959  15.165  1.00  0.00    -0.166 SA
HETATM    8  C   UNL     1     -39.174 -52.155  14.916  1.00  0.00     0.093 C 
HETATM    9  C   UNL     1     -39.289 -51.795  13.432  1.00  0.00     0.137 C 
HETATM   10  H   UNL     1     -40.305 -50.085  11.817  1.00  0.00     0.164 HD
ENDROOT
BRANCH   1  11
HETATM   11  C   UNL     1     -42.155 -49.077  11.817  1.00  0.00     0.102 C 
HETATM   12  C   UNL     1     -42.613 -48.377  13.102  1.00  0.00     0.034 C 
BRANCH  11  13
HETATM   13  C   UNL     1     -41.534 -48.093  10.806  1.00  0.00     0.172 C 
BRANCH  13  14
HETATM   14  N   UNL     1     -42.492 -47.583   9.842  1.00  0.00    -0.302 N 
HETATM   15  C   UNL     1     -43.244 -46.450   9.949  1.00  0.00     0.111 A 
HETATM   16  C   UNL     1     -43.983 -46.369   8.794  1.00  0.00     0.037 A 
HETATM   17  C   UNL     1     -43.610 -47.505   8.054  1.00  0.00     0.108 A 
HETATM   18  N   UNL     1     -42.712 -48.257   8.694  1.00  0.00    -0.310 N 
ATOM     19  HN  UNL     1     -42.291 -49.134   8.387  1.00  0.00     0.186 HD
ENDBRANCH  13  14
ENDBRANCH  11  13
ENDBRANCH   1  11
TORSDOF 3
ENDMDL
MODEL 5
REMARK VINA RESULT:      -4.9      2.293      4.235
REMARK  3 active torsions:
REMARK  status: ('A' for Active; 'I' for Inactive)
REMARK    1  A    between atoms: C_2  and  C_3 
REMARK    2  A    between atoms: C_2  and  N_10 
REMARK    3  A    between atoms: C_3  and  N_4 
REMARK       I    between atoms: N_10  and  C_11 
REMARK       I    between atoms: C_11  and  N_13 
ROOT
HETATM    1  N   UNL     1     -42.860 -48.424  11.244  1.00  0.00    -0.337 N 
HETATM    2  C   UNL     1     -41.673 -49.029  11.562  1.00  0.00     0.318 C 
HETATM    3  O   UNL     1     -40.620 -48.755  10.999  1.00  0.00    -0.247 OA
HETATM    4  N   UNL     1     -41.774 -49.931  12.610  1.00  0.00    -0.333 N 
HETATM    5  C   UNL     1     -40.550 -50.415  13.257  1.00  0.00     0.137 C 
HETATM    6  C   UNL     1     -40.229 -51.877  12.943  1.00  0.00     0.093 C 
HETATM    7  S   UNL     1     -41.586 -52.997  13.435  1.00  0.00    -0.166 SA
HETATM    8  C   UNL     1     -42.932 -52.140  12.558  1.00  0.00     0.093 C 
HETATM    9  C   UNL     1     -43.004 -50.662  12.955  1.00  0.00     0.137 C 
HETATM   10  H   UNL     1     -43.480 -48.319  12.032  1.00  0.00     0.164 HD
ENDROOT
BRANCH   1  11
HETATM   11  C   UNL     1     -43.012 -47.413  10.189  1.00  0.00     0.102 C 
HETATM   12  C   UNL     1     -44.344 -47.700   9.485  1.00  0.00     0.034 C 
BRANCH  11  13
HETATM   13  C   UNL     1     -42.935 -45.971  10.726  1.00  0.00     0.172 C 
BRANCH  13  14
HETATM   14  N   UNL     1     -41.582 -45.444  10.759  1.00  0.00    -0.302 N 
HETATM   15  C   UNL     1     -41.104 -44.458  11.570  1.00  0.00     0.111 A 
HETATM   16  C   UNL     1     -39.774 -44.315  11.257  1.00  0.00     0.037 A 
HETATM   17  C   UNL     1     -39.546 -45.259  10.240  1.00  0.00     0.108 A 
HETATM   18  N   UNL     1     -40.649 -45.940   9.922  1.00  0.00    -0.310 N 
ATOM     19  HN  UNL     1     -40.759 -46.665   9.212  1.00  0.00     0.186 HD
ENDBRANCH  13  14
ENDBRANCH  11  13
ENDBRANCH   1  11
TORSDOF 3
ENDMDL
MODEL 6
REMARK VINA RESULT:      -4.9      3.763      5.648
REMARK  3 active torsions:
REMARK  status: ('A' for Active; 'I' for Inactive)
REMARK    1  A    between atoms: C_2  and  C_3 
REMARK    2  A    between atoms: C_2  and  N_10 
REMARK    3  A    between atoms: C_3  and  N_4 
REMARK       I    between atoms: N_10  and  C_11 
REMARK       I    between atoms: C_11  and  N_13 
ROOT
HETATM    1  N   UNL     1     -41.814 -51.915  12.871  1.00  0.00    -0.337 N 
HETATM    2  C   UNL     1     -43.147 -51.612  12.960  1.00  0.00     0.318 C 
HETATM    3  O   UNL     1     -43.557 -50.460  13.047  1.00  0.00    -0.247 OA
HETATM    4  N   UNL     1     -43.975 -52.721  12.891  1.00  0.00    -0.333 N 
HETATM    5  C   UNL     1     -45.410 -52.527  12.662  1.00  0.00     0.137 C 
HETATM    6  C   UNL     1     -46.271 -52.826  13.891  1.00  0.00     0.093 C 
HETATM    7  S   UNL     1     -46.039 -54.536  14.491  1.00  0.00    -0.166 SA
HETATM    8  C   UNL     1     -44.224 -54.497  14.623  1.00  0.00     0.093 C 
HETATM    9  C   UNL     1     -43.576 -54.076  13.300  1.00  0.00     0.137 C 
HETATM   10  H   UNL     1     -41.628 -52.736  12.314  1.00  0.00     0.164 HD
ENDROOT
BRANCH   1  11
HETATM   11  C   UNL     1     -40.737 -50.916  12.895  1.00  0.00     0.102 C 
HETATM   12  C   UNL     1     -39.538 -51.570  13.591  1.00  0.00     0.034 C 
BRANCH  11  13
HETATM   13  C   UNL     1     -40.381 -50.388  11.492  1.00  0.00     0.172 C 
BRANCH  13  14
HETATM   14  N   UNL     1     -40.884 -49.049  11.240  1.00  0.00    -0.302 N 
HETATM   15  C   UNL     1     -40.236 -47.871  11.468  1.00  0.00     0.111 A 
HETATM   16  C   UNL     1     -41.093 -46.877  11.061  1.00  0.00     0.037 A 
HETATM   17  C   UNL     1     -42.236 -47.558  10.606  1.00  0.00     0.108 A 
HETATM   18  N   UNL     1     -42.120 -48.883  10.726  1.00  0.00    -0.310 N 
ATOM     19  HN  UNL     1     -42.805 -49.600  10.486  1.00  0.00     0.186 HD
ENDBRANCH  13  14
ENDBRANCH  11  13
ENDBRANCH   1  11
TORSDOF 3
ENDMDL
MODEL 7
REMARK VINA RESULT:      -4.8      3.385      6.184
REMARK  3 active torsions:
REMARK  status: ('A' for Active; 'I' for Inactive)
REMARK    1  A    between atoms: C_2  and  C_3 
REMARK    2  A    between atoms: C_2  and  N_10 
REMARK    3  A    between atoms: C_3  and  N_4 
REMARK       I    between atoms: N_10  and  C_11 
REMARK       I    between atoms: C_11  and  N_13 
ROOT
HETATM    1  N   UNL     1     -43.562 -50.468  12.468  1.00  0.00    -0.337 N 
HETATM    2  C   UNL     1     -42.265 -50.034  12.536  1.00  0.00     0.318 C 
HETATM    3  O   UNL     1     -41.444 -50.524  13.302  1.00  0.00    -0.247 OA
HETATM    4  N   UNL     1     -41.966 -49.033  11.625  1.00  0.00    -0.333 N 
HETATM    5  C   UNL     1     -40.562 -48.694  11.371  1.00  0.00     0.137 C 
HETATM    6  C   UNL     1     -40.146 -47.338  11.945  1.00  0.00     0.093 C 
HETATM    7  S   UNL     1     -41.165 -45.974  11.284  1.00  0.00    -0.166 SA
HETATM    8  C   UNL     1     -42.796 -46.682  11.678  1.00  0.00     0.093 C 
HETATM    9  C   UNL     1     -42.953 -48.085  11.085  1.00  0.00     0.137 C 
HETATM   10  H   UNL     1     -43.959 -50.397  11.544  1.00  0.00     0.164 HD
ENDROOT
BRANCH   1  11
HETATM   11  C   UNL     1     -44.119 -51.535  13.310  1.00  0.00     0.102 C 
HETATM   12  C   UNL     1     -45.620 -51.254  13.451  1.00  0.00     0.034 C 
BRANCH  11  13
HETATM   13  C   UNL     1     -43.839 -52.944  12.752  1.00  0.00     0.172 C 
BRANCH  13  14
HETATM   14  N   UNL     1     -42.603 -53.521  13.250  1.00  0.00    -0.302 N 
HETATM   15  C   UNL     1     -42.372 -54.018  14.499  1.00  0.00     0.111 A 
HETATM   16  C   UNL     1     -41.074 -54.469  14.499  1.00  0.00     0.037 A 
HETATM   17  C   UNL     1     -40.604 -54.194  13.202  1.00  0.00     0.108 A 
HETATM   18  N   UNL     1     -41.527 -53.602  12.441  1.00  0.00    -0.310 N 
ATOM     19  HN  UNL     1     -41.440 -53.286  11.475  1.00  0.00     0.186 HD
ENDBRANCH  13  14
ENDBRANCH  11  13
ENDBRANCH   1  11
TORSDOF 3
ENDMDL
MODEL 8
REMARK VINA RESULT:      -4.7      1.721      2.200
REMARK  3 active torsions:
REMARK  status: ('A' for Active; 'I' for Inactive)
REMARK    1  A    between atoms: C_2  and  C_3 
REMARK    2  A    between atoms: C_2  and  N_10 
REMARK    3  A    between atoms: C_3  and  N_4 
REMARK       I    between atoms: N_10  and  C_11 
REMARK       I    between atoms: C_11  and  N_13 
ROOT
HETATM    1  N   UNL     1     -40.487 -47.968  11.974  1.00  0.00    -0.337 N 
HETATM    2  C   UNL     1     -41.177 -49.151  12.019  1.00  0.00     0.318 C 
HETATM    3  O   UNL     1     -42.395 -49.209  11.904  1.00  0.00    -0.247 OA
HETATM    4  N   UNL     1     -40.361 -50.264  12.151  1.00  0.00    -0.333 N 
HETATM    5  C   UNL     1     -40.924 -51.595  11.903  1.00  0.00     0.137 C 
HETATM    6  C   UNL     1     -41.098 -52.432  13.171  1.00  0.00     0.093 C 
HETATM    7  S   UNL     1     -39.519 -52.664  14.061  1.00  0.00    -0.166 SA
HETATM    8  C   UNL     1     -39.048 -50.909  14.171  1.00  0.00     0.093 C 
HETATM    9  C   UNL     1     -39.036 -50.246  12.790  1.00  0.00     0.137 C 
HETATM   10  H   UNL     1     -39.568 -48.057  11.569  1.00  0.00     0.164 HD
ENDROOT
BRANCH   1  11
HETATM   11  C   UNL     1     -41.118 -46.651  11.814  1.00  0.00     0.102 C 
HETATM   12  C   UNL     1     -40.348 -45.675  12.710  1.00  0.00     0.034 C 
BRANCH  11  13
HETATM   13  C   UNL     1     -41.164 -46.184  10.346  1.00  0.00     0.172 C 
BRANCH  13  14
HETATM   14  N   UNL     1     -42.436 -46.453   9.700  1.00  0.00    -0.302 N 
HETATM   15  C   UNL     1     -43.492 -45.599   9.578  1.00  0.00     0.111 A 
HETATM   16  C   UNL     1     -44.459 -46.281   8.879  1.00  0.00     0.037 A 
HETATM   17  C   UNL     1     -43.891 -47.544   8.629  1.00  0.00     0.108 A 
HETATM   18  N   UNL     1     -42.662 -47.659   9.140  1.00  0.00    -0.310 N 
ATOM     19  HN  UNL     1     -42.042 -48.468   9.113  1.00  0.00     0.186 HD
ENDBRANCH  13  14
ENDBRANCH  11  13
ENDBRANCH   1  11
TORSDOF 3
ENDMDL
MODEL 9
REMARK VINA RESULT:      -4.7      3.422      5.317
REMARK  3 active torsions:
REMARK  status: ('A' for Active; 'I' for Inactive)
REMARK    1  A    between atoms: C_2  and  C_3 
REMARK    2  A    between atoms: C_2  and  N_10 
REMARK    3  A    between atoms: C_3  and  N_4 
REMARK       I    between atoms: N_10  and  C_11 
REMARK       I    between atoms: C_11  and  N_13 
ROOT
HETATM    1  N   UNL     1     -37.978 -49.503  13.319  1.00  0.00    -0.337 N 
HETATM    2  C   UNL     1     -38.008 -48.493  14.244  1.00  0.00     0.318 C 
HETATM    3  O   UNL     1     -38.303 -47.340  13.953  1.00  0.00    -0.247 OA
HETATM    4  N   UNL     1     -37.726 -48.914  15.534  1.00  0.00    -0.333 N 
HETATM    5  C   UNL     1     -38.022 -48.020  16.658  1.00  0.00     0.137 C 
HETATM    6  C   UNL     1     -36.773 -47.434  17.319  1.00  0.00     0.093 C 
HETATM    7  S   UNL     1     -35.650 -48.736  17.938  1.00  0.00    -0.166 SA
HETATM    8  C   UNL     1     -35.515 -49.688  16.392  1.00  0.00     0.093 C 
HETATM    9  C   UNL     1     -36.895 -50.085  15.858  1.00  0.00     0.137 C 
HETATM   10  H   UNL     1     -38.238 -50.400  13.699  1.00  0.00     0.164 HD
ENDROOT
BRANCH   1  11
HETATM   11  C   UNL     1     -38.266 -49.320  11.890  1.00  0.00     0.102 C 
HETATM   12  C   UNL     1     -37.305 -50.234  11.121  1.00  0.00     0.034 C 
BRANCH  11  13
HETATM   13  C   UNL     1     -39.740 -49.594  11.536  1.00  0.00     0.172 C 
BRANCH  13  14
HETATM   14  N   UNL     1     -40.464 -48.401  11.136  1.00  0.00    -0.302 N 
HETATM   15  C   UNL     1     -41.759 -48.328  10.715  1.00  0.00     0.111 A 
HETATM   16  C   UNL     1     -42.007 -46.999  10.468  1.00  0.00     0.037 A 
HETATM   17  C   UNL     1     -40.795 -46.351  10.765  1.00  0.00     0.108 A 
HETATM   18  N   UNL     1     -39.846 -47.202  11.160  1.00  0.00    -0.310 N 
ATOM     19  HN  UNL     1     -38.881 -46.995  11.418  1.00  0.00     0.186 HD
ENDBRANCH  13  14
ENDBRANCH  11  13
ENDBRANCH   1  11
TORSDOF 3
ENDMDL
