MODEL 1
REMARK VINA RESULT:      -5.7      0.000      0.000
REMARK  3 active torsions:
REMARK  status: ('A' for Active; 'I' for Inactive)
REMARK       I    between atoms: N_7  and  C_8 
REMARK       I    between atoms: C_8  and  N_10 
REMARK    1  A    between atoms: N_10  and  C_11 
REMARK    2  A    between atoms: C_11  and  C_12 
REMARK    3  A    between atoms: C_12  and  C_13 
ROOT
HETATM    1  C   UNL     1     -45.362 -51.174  14.632  1.00  0.00     0.034 C 
HETATM    2  C   UNL     1     -44.897 -51.380  13.187  1.00  0.00     0.108 C 
HETATM    3  C   UNL     1     -45.780 -52.419  12.461  1.00  0.00     0.192 C 
HETATM    4  O   UNL     1     -45.593 -53.739  12.999  1.00  0.00    -0.388 OA
HETATM    5  C   UNL     1     -44.225 -54.155  12.849  1.00  0.00     0.187 C 
HETATM    6  C   UNL     1     -43.276 -53.206  13.585  1.00  0.00     0.154 C 
HETATM    7  N   UNL     1     -43.483 -51.820  13.147  1.00  0.00    -0.326 N 
HETATM    8  C   UNL     1     -42.457 -51.196  12.464  1.00  0.00     0.318 C 
HETATM    9  O   UNL     1     -41.401 -51.759  12.184  1.00  0.00    -0.247 OA
HETATM   10  N   UNL     1     -42.689 -49.896  12.108  1.00  0.00    -0.343 N 
HETATM   11  H   UNL     1     -43.332 -49.377  12.683  1.00  0.00     0.164 HD
ENDROOT
BRANCH  10  12
HETATM   12  C   UNL     1     -41.674 -49.120  11.410  1.00  0.00     0.129 C 
BRANCH  12  13
HETATM   13  C   UNL     1     -42.116 -47.683  11.102  1.00  0.00     0.061 C 
BRANCH  13  14
HETATM   14  C   UNL     1     -43.249 -47.631  10.133  1.00  0.00    -0.023 A 
HETATM   15  C   UNL     1     -43.173 -47.679   8.721  1.00  0.00     0.115 A 
HETATM   16  N   UNL     1     -44.376 -47.635   8.142  1.00  0.00    -0.310 N 
HETATM   17  N   UNL     1     -45.224 -47.529   9.180  1.00  0.00    -0.308 N 
ATOM     18  HN  UNL     1     -44.598 -47.672   7.148  1.00  0.00     0.186 HD
HETATM   19  C   UNL     1     -46.645 -47.436   8.950  1.00  0.00     0.177 C 
HETATM   20  C   UNL     1     -44.598 -47.529  10.393  1.00  0.00     0.118 A 
ENDBRANCH  13  14
ENDBRANCH  12  13
ENDBRANCH  10  12
TORSDOF 3
ENDMDL
MODEL 2
REMARK VINA RESULT:      -5.4      1.512      1.923
REMARK  3 active torsions:
REMARK  status: ('A' for Active; 'I' for Inactive)
REMARK       I    between atoms: N_7  and  C_8 
REMARK       I    between atoms: C_8  and  N_10 
REMARK    1  A    between atoms: N_10  and  C_11 
REMARK    2  A    between atoms: C_11  and  C_12 
REMARK    3  A    between atoms: C_12  and  C_13 
ROOT
HETATM    1  C   UNL     1     -45.134 -51.206  14.582  1.00  0.00     0.034 C 
HETATM    2  C   UNL     1     -44.679 -51.636  13.183  1.00  0.00     0.108 C 
HETATM    3  C   UNL     1     -45.740 -52.530  12.504  1.00  0.00     0.192 C 
HETATM    4  O   UNL     1     -45.856 -53.804  13.158  1.00  0.00    -0.388 OA
HETATM    5  C   UNL     1     -44.604 -54.510  13.111  1.00  0.00     0.187 C 
HETATM    6  C   UNL     1     -43.498 -53.717  13.812  1.00  0.00     0.154 C 
HETATM    7  N   UNL     1     -43.391 -52.365  13.250  1.00  0.00    -0.326 N 
HETATM    8  C   UNL     1     -42.235 -52.035  12.569  1.00  0.00     0.318 C 
HETATM    9  O   UNL     1     -41.315 -52.830  12.390  1.00  0.00    -0.247 OA
HETATM   10  N   UNL     1     -42.173 -50.753  12.096  1.00  0.00    -0.343 N 
HETATM   11  H   UNL     1     -42.708 -50.061  12.593  1.00  0.00     0.164 HD
ENDROOT
BRANCH  10  12
HETATM   12  C   UNL     1     -40.995 -50.275  11.387  1.00  0.00     0.129 C 
BRANCH  12  13
HETATM   13  C   UNL     1     -40.563 -48.866  11.811  1.00  0.00     0.061 C 
BRANCH  13  14
HETATM   14  C   UNL     1     -41.190 -47.801  10.974  1.00  0.00    -0.023 A 
HETATM   15  C   UNL     1     -40.720 -46.484  10.766  1.00  0.00     0.115 A 
HETATM   16  N   UNL     1     -41.501 -45.785   9.939  1.00  0.00    -0.310 N 
HETATM   17  N   UNL     1     -42.490 -46.644   9.635  1.00  0.00    -0.308 N 
ATOM     18  HN  UNL     1     -41.377 -44.827   9.614  1.00  0.00     0.186 HD
HETATM   19  C   UNL     1     -43.561 -46.238   8.759  1.00  0.00     0.177 C 
HETATM   20  C   UNL     1     -42.345 -47.867  10.225  1.00  0.00     0.118 A 
ENDBRANCH  13  14
ENDBRANCH  12  13
ENDBRANCH  10  12
TORSDOF 3
ENDMDL
MODEL 3
REMARK VINA RESULT:      -5.3      3.967      6.580
REMARK  3 active torsions:
REMARK  status: ('A' for Active; 'I' for Inactive)
REMARK       I    between atoms: N_7  and  C_8 
REMARK       I    between atoms: C_8  and  N_10 
REMARK    1  A    between atoms: N_10  and  C_11 
REMARK    2  A    between atoms: C_11  and  C_12 
REMARK    3  A    between atoms: C_12  and  C_13 
ROOT
HETATM    1  C   UNL     1     -38.859 -50.051  15.023  1.00  0.00     0.034 C 
HETATM    2  C   UNL     1     -38.683 -51.092  13.912  1.00  0.00     0.108 C 
HETATM    3  C   UNL     1     -37.359 -50.870  13.148  1.00  0.00     0.192 C 
HETATM    4  O   UNL     1     -37.388 -49.655  12.381  1.00  0.00    -0.388 OA
HETATM    5  C   UNL     1     -38.446 -49.698  11.408  1.00  0.00     0.187 C 
HETATM    6  C   UNL     1     -39.809 -49.865  12.084  1.00  0.00     0.154 C 
HETATM    7  N   UNL     1     -39.816 -51.043  12.960  1.00  0.00    -0.326 N 
HETATM    8  C   UNL     1     -40.636 -52.101  12.617  1.00  0.00     0.318 C 
HETATM    9  O   UNL     1     -41.329 -52.107  11.603  1.00  0.00    -0.247 OA
HETATM   10  N   UNL     1     -40.630 -53.158  13.485  1.00  0.00    -0.343 N 
HETATM   11  H   UNL     1     -40.402 -52.956  14.444  1.00  0.00     0.164 HD
ENDROOT
BRANCH  10  12
HETATM   12  C   UNL     1     -41.472 -54.322  13.251  1.00  0.00     0.129 C 
BRANCH  12  13
HETATM   13  C   UNL     1     -42.524 -54.538  14.346  1.00  0.00     0.061 C 
BRANCH  13  14
HETATM   14  C   UNL     1     -43.890 -54.121  13.913  1.00  0.00    -0.023 A 
HETATM   15  C   UNL     1     -45.092 -54.856  14.039  1.00  0.00     0.115 A 
HETATM   16  N   UNL     1     -46.152 -54.190  13.574  1.00  0.00    -0.310 N 
HETATM   17  N   UNL     1     -45.628 -53.036  13.123  1.00  0.00    -0.308 N 
ATOM     18  HN  UNL     1     -47.127 -54.485  13.563  1.00  0.00     0.186 HD
HETATM   19  C   UNL     1     -46.478 -52.040  12.518  1.00  0.00     0.177 C 
HETATM   20  C   UNL     1     -44.279 -52.945  13.309  1.00  0.00     0.118 A 
ENDBRANCH  13  14
ENDBRANCH  12  13
ENDBRANCH  10  12
TORSDOF 3
ENDMDL
MODEL 4
REMARK VINA RESULT:      -5.3      1.868      2.373
REMARK  3 active torsions:
REMARK  status: ('A' for Active; 'I' for Inactive)
REMARK       I    between atoms: N_7  and  C_8 
REMARK       I    between atoms: C_8  and  N_10 
REMARK    1  A    between atoms: N_10  and  C_11 
REMARK    2  A    between atoms: C_11  and  C_12 
REMARK    3  A    between atoms: C_12  and  C_13 
ROOT
HETATM    1  C   UNL     1     -44.685 -53.321  16.928  1.00  0.00     0.034 C 
HETATM    2  C   UNL     1     -44.988 -52.844  15.504  1.00  0.00     0.108 C 
HETATM    3  C   UNL     1     -46.377 -53.335  15.037  1.00  0.00     0.192 C 
HETATM    4  O   UNL     1     -46.402 -54.761  14.859  1.00  0.00    -0.388 OA
HETATM    5  C   UNL     1     -45.446 -55.161  13.863  1.00  0.00     0.187 C 
HETATM    6  C   UNL     1     -44.026 -54.760  14.269  1.00  0.00     0.154 C 
HETATM    7  N   UNL     1     -43.953 -53.322  14.558  1.00  0.00    -0.326 N 
HETATM    8  C   UNL     1     -43.189 -52.531  13.722  1.00  0.00     0.318 C 
HETATM    9  O   UNL     1     -42.599 -52.973  12.739  1.00  0.00    -0.247 OA
HETATM   10  N   UNL     1     -43.128 -51.206  14.054  1.00  0.00    -0.343 N 
HETATM   11  H   UNL     1     -43.256 -50.977  15.026  1.00  0.00     0.164 HD
ENDROOT
BRANCH  10  12
HETATM   12  C   UNL     1     -42.333 -50.274  13.269  1.00  0.00     0.129 C 
BRANCH  12  13
HETATM   13  C   UNL     1     -43.043 -48.939  13.011  1.00  0.00     0.061 C 
BRANCH  13  14
HETATM   14  C   UNL     1     -42.839 -48.445  11.618  1.00  0.00    -0.023 A 
HETATM   15  C   UNL     1     -41.683 -48.592  10.816  1.00  0.00     0.115 A 
HETATM   16  N   UNL     1     -41.830 -48.056   9.602  1.00  0.00    -0.310 N 
HETATM   17  N   UNL     1     -43.071 -47.539   9.631  1.00  0.00    -0.308 N 
ATOM     18  HN  UNL     1     -41.159 -48.041   8.834  1.00  0.00     0.186 HD
HETATM   19  C   UNL     1     -43.596 -46.845   8.481  1.00  0.00     0.177 C 
HETATM   20  C   UNL     1     -43.718 -47.752  10.814  1.00  0.00     0.118 A 
ENDBRANCH  13  14
ENDBRANCH  12  13
ENDBRANCH  10  12
TORSDOF 3
ENDMDL
MODEL 5
REMARK VINA RESULT:      -5.1      2.006      2.505
REMARK  3 active torsions:
REMARK  status: ('A' for Active; 'I' for Inactive)
REMARK       I    between atoms: N_7  and  C_8 
REMARK       I    between atoms: C_8  and  N_10 
REMARK    1  A    between atoms: N_10  and  C_11 
REMARK    2  A    between atoms: C_11  and  C_12 
REMARK    3  A    between atoms: C_12  and  C_13 
ROOT
HETATM    1  C   UNL     1     -45.658 -51.312  14.680  1.00  0.00     0.034 C 
HETATM    2  C   UNL     1     -45.095 -51.464  13.262  1.00  0.00     0.108 C 
HETATM    3  C   UNL     1     -45.897 -52.509  12.455  1.00  0.00     0.192 C 
HETATM    4  O   UNL     1     -45.704 -53.837  12.970  1.00  0.00    -0.388 OA
HETATM    5  C   UNL     1     -44.317 -54.208  12.898  1.00  0.00     0.187 C 
HETATM    6  C   UNL     1     -43.447 -53.251  13.717  1.00  0.00     0.154 C 
HETATM    7  N   UNL     1     -43.669 -51.861  13.302  1.00  0.00    -0.326 N 
HETATM    8  C   UNL     1     -42.621 -51.188  12.702  1.00  0.00     0.318 C 
HETATM    9  O   UNL     1     -41.533 -51.712  12.477  1.00  0.00    -0.247 OA
HETATM   10  N   UNL     1     -42.870 -49.886  12.366  1.00  0.00    -0.343 N 
HETATM   11  H   UNL     1     -43.565 -49.403  12.911  1.00  0.00     0.164 HD
ENDROOT
BRANCH  10  12
HETATM   12  C   UNL     1     -41.839 -49.062  11.754  1.00  0.00     0.129 C 
BRANCH  12  13
HETATM   13  C   UNL     1     -42.373 -48.148  10.644  1.00  0.00     0.061 C 
BRANCH  13  14
HETATM   14  C   UNL     1     -42.489 -46.726  11.084  1.00  0.00    -0.023 A 
HETATM   15  C   UNL     1     -42.704 -45.590  10.270  1.00  0.00     0.115 A 
HETATM   16  N   UNL     1     -42.784 -44.461  10.977  1.00  0.00    -0.310 N 
HETATM   17  N   UNL     1     -42.593 -44.865  12.244  1.00  0.00    -0.308 N 
ATOM     18  HN  UNL     1     -42.951 -43.514  10.636  1.00  0.00     0.186 HD
HETATM   19  C   UNL     1     -42.592 -43.906  13.321  1.00  0.00     0.177 C 
HETATM   20  C   UNL     1     -42.418 -46.214  12.362  1.00  0.00     0.118 A 
ENDBRANCH  13  14
ENDBRANCH  12  13
ENDBRANCH  10  12
TORSDOF 3
ENDMDL
MODEL 6
REMARK VINA RESULT:      -5.1      2.498      3.459
REMARK  3 active torsions:
REMARK  status: ('A' for Active; 'I' for Inactive)
REMARK       I    between atoms: N_7  and  C_8 
REMARK       I    between atoms: C_8  and  N_10 
REMARK    1  A    between atoms: N_10  and  C_11 
REMARK    2  A    between atoms: C_11  and  C_12 
REMARK    3  A    between atoms: C_12  and  C_13 
ROOT
HETATM    1  C   UNL     1     -45.404 -51.394  14.537  1.00  0.00     0.034 C 
HETATM    2  C   UNL     1     -44.333 -52.116  13.713  1.00  0.00     0.108 C 
HETATM    3  C   UNL     1     -44.971 -52.956  12.585  1.00  0.00     0.192 C 
HETATM    4  O   UNL     1     -45.711 -54.071  13.109  1.00  0.00    -0.388 OA
HETATM    5  C   UNL     1     -44.846 -54.942  13.857  1.00  0.00     0.187 C 
HETATM    6  C   UNL     1     -44.205 -54.203  15.035  1.00  0.00     0.154 C 
HETATM    7  N   UNL     1     -43.509 -52.995  14.575  1.00  0.00    -0.326 N 
HETATM    8  C   UNL     1     -42.134 -52.951  14.703  1.00  0.00     0.318 C 
HETATM    9  O   UNL     1     -41.475 -53.885  15.153  1.00  0.00    -0.247 OA
HETATM   10  N   UNL     1     -41.540 -51.790  14.292  1.00  0.00    -0.343 N 
HETATM   11  H   UNL     1     -42.100 -50.955  14.331  1.00  0.00     0.164 HD
ENDROOT
BRANCH  10  12
HETATM   12  C   UNL     1     -40.100 -51.609  14.401  1.00  0.00     0.129 C 
BRANCH  12  13
HETATM   13  C   UNL     1     -39.631 -50.211  13.978  1.00  0.00     0.061 C 
BRANCH  13  14
HETATM   14  C   UNL     1     -40.144 -49.821  12.632  1.00  0.00    -0.023 A 
HETATM   15  C   UNL     1     -39.828 -50.416  11.388  1.00  0.00     0.115 A 
HETATM   16  N   UNL     1     -40.476 -49.847  10.368  1.00  0.00    -0.310 N 
HETATM   17  N   UNL     1     -41.188 -48.867  10.952  1.00  0.00    -0.308 N 
ATOM     18  HN  UNL     1     -40.440 -50.096   9.381  1.00  0.00     0.186 HD
HETATM   19  C   UNL     1     -42.021 -48.000  10.155  1.00  0.00     0.177 C 
HETATM   20  C   UNL     1     -41.028 -48.815  12.307  1.00  0.00     0.118 A 
ENDBRANCH  13  14
ENDBRANCH  12  13
ENDBRANCH  10  12
TORSDOF 3
ENDMDL
MODEL 7
REMARK VINA RESULT:      -5.1      5.168      7.613
REMARK  3 active torsions:
REMARK  status: ('A' for Active; 'I' for Inactive)
REMARK       I    between atoms: N_7  and  C_8 
REMARK       I    between atoms: C_8  and  N_10 
REMARK    1  A    between atoms: N_10  and  C_11 
REMARK    2  A    between atoms: C_11  and  C_12 
REMARK    3  A    between atoms: C_12  and  C_13 
ROOT
HETATM    1  C   UNL     1     -42.778 -43.346  14.769  1.00  0.00     0.034 C 
HETATM    2  C   UNL     1     -41.936 -43.022  13.530  1.00  0.00     0.108 C 
HETATM    3  C   UNL     1     -41.219 -41.662  13.684  1.00  0.00     0.192 C 
HETATM    4  O   UNL     1     -42.152 -40.569  13.675  1.00  0.00    -0.388 OA
HETATM    5  C   UNL     1     -42.876 -40.535  12.434  1.00  0.00     0.187 C 
HETATM    6  C   UNL     1     -43.664 -41.830  12.220  1.00  0.00     0.154 C 
HETATM    7  N   UNL     1     -42.779 -42.999  12.312  1.00  0.00    -0.326 N 
HETATM    8  C   UNL     1     -42.581 -43.753  11.171  1.00  0.00     0.318 C 
HETATM    9  O   UNL     1     -43.085 -43.469  10.087  1.00  0.00    -0.247 OA
HETATM   10  N   UNL     1     -41.776 -44.848  11.320  1.00  0.00    -0.343 N 
HETATM   11  H   UNL     1     -41.735 -45.259  12.238  1.00  0.00     0.164 HD
ENDROOT
BRANCH  10  12
HETATM   12  C   UNL     1     -41.512 -45.739  10.200  1.00  0.00     0.129 C 
BRANCH  12  13
HETATM   13  C   UNL     1     -42.052 -47.158  10.414  1.00  0.00     0.061 C 
BRANCH  13  14
HETATM   14  C   UNL     1     -43.289 -47.422   9.622  1.00  0.00    -0.023 A 
HETATM   15  C   UNL     1     -43.378 -47.723   8.243  1.00  0.00     0.115 A 
HETATM   16  N   UNL     1     -44.635 -47.930   7.843  1.00  0.00    -0.310 N 
HETATM   17  N   UNL     1     -45.359 -47.735   8.959  1.00  0.00    -0.308 N 
ATOM     18  HN  UNL     1     -44.968 -48.177   6.912  1.00  0.00     0.186 HD
HETATM   19  C   UNL     1     -46.796 -47.856   8.924  1.00  0.00     0.177 C 
HETATM   20  C   UNL     1     -44.598 -47.435  10.053  1.00  0.00     0.118 A 
ENDBRANCH  13  14
ENDBRANCH  12  13
ENDBRANCH  10  12
TORSDOF 3
ENDMDL
MODEL 8
REMARK VINA RESULT:      -5.0      3.257      6.919
REMARK  3 active torsions:
REMARK  status: ('A' for Active; 'I' for Inactive)
REMARK       I    between atoms: N_7  and  C_8 
REMARK       I    between atoms: C_8  and  N_10 
REMARK    1  A    between atoms: N_10  and  C_11 
REMARK    2  A    between atoms: C_11  and  C_12 
REMARK    3  A    between atoms: C_12  and  C_13 
ROOT
HETATM    1  C   UNL     1     -39.670 -45.075  13.006  1.00  0.00     0.034 C 
HETATM    2  C   UNL     1     -39.933 -45.761  11.661  1.00  0.00     0.108 C 
HETATM    3  C   UNL     1     -40.096 -44.723  10.529  1.00  0.00     0.192 C 
HETATM    4  O   UNL     1     -41.301 -43.955  10.685  1.00  0.00    -0.388 OA
HETATM    5  C   UNL     1     -42.453 -44.814  10.650  1.00  0.00     0.187 C 
HETATM    6  C   UNL     1     -42.402 -45.850  11.776  1.00  0.00     0.154 C 
HETATM    7  N   UNL     1     -41.146 -46.608  11.730  1.00  0.00    -0.326 N 
HETATM    8  C   UNL     1     -41.214 -47.957  11.438  1.00  0.00     0.318 C 
HETATM    9  O   UNL     1     -42.269 -48.534  11.187  1.00  0.00    -0.247 OA
HETATM   10  N   UNL     1     -40.019 -48.623  11.441  1.00  0.00    -0.343 N 
HETATM   11  H   UNL     1     -39.292 -48.245  12.026  1.00  0.00     0.164 HD
ENDROOT
BRANCH  10  12
HETATM   12  C   UNL     1     -39.960 -50.052  11.176  1.00  0.00     0.129 C 
BRANCH  12  13
HETATM   13  C   UNL     1     -39.919 -50.904  12.452  1.00  0.00     0.061 C 
BRANCH  13  14
HETATM   14  C   UNL     1     -40.997 -51.935  12.483  1.00  0.00    -0.023 A 
HETATM   15  C   UNL     1     -40.840 -53.339  12.555  1.00  0.00     0.115 A 
HETATM   16  N   UNL     1     -42.008 -53.985  12.590  1.00  0.00    -0.310 N 
HETATM   17  N   UNL     1     -42.918 -52.998  12.514  1.00  0.00    -0.308 N 
ATOM     18  HN  UNL     1     -42.172 -54.988  12.659  1.00  0.00     0.186 HD
HETATM   19  C   UNL     1     -44.327 -53.307  12.506  1.00  0.00     0.177 C 
HETATM   20  C   UNL     1     -42.362 -51.752  12.454  1.00  0.00     0.118 A 
ENDBRANCH  13  14
ENDBRANCH  12  13
ENDBRANCH  10  12
TORSDOF 3
ENDMDL
MODEL 9
REMARK VINA RESULT:      -5.0      3.940      5.199
REMARK  3 active torsions:
REMARK  status: ('A' for Active; 'I' for Inactive)
REMARK       I    between atoms: N_7  and  C_8 
REMARK       I    between atoms: C_8  and  N_10 
REMARK    1  A    between atoms: N_10  and  C_11 
REMARK    2  A    between atoms: C_11  and  C_12 
REMARK    3  A    between atoms: C_12  and  C_13 
ROOT
HETATM    1  C   UNL     1     -44.896 -50.585  16.261  1.00  0.00     0.034 C 
HETATM    2  C   UNL     1     -44.568 -51.505  15.080  1.00  0.00     0.108 C 
HETATM    3  C   UNL     1     -45.560 -51.289  13.916  1.00  0.00     0.192 C 
HETATM    4  O   UNL     1     -46.881 -51.741  14.256  1.00  0.00    -0.388 OA
HETATM    5  C   UNL     1     -46.871 -53.147  14.559  1.00  0.00     0.187 C 
HETATM    6  C   UNL     1     -45.948 -53.449  15.742  1.00  0.00     0.154 C 
HETATM    7  N   UNL     1     -44.598 -52.926  15.496  1.00  0.00    -0.326 N 
HETATM    8  C   UNL     1     -43.566 -53.835  15.359  1.00  0.00     0.318 C 
HETATM    9  O   UNL     1     -43.737 -55.051  15.403  1.00  0.00    -0.247 OA
HETATM   10  N   UNL     1     -42.325 -53.295  15.165  1.00  0.00    -0.343 N 
HETATM   11  H   UNL     1     -42.169 -52.372  15.537  1.00  0.00     0.164 HD
ENDROOT
BRANCH  10  12
HETATM   12  C   UNL     1     -41.152 -54.146  15.035  1.00  0.00     0.129 C 
BRANCH  12  13
HETATM   13  C   UNL     1     -40.663 -54.285  13.587  1.00  0.00     0.061 C 
BRANCH  13  14
HETATM   14  C   UNL     1     -40.550 -52.968  12.895  1.00  0.00    -0.023 A 
HETATM   15  C   UNL     1     -41.307 -52.510  11.792  1.00  0.00     0.115 A 
HETATM   16  N   UNL     1     -40.977 -51.270  11.423  1.00  0.00    -0.310 N 
HETATM   17  N   UNL     1     -39.987 -50.939  12.271  1.00  0.00    -0.308 N 
ATOM     18  HN  UNL     1     -41.380 -50.706  10.675  1.00  0.00     0.186 HD
HETATM   19  C   UNL     1     -39.346 -49.651  12.173  1.00  0.00     0.177 C 
HETATM   20  C   UNL     1     -39.699 -51.921  13.176  1.00  0.00     0.118 A 
ENDBRANCH  13  14
ENDBRANCH  12  13
ENDBRANCH  10  12
TORSDOF 3
ENDMDL
