MODEL 1
REMARK VINA RESULT:      -5.0      0.000      0.000
REMARK  1 active torsions:
REMARK  status: ('A' for Active; 'I' for Inactive)
REMARK    1  A    between atoms: C_6  and  C_9 
ROOT
HETATM    1  O   UNL     1     -39.979 -54.162  13.162  1.00  0.00    -0.268 OA
HETATM    2  C   UNL     1     -40.955 -53.481  12.870  1.00  0.00     0.247 C 
HETATM    3  C   UNL     1     -40.732 -52.087  12.399  1.00  0.00     0.091 C 
HETATM    4  C   UNL     1     -41.802 -51.309  12.232  1.00  0.00     0.095 C 
HETATM    5  N   UNL     1     -43.060 -51.802  12.427  1.00  0.00    -0.355 N 
HETATM    6  C   UNL     1     -43.240 -53.143  12.680  1.00  0.00     0.088 C 
HETATM    7  N   UNL     1     -42.251 -53.954  12.903  1.00  0.00    -0.313 N 
ATOM      8  HN  UNL     1     -42.432 -54.938  13.103  1.00  0.00     0.170 HD
HETATM    9  H   UNL     1     -43.848 -51.213  12.177  1.00  0.00     0.166 HD
ENDROOT
BRANCH   6  10
HETATM   10  C   UNL     1     -44.665 -53.716  12.581  1.00  0.00     0.057 C 
HETATM   11  C   UNL     1     -45.769 -52.650  12.569  1.00  0.00     0.038 C 
HETATM   12  C   UNL     1     -46.289 -52.266  13.952  1.00  0.00     0.168 C 
HETATM   13  O   UNL     1     -46.524 -53.404  14.773  1.00  0.00    -0.391 OA
HETATM   14  C   UNL     1     -45.336 -54.174  14.958  1.00  0.00     0.168 C 
HETATM   15  C   UNL     1     -44.947 -54.798  13.628  1.00  0.00     0.038 C 
ENDBRANCH   6  10
TORSDOF 1
ENDMDL
MODEL 2
REMARK VINA RESULT:      -4.7      1.570      4.970
REMARK  1 active torsions:
REMARK  status: ('A' for Active; 'I' for Inactive)
REMARK    1  A    between atoms: C_6  and  C_9 
ROOT
HETATM    1  O   UNL     1     -45.821 -52.943  11.961  1.00  0.00    -0.268 OA
HETATM    2  C   UNL     1     -44.910 -53.481  12.580  1.00  0.00     0.247 C 
HETATM    3  C   UNL     1     -45.257 -54.457  13.648  1.00  0.00     0.091 C 
HETATM    4  C   UNL     1     -44.268 -54.918  14.413  1.00  0.00     0.095 C 
HETATM    5  N   UNL     1     -42.974 -54.550  14.178  1.00  0.00    -0.355 N 
HETATM    6  C   UNL     1     -42.666 -53.795  13.069  1.00  0.00     0.088 C 
HETATM    7  N   UNL     1     -43.574 -53.269  12.304  1.00  0.00    -0.313 N 
ATOM      8  HN  UNL     1     -43.301 -52.702  11.501  1.00  0.00     0.170 HD
HETATM    9  H   UNL     1     -42.242 -55.014  14.707  1.00  0.00     0.166 HD
ENDROOT
BRANCH   6  10
HETATM   10  C   UNL     1     -41.187 -53.668  12.665  1.00  0.00     0.057 C 
HETATM   11  C   UNL     1     -40.200 -54.114  13.753  1.00  0.00     0.038 C 
HETATM   12  C   UNL     1     -39.775 -53.005  14.711  1.00  0.00     0.168 C 
HETATM   13  O   UNL     1     -39.453 -51.798  14.029  1.00  0.00    -0.391 OA
HETATM   14  C   UNL     1     -40.560 -51.311  13.270  1.00  0.00     0.168 C 
HETATM   15  C   UNL     1     -40.833 -52.277  12.129  1.00  0.00     0.038 C 
ENDBRANCH   6  10
TORSDOF 1
ENDMDL
MODEL 3
REMARK VINA RESULT:      -4.6      4.977      6.818
REMARK  1 active torsions:
REMARK  status: ('A' for Active; 'I' for Inactive)
REMARK    1  A    between atoms: C_6  and  C_9 
ROOT
HETATM    1  O   UNL     1     -43.197 -48.032   6.937  1.00  0.00    -0.268 OA
HETATM    2  C   UNL     1     -43.539 -47.872   8.104  1.00  0.00     0.247 C 
HETATM    3  C   UNL     1     -44.991 -47.778   8.412  1.00  0.00     0.091 C 
HETATM    4  C   UNL     1     -45.343 -47.451   9.655  1.00  0.00     0.095 C 
HETATM    5  N   UNL     1     -44.398 -47.273  10.623  1.00  0.00    -0.355 N 
HETATM    6  C   UNL     1     -43.077 -47.550  10.352  1.00  0.00     0.088 C 
HETATM    7  N   UNL     1     -42.649 -47.826   9.158  1.00  0.00    -0.313 N 
ATOM      8  HN  UNL     1     -41.658 -48.009   8.999  1.00  0.00     0.170 HD
HETATM    9  H   UNL     1     -44.712 -47.142  11.580  1.00  0.00     0.166 HD
ENDROOT
BRANCH   6  10
HETATM   10  C   UNL     1     -42.097 -47.644  11.534  1.00  0.00     0.057 C 
HETATM   11  C   UNL     1     -40.750 -48.291  11.183  1.00  0.00     0.038 C 
HETATM   12  C   UNL     1     -40.715 -49.807  11.359  1.00  0.00     0.168 C 
HETATM   13  O   UNL     1     -41.309 -50.220  12.584  1.00  0.00    -0.391 OA
HETATM   14  C   UNL     1     -42.673 -49.808  12.673  1.00  0.00     0.168 C 
HETATM   15  C   UNL     1     -42.718 -48.292  12.775  1.00  0.00     0.038 C 
ENDBRANCH   6  10
TORSDOF 1
ENDMDL
MODEL 4
REMARK VINA RESULT:      -4.6      1.333      1.633
REMARK  1 active torsions:
REMARK  status: ('A' for Active; 'I' for Inactive)
REMARK    1  A    between atoms: C_6  and  C_9 
ROOT
HETATM    1  O   UNL     1     -41.110 -54.965  15.874  1.00  0.00    -0.268 OA
HETATM    2  C   UNL     1     -41.534 -54.548  14.802  1.00  0.00     0.247 C 
HETATM    3  C   UNL     1     -40.558 -54.028  13.807  1.00  0.00     0.091 C 
HETATM    4  C   UNL     1     -41.040 -53.440  12.712  1.00  0.00     0.095 C 
HETATM    5  N   UNL     1     -42.385 -53.376  12.490  1.00  0.00    -0.355 N 
HETATM    6  C   UNL     1     -43.252 -54.031  13.336  1.00  0.00     0.088 C 
HETATM    7  N   UNL     1     -42.867 -54.584  14.445  1.00  0.00    -0.313 N 
ATOM      8  HN  UNL     1     -43.547 -55.044  15.051  1.00  0.00     0.170 HD
HETATM    9  H   UNL     1     -42.705 -53.026  11.592  1.00  0.00     0.166 HD
ENDROOT
BRANCH   6  10
HETATM   10  C   UNL     1     -44.714 -54.203  12.886  1.00  0.00     0.057 C 
HETATM   11  C   UNL     1     -45.434 -52.884  12.575  1.00  0.00     0.038 C 
HETATM   12  C   UNL     1     -46.140 -52.255  13.773  1.00  0.00     0.168 C 
HETATM   13  O   UNL     1     -46.878 -53.210  14.526  1.00  0.00    -0.391 OA
HETATM   14  C   UNL     1     -46.038 -54.253  15.020  1.00  0.00     0.168 C 
HETATM   15  C   UNL     1     -45.534 -55.073  13.844  1.00  0.00     0.038 C 
ENDBRANCH   6  10
TORSDOF 1
ENDMDL
MODEL 5
REMARK VINA RESULT:      -4.6      1.452      1.988
REMARK  1 active torsions:
REMARK  status: ('A' for Active; 'I' for Inactive)
REMARK    1  A    between atoms: C_6  and  C_9 
ROOT
HETATM    1  O   UNL     1     -41.490 -51.865  11.672  1.00  0.00    -0.268 OA
HETATM    2  C   UNL     1     -42.133 -52.607  12.407  1.00  0.00     0.247 C 
HETATM    3  C   UNL     1     -41.398 -53.410  13.421  1.00  0.00     0.091 C 
HETATM    4  C   UNL     1     -42.085 -54.323  14.108  1.00  0.00     0.095 C 
HETATM    5  N   UNL     1     -43.430 -54.466  13.924  1.00  0.00    -0.355 N 
HETATM    6  C   UNL     1     -44.111 -53.584  13.116  1.00  0.00     0.088 C 
HETATM    7  N   UNL     1     -43.509 -52.700  12.379  1.00  0.00    -0.313 N 
ATOM      8  HN  UNL     1     -44.053 -52.077  11.782  1.00  0.00     0.170 HD
HETATM    9  H   UNL     1     -43.934 -55.089  14.548  1.00  0.00     0.166 HD
ENDROOT
BRANCH   6  10
HETATM   10  C   UNL     1     -45.648 -53.577  13.181  1.00  0.00     0.057 C 
HETATM   11  C   UNL     1     -46.278 -52.191  12.990  1.00  0.00     0.038 C 
HETATM   12  C   UNL     1     -46.470 -51.403  14.283  1.00  0.00     0.168 C 
HETATM   13  O   UNL     1     -47.018 -52.203  15.324  1.00  0.00    -0.391 OA
HETATM   14  C   UNL     1     -46.185 -53.323  15.622  1.00  0.00     0.168 C 
HETATM   15  C   UNL     1     -46.196 -54.270  14.433  1.00  0.00     0.038 C 
ENDBRANCH   6  10
TORSDOF 1
ENDMDL
MODEL 6
REMARK VINA RESULT:      -4.6      4.766      6.844
REMARK  1 active torsions:
REMARK  status: ('A' for Active; 'I' for Inactive)
REMARK    1  A    between atoms: C_6  and  C_9 
ROOT
HETATM    1  O   UNL     1     -41.075 -45.005  10.068  1.00  0.00    -0.268 OA
HETATM    2  C   UNL     1     -41.514 -46.137  10.240  1.00  0.00     0.247 C 
HETATM    3  C   UNL     1     -42.961 -46.382   9.993  1.00  0.00     0.091 C 
HETATM    4  C   UNL     1     -43.456 -47.573  10.330  1.00  0.00     0.095 C 
HETATM    5  N   UNL     1     -42.642 -48.551  10.825  1.00  0.00    -0.355 N 
HETATM    6  C   UNL     1     -41.280 -48.356  10.865  1.00  0.00     0.088 C 
HETATM    7  N   UNL     1     -40.727 -47.211  10.601  1.00  0.00    -0.313 N 
ATOM      8  HN  UNL     1     -39.714 -47.107  10.659  1.00  0.00     0.170 HD
HETATM    9  H   UNL     1     -43.036 -49.477  10.958  1.00  0.00     0.166 HD
ENDROOT
BRANCH   6  10
HETATM   10  C   UNL     1     -40.379 -49.576  11.126  1.00  0.00     0.057 C 
HETATM   11  C   UNL     1     -41.059 -50.698  11.923  1.00  0.00     0.038 C 
HETATM   12  C   UNL     1     -40.906 -50.576  13.437  1.00  0.00     0.168 C 
HETATM   13  O   UNL     1     -39.574 -50.253  13.819  1.00  0.00    -0.391 OA
HETATM   14  C   UNL     1     -39.146 -49.019  13.243  1.00  0.00     0.168 C 
HETATM   15  C   UNL     1     -39.027 -49.199  11.739  1.00  0.00     0.038 C 
ENDBRANCH   6  10
TORSDOF 1
ENDMDL
MODEL 7
REMARK VINA RESULT:      -4.5      5.537      7.454
REMARK  1 active torsions:
REMARK  status: ('A' for Active; 'I' for Inactive)
REMARK    1  A    between atoms: C_6  and  C_9 
ROOT
HETATM    1  O   UNL     1     -46.141 -47.963   9.448  1.00  0.00    -0.268 OA
HETATM    2  C   UNL     1     -45.018 -47.473   9.472  1.00  0.00     0.247 C 
HETATM    3  C   UNL     1     -44.827 -46.109   8.909  1.00  0.00     0.091 C 
HETATM    4  C   UNL     1     -43.579 -45.650   8.801  1.00  0.00     0.095 C 
HETATM    5  N   UNL     1     -42.524 -46.388   9.252  1.00  0.00    -0.355 N 
HETATM    6  C   UNL     1     -42.749 -47.562   9.936  1.00  0.00     0.088 C 
HETATM    7  N   UNL     1     -43.927 -48.098  10.041  1.00  0.00    -0.313 N 
ATOM      8  HN  UNL     1     -44.045 -48.978  10.543  1.00  0.00     0.170 HD
HETATM    9  H   UNL     1     -41.606 -45.955   9.258  1.00  0.00     0.166 HD
ENDROOT
BRANCH   6  10
HETATM   10  C   UNL     1     -41.571 -48.197  10.696  1.00  0.00     0.057 C 
HETATM   11  C   UNL     1     -41.993 -49.161  11.813  1.00  0.00     0.038 C 
HETATM   12  C   UNL     1     -42.190 -48.500  13.175  1.00  0.00     0.168 C 
HETATM   13  O   UNL     1     -41.137 -47.596  13.491  1.00  0.00    -0.391 OA
HETATM   14  C   UNL     1     -41.027 -46.556  12.519  1.00  0.00     0.168 C 
HETATM   15  C   UNL     1     -40.563 -47.163  11.206  1.00  0.00     0.038 C 
ENDBRANCH   6  10
TORSDOF 1
ENDMDL
MODEL 8
REMARK VINA RESULT:      -4.5      2.307      4.886
REMARK  1 active torsions:
REMARK  status: ('A' for Active; 'I' for Inactive)
REMARK    1  A    between atoms: C_6  and  C_9 
ROOT
HETATM    1  O   UNL     1     -46.654 -52.647  17.739  1.00  0.00    -0.268 OA
HETATM    2  C   UNL     1     -46.439 -52.595  16.533  1.00  0.00     0.247 C 
HETATM    3  C   UNL     1     -46.908 -51.400  15.781  1.00  0.00     0.091 C 
HETATM    4  C   UNL     1     -46.806 -51.424  14.451  1.00  0.00     0.095 C 
HETATM    5  N   UNL     1     -46.231 -52.486  13.815  1.00  0.00    -0.355 N 
HETATM    6  C   UNL     1     -45.640 -53.489  14.550  1.00  0.00     0.088 C 
HETATM    7  N   UNL     1     -45.738 -53.562  15.843  1.00  0.00    -0.313 N 
ATOM      8  HN  UNL     1     -45.298 -54.333  16.346  1.00  0.00     0.170 HD
HETATM    9  H   UNL     1     -46.068 -52.413  12.816  1.00  0.00     0.166 HD
ENDROOT
BRANCH   6  10
HETATM   10  C   UNL     1     -44.738 -54.494  13.813  1.00  0.00     0.057 C 
HETATM   11  C   UNL     1     -43.669 -55.145  14.702  1.00  0.00     0.038 C 
HETATM   12  C   UNL     1     -42.348 -54.382  14.757  1.00  0.00     0.168 C 
HETATM   13  O   UNL     1     -41.919 -53.954  13.470  1.00  0.00    -0.391 OA
HETATM   14  C   UNL     1     -42.882 -53.102  12.850  1.00  0.00     0.168 C 
HETATM   15  C   UNL     1     -44.124 -53.919  12.534  1.00  0.00     0.038 C 
ENDBRANCH   6  10
TORSDOF 1
ENDMDL
MODEL 9
REMARK VINA RESULT:      -4.4      1.674      4.824
REMARK  1 active torsions:
REMARK  status: ('A' for Active; 'I' for Inactive)
REMARK    1  A    between atoms: C_6  and  C_9 
ROOT
HETATM    1  O   UNL     1     -44.104 -54.996  16.100  1.00  0.00    -0.268 OA
HETATM    2  C   UNL     1     -43.854 -54.562  14.981  1.00  0.00     0.247 C 
HETATM    3  C   UNL     1     -44.982 -54.085  14.136  1.00  0.00     0.091 C 
HETATM    4  C   UNL     1     -44.716 -53.761  12.871  1.00  0.00     0.095 C 
HETATM    5  N   UNL     1     -43.439 -53.807  12.392  1.00  0.00    -0.355 N 
HETATM    6  C   UNL     1     -42.394 -54.072  13.249  1.00  0.00     0.088 C 
HETATM    7  N   UNL     1     -42.573 -54.443  14.481  1.00  0.00    -0.313 N 
ATOM      8  HN  UNL     1     -41.770 -54.645  15.076  1.00  0.00     0.170 HD
HETATM    9  H   UNL     1     -43.263 -53.441  11.462  1.00  0.00     0.166 HD
ENDROOT
BRANCH   6  10
HETATM   10  C   UNL     1     -40.962 -53.807  12.752  1.00  0.00     0.057 C 
HETATM   11  C   UNL     1     -39.870 -54.145  13.777  1.00  0.00     0.038 C 
HETATM   12  C   UNL     1     -39.495 -52.989  14.700  1.00  0.00     0.168 C 
HETATM   13  O   UNL     1     -39.335 -51.765  13.993  1.00  0.00    -0.391 OA
HETATM   14  C   UNL     1     -40.529 -51.395  13.304  1.00  0.00     0.168 C 
HETATM   15  C   UNL     1     -40.778 -52.396  12.187  1.00  0.00     0.038 C 
ENDBRANCH   6  10
TORSDOF 1
ENDMDL
