MODEL 1
REMARK VINA RESULT:      -5.7      0.000      0.000
REMARK  6 active torsions:
REMARK  status: ('A' for Active; 'I' for Inactive)
REMARK    1  A    between atoms: C_2  and  C_4 
REMARK    2  A    between atoms: C_4  and  C_5 
REMARK    3  A    between atoms: C_5  and  C_6 
REMARK    4  A    between atoms: C_6  and  N_8 
REMARK       I    between atoms: N_8  and  C_9 
REMARK    5  A    between atoms: C_9  and  C_11 
REMARK    6  A    between atoms: C_11  and  C_12 
ROOT
HETATM    1  C   UNL     1     -41.209 -54.310  13.136  1.00  0.00     0.149 C 
ENDROOT
BRANCH   1   2
HETATM    2  C   UNL     1     -42.506 -54.076  13.890  1.00  0.00     0.222 C 
HETATM    3  N   UNL     1     -43.614 -53.901  13.086  1.00  0.00    -0.357 N 
HETATM    4  H   UNL     1     -43.530 -54.185  12.110  1.00  0.00     0.162 HD
HETATM    5  O   UNL     1     -42.549 -54.067  15.118  1.00  0.00    -0.273 OA
BRANCH   3   6
HETATM    6  C   UNL     1     -44.953 -53.763  13.652  1.00  0.00     0.080 C 
HETATM    7  C   UNL     1     -45.617 -55.135  13.780  1.00  0.00     0.032 C 
BRANCH   6   8
HETATM    8  C   UNL     1     -45.773 -52.779  12.800  1.00  0.00     0.025 C 
BRANCH   8   9
HETATM    9  C   UNL     1     -46.369 -51.626  13.618  1.00  0.00     0.006 C 
BRANCH   9  10
HETATM   10  C   UNL     1     -46.083 -51.713  15.130  1.00  0.00    -0.023 C 
HETATM   11  C   UNL     1     -44.944 -50.752  15.488  1.00  0.00     0.009 C 
HETATM   12  C   UNL     1     -47.309 -51.399  15.988  1.00  0.00     0.009 C 
ENDBRANCH   9  10
ENDBRANCH   8   9
ENDBRANCH   6   8
ENDBRANCH   3   6
ENDBRANCH   1   2
BRANCH   1  13
HETATM   13  C   UNL     1     -40.323 -53.118  13.344  1.00  0.00     0.041 A 
HETATM   14  C   UNL     1     -39.343 -52.967  14.258  1.00  0.00     0.018 A 
HETATM   15  C   UNL     1     -38.955 -54.039  15.246  1.00  0.00     0.069 C 
HETATM   16  N   UNL     1     -38.561 -51.837  14.361  1.00  0.00    -0.349 N 
HETATM   17  C   UNL     1     -38.776 -50.871  13.533  1.00  0.00     0.080 A 
ATOM     18  HN  UNL     1     -37.834 -51.766  15.072  1.00  0.00     0.167 HD
HETATM   19  C   UNL     1     -37.941 -49.626  13.568  1.00  0.00     0.089 C 
HETATM   20  N   UNL     1     -39.746 -50.907  12.578  1.00  0.00    -0.313 N 
HETATM   21  C   UNL     1     -40.547 -51.992  12.406  1.00  0.00     0.255 A 
HETATM   22  H   UNL     1     -39.880 -50.138  11.938  1.00  0.00     0.170 HD
HETATM   23  O   UNL     1     -41.389 -52.045  11.512  1.00  0.00    -0.268 OA
ENDBRANCH   1  13
TORSDOF 6
ENDMDL
MODEL 2
REMARK VINA RESULT:      -5.6      3.782      4.975
REMARK  6 active torsions:
REMARK  status: ('A' for Active; 'I' for Inactive)
REMARK    1  A    between atoms: C_2  and  C_4 
REMARK    2  A    between atoms: C_4  and  C_5 
REMARK    3  A    between atoms: C_5  and  C_6 
REMARK    4  A    between atoms: C_6  and  N_8 
REMARK       I    between atoms: N_8  and  C_9 
REMARK    5  A    between atoms: C_9  and  C_11 
REMARK    6  A    between atoms: C_11  and  C_12 
ROOT
HETATM    1  C   UNL     1     -41.360 -48.992  13.378  1.00  0.00     0.149 C 
ENDROOT
BRANCH   1   2
HETATM    2  C   UNL     1     -42.293 -50.132  13.743  1.00  0.00     0.222 C 
HETATM    3  N   UNL     1     -41.945 -51.354  13.202  1.00  0.00    -0.357 N 
HETATM    4  H   UNL     1     -40.999 -51.447  12.835  1.00  0.00     0.162 HD
HETATM    5  O   UNL     1     -43.263 -49.966  14.478  1.00  0.00    -0.273 OA
BRANCH   3   6
HETATM    6  C   UNL     1     -42.680 -52.571  13.534  1.00  0.00     0.080 C 
HETATM    7  C   UNL     1     -41.708 -53.722  13.797  1.00  0.00     0.032 C 
BRANCH   6   8
HETATM    8  C   UNL     1     -43.689 -52.885  12.415  1.00  0.00     0.025 C 
BRANCH   8   9
HETATM    9  C   UNL     1     -45.129 -53.022  12.923  1.00  0.00     0.006 C 
BRANCH   9  10
HETATM   10  C   UNL     1     -45.922 -51.700  12.932  1.00  0.00    -0.023 C 
HETATM   11  C   UNL     1     -46.950 -51.716  11.796  1.00  0.00     0.009 C 
HETATM   12  C   UNL     1     -46.629 -51.438  14.261  1.00  0.00     0.009 C 
ENDBRANCH   9  10
ENDBRANCH   8   9
ENDBRANCH   6   8
ENDBRANCH   3   6
ENDBRANCH   1   2
BRANCH   1  13
HETATM   13  C   UNL     1     -41.954 -48.252  12.216  1.00  0.00     0.041 A 
HETATM   14  C   UNL     1     -42.773 -47.182  12.250  1.00  0.00     0.018 A 
HETATM   15  C   UNL     1     -43.222 -46.518  13.529  1.00  0.00     0.069 C 
HETATM   16  N   UNL     1     -43.255 -46.552  11.124  1.00  0.00    -0.349 N 
HETATM   17  C   UNL     1     -42.897 -47.008   9.971  1.00  0.00     0.080 A 
ATOM     18  HN  UNL     1     -43.877 -45.746  11.199  1.00  0.00     0.167 HD
HETATM   19  C   UNL     1     -43.358 -46.351   8.705  1.00  0.00     0.089 C 
HETATM   20  N   UNL     1     -42.086 -48.089   9.815  1.00  0.00    -0.313 N 
HETATM   21  C   UNL     1     -41.560 -48.755  10.878  1.00  0.00     0.255 A 
HETATM   22  H   UNL     1     -41.816 -48.415   8.898  1.00  0.00     0.170 HD
HETATM   23  O   UNL     1     -40.787 -49.701  10.738  1.00  0.00    -0.268 OA
ENDBRANCH   1  13
TORSDOF 6
ENDMDL
MODEL 3
REMARK VINA RESULT:      -5.6      2.672      4.128
REMARK  6 active torsions:
REMARK  status: ('A' for Active; 'I' for Inactive)
REMARK    1  A    between atoms: C_2  and  C_4 
REMARK    2  A    between atoms: C_4  and  C_5 
REMARK    3  A    between atoms: C_5  and  C_6 
REMARK    4  A    between atoms: C_6  and  N_8 
REMARK       I    between atoms: N_8  and  C_9 
REMARK    5  A    between atoms: C_9  and  C_11 
REMARK    6  A    between atoms: C_11  and  C_12 
ROOT
HETATM    1  C   UNL     1     -45.591 -54.776  14.368  1.00  0.00     0.149 C 
ENDROOT
BRANCH   1   2
HETATM    2  C   UNL     1     -45.901 -54.031  15.654  1.00  0.00     0.222 C 
HETATM    3  N   UNL     1     -46.069 -52.669  15.502  1.00  0.00    -0.357 N 
HETATM    4  H   UNL     1     -46.223 -52.322  14.556  1.00  0.00     0.162 HD
HETATM    5  O   UNL     1     -46.011 -54.614  16.730  1.00  0.00    -0.273 OA
BRANCH   3   6
HETATM    6  C   UNL     1     -46.468 -51.822  16.622  1.00  0.00     0.080 C 
HETATM    7  C   UNL     1     -47.902 -51.326  16.427  1.00  0.00     0.032 C 
BRANCH   6   8
HETATM    8  C   UNL     1     -45.457 -50.674  16.785  1.00  0.00     0.025 C 
BRANCH   8   9
HETATM    9  C   UNL     1     -44.545 -50.496  15.565  1.00  0.00     0.006 C 
BRANCH   9  10
HETATM   10  C   UNL     1     -43.044 -50.427  15.906  1.00  0.00    -0.023 C 
HETATM   11  C   UNL     1     -42.609 -51.742  16.561  1.00  0.00     0.009 C 
HETATM   12  C   UNL     1     -42.167 -50.148  14.684  1.00  0.00     0.009 C 
ENDBRANCH   9  10
ENDBRANCH   8   9
ENDBRANCH   6   8
ENDBRANCH   3   6
ENDBRANCH   1   2
BRANCH   1  13
HETATM   13  C   UNL     1     -44.333 -54.204  13.785  1.00  0.00     0.041 A 
HETATM   14  C   UNL     1     -43.064 -54.424  14.185  1.00  0.00     0.018 A 
HETATM   15  C   UNL     1     -42.698 -55.343  15.324  1.00  0.00     0.069 C 
HETATM   16  N   UNL     1     -41.963 -53.868  13.572  1.00  0.00    -0.349 N 
HETATM   17  C   UNL     1     -42.156 -53.099  12.554  1.00  0.00     0.080 A 
ATOM     18  HN  UNL     1     -41.020 -54.059  13.913  1.00  0.00     0.167 HD
HETATM   19  C   UNL     1     -41.001 -52.487  11.820  1.00  0.00     0.089 C 
HETATM   20  N   UNL     1     -43.392 -52.796  12.071  1.00  0.00    -0.313 N 
HETATM   21  C   UNL     1     -44.525 -53.316  12.614  1.00  0.00     0.255 A 
HETATM   22  H   UNL     1     -43.508 -52.199  11.265  1.00  0.00     0.170 HD
HETATM   23  O   UNL     1     -45.638 -53.083  12.147  1.00  0.00    -0.268 OA
ENDBRANCH   1  13
TORSDOF 6
ENDMDL
MODEL 4
REMARK VINA RESULT:      -5.5      3.670      5.525
REMARK  6 active torsions:
REMARK  status: ('A' for Active; 'I' for Inactive)
REMARK    1  A    between atoms: C_2  and  C_4 
REMARK    2  A    between atoms: C_4  and  C_5 
REMARK    3  A    between atoms: C_5  and  C_6 
REMARK    4  A    between atoms: C_6  and  N_8 
REMARK       I    between atoms: N_8  and  C_9 
REMARK    5  A    between atoms: C_9  and  C_11 
REMARK    6  A    between atoms: C_11  and  C_12 
ROOT
HETATM    1  C   UNL     1     -40.902 -52.510  11.791  1.00  0.00     0.149 C 
ENDROOT
BRANCH   1   2
HETATM    2  C   UNL     1     -40.894 -51.040  12.170  1.00  0.00     0.222 C 
HETATM    3  N   UNL     1     -41.841 -50.275  11.518  1.00  0.00    -0.357 N 
HETATM    4  H   UNL     1     -42.601 -50.771  11.055  1.00  0.00     0.162 HD
HETATM    5  O   UNL     1     -40.115 -50.590  13.006  1.00  0.00    -0.273 OA
BRANCH   3   6
HETATM    6  C   UNL     1     -42.032 -48.863  11.840  1.00  0.00     0.080 C 
HETATM    7  C   UNL     1     -43.049 -48.711  12.972  1.00  0.00     0.032 C 
BRANCH   6   8
HETATM    8  C   UNL     1     -42.434 -48.096  10.568  1.00  0.00     0.025 C 
BRANCH   8   9
HETATM    9  C   UNL     1     -43.884 -47.598  10.598  1.00  0.00     0.006 C 
BRANCH   9  10
HETATM   10  C   UNL     1     -44.366 -46.984   9.270  1.00  0.00    -0.023 C 
HETATM   11  C   UNL     1     -43.634 -47.656   8.103  1.00  0.00     0.009 C 
HETATM   12  C   UNL     1     -45.877 -47.110   9.068  1.00  0.00     0.009 C 
ENDBRANCH   9  10
ENDBRANCH   8   9
ENDBRANCH   6   8
ENDBRANCH   3   6
ENDBRANCH   1   2
BRANCH   1  13
HETATM   13  C   UNL     1     -41.379 -53.298  12.974  1.00  0.00     0.041 A 
HETATM   14  C   UNL     1     -42.652 -53.578  13.322  1.00  0.00     0.018 A 
HETATM   15  C   UNL     1     -43.850 -53.135  12.517  1.00  0.00     0.069 C 
HETATM   16  N   UNL     1     -42.996 -54.332  14.422  1.00  0.00    -0.349 N 
HETATM   17  C   UNL     1     -42.047 -54.802  15.158  1.00  0.00     0.080 A 
ATOM     18  HN  UNL     1     -43.974 -54.513  14.648  1.00  0.00     0.167 HD
HETATM   19  C   UNL     1     -42.349 -55.657  16.352  1.00  0.00     0.089 C 
HETATM   20  N   UNL     1     -40.727 -54.574  14.913  1.00  0.00    -0.313 N 
HETATM   21  C   UNL     1     -40.310 -53.852  13.839  1.00  0.00     0.255 A 
HETATM   22  H   UNL     1     -40.009 -54.966  15.503  1.00  0.00     0.170 HD
HETATM   23  O   UNL     1     -39.117 -53.687  13.588  1.00  0.00    -0.268 OA
ENDBRANCH   1  13
TORSDOF 6
ENDMDL
MODEL 5
REMARK VINA RESULT:      -5.5      6.065      8.903
REMARK  6 active torsions:
REMARK  status: ('A' for Active; 'I' for Inactive)
REMARK    1  A    between atoms: C_2  and  C_4 
REMARK    2  A    between atoms: C_4  and  C_5 
REMARK    3  A    between atoms: C_5  and  C_6 
REMARK    4  A    between atoms: C_6  and  N_8 
REMARK       I    between atoms: N_8  and  C_9 
REMARK    5  A    between atoms: C_9  and  C_11 
REMARK    6  A    between atoms: C_11  and  C_12 
ROOT
HETATM    1  C   UNL     1     -41.520 -45.385  10.288  1.00  0.00     0.149 C 
ENDROOT
BRANCH   1   2
HETATM    2  C   UNL     1     -41.371 -45.415  11.798  1.00  0.00     0.222 C 
HETATM    3  N   UNL     1     -40.275 -46.121  12.253  1.00  0.00    -0.357 N 
HETATM    4  H   UNL     1     -39.546 -46.336  11.574  1.00  0.00     0.162 HD
HETATM    5  O   UNL     1     -42.161 -44.835  12.538  1.00  0.00    -0.273 OA
BRANCH   3   6
HETATM    6  C   UNL     1     -39.933 -46.165  13.672  1.00  0.00     0.080 C 
HETATM    7  C   UNL     1     -38.929 -45.061  14.009  1.00  0.00     0.032 C 
BRANCH   6   8
HETATM    8  C   UNL     1     -39.420 -47.569  14.034  1.00  0.00     0.025 C 
BRANCH   8   9
HETATM    9  C   UNL     1     -39.105 -48.432  12.806  1.00  0.00     0.006 C 
BRANCH   9  10
HETATM   10  C   UNL     1     -37.772 -49.199  12.900  1.00  0.00    -0.023 C 
HETATM   11  C   UNL     1     -37.558 -49.671  14.342  1.00  0.00     0.009 C 
HETATM   12  C   UNL     1     -37.706 -50.397  11.952  1.00  0.00     0.009 C 
ENDBRANCH   9  10
ENDBRANCH   8   9
ENDBRANCH   6   8
ENDBRANCH   3   6
ENDBRANCH   1   2
BRANCH   1  13
HETATM   13  C   UNL     1     -42.794 -46.088   9.926  1.00  0.00     0.041 A 
HETATM   14  C   UNL     1     -43.055 -47.410   9.987  1.00  0.00     0.018 A 
HETATM   15  C   UNL     1     -42.058 -48.432  10.474  1.00  0.00     0.069 C 
HETATM   16  N   UNL     1     -44.270 -47.965   9.652  1.00  0.00    -0.349 N 
HETATM   17  C   UNL     1     -45.214 -47.176   9.264  1.00  0.00     0.080 A 
ATOM     18  HN  UNL     1     -44.420 -48.973   9.709  1.00  0.00     0.167 HD
HETATM   19  C   UNL     1     -46.571 -47.710   8.916  1.00  0.00     0.089 C 
HETATM   20  N   UNL     1     -45.062 -45.828   9.152  1.00  0.00    -0.313 N 
HETATM   21  C   UNL     1     -43.898 -45.205   9.477  1.00  0.00     0.255 A 
HETATM   22  H   UNL     1     -45.825 -45.237   8.856  1.00  0.00     0.170 HD
HETATM   23  O   UNL     1     -43.775 -43.983   9.424  1.00  0.00    -0.268 OA
ENDBRANCH   1  13
TORSDOF 6
ENDMDL
MODEL 6
REMARK VINA RESULT:      -5.5      2.798      4.776
REMARK  6 active torsions:
REMARK  status: ('A' for Active; 'I' for Inactive)
REMARK    1  A    between atoms: C_2  and  C_4 
REMARK    2  A    between atoms: C_4  and  C_5 
REMARK    3  A    between atoms: C_5  and  C_6 
REMARK    4  A    between atoms: C_6  and  N_8 
REMARK       I    between atoms: N_8  and  C_9 
REMARK    5  A    between atoms: C_9  and  C_11 
REMARK    6  A    between atoms: C_11  and  C_12 
ROOT
HETATM    1  C   UNL     1     -46.105 -54.639  14.499  1.00  0.00     0.149 C 
ENDROOT
BRANCH   1   2
HETATM    2  C   UNL     1     -46.192 -54.017  15.881  1.00  0.00     0.222 C 
HETATM    3  N   UNL     1     -46.650 -52.715  15.896  1.00  0.00    -0.357 N 
HETATM    4  H   UNL     1     -47.116 -52.376  15.055  1.00  0.00     0.162 HD
HETATM    5  O   UNL     1     -45.894 -54.645  16.894  1.00  0.00    -0.273 OA
BRANCH   3   6
HETATM    6  C   UNL     1     -46.885 -52.005  17.150  1.00  0.00     0.080 C 
HETATM    7  C   UNL     1     -48.055 -51.032  16.996  1.00  0.00     0.032 C 
BRANCH   6   8
HETATM    8  C   UNL     1     -45.587 -51.312  17.601  1.00  0.00     0.025 C 
BRANCH   8   9
HETATM    9  C   UNL     1     -45.058 -50.300  16.578  1.00  0.00     0.006 C 
BRANCH   9  10
HETATM   10  C   UNL     1     -44.025 -50.882  15.593  1.00  0.00    -0.023 C 
HETATM   11  C   UNL     1     -43.455 -49.753  14.728  1.00  0.00     0.009 C 
HETATM   12  C   UNL     1     -42.884 -51.620  16.293  1.00  0.00     0.009 C 
ENDBRANCH   9  10
ENDBRANCH   8   9
ENDBRANCH   6   8
ENDBRANCH   3   6
ENDBRANCH   1   2
BRANCH   1  13
HETATM   13  C   UNL     1     -44.944 -54.022  13.777  1.00  0.00     0.041 A 
HETATM   14  C   UNL     1     -44.969 -53.014  12.882  1.00  0.00     0.018 A 
HETATM   15  C   UNL     1     -46.233 -52.303  12.466  1.00  0.00     0.069 C 
HETATM   16  N   UNL     1     -43.842 -52.496  12.282  1.00  0.00    -0.349 N 
HETATM   17  C   UNL     1     -42.698 -52.999  12.600  1.00  0.00     0.080 A 
ATOM     18  HN  UNL     1     -43.911 -51.735  11.606  1.00  0.00     0.167 HD
HETATM   19  C   UNL     1     -41.429 -52.462  12.010  1.00  0.00     0.089 C 
HETATM   20  N   UNL     1     -42.552 -54.027  13.480  1.00  0.00    -0.313 N 
HETATM   21  C   UNL     1     -43.615 -54.581  14.122  1.00  0.00     0.255 A 
HETATM   22  H   UNL     1     -41.640 -54.391  13.716  1.00  0.00     0.170 HD
HETATM   23  O   UNL     1     -43.480 -55.476  14.955  1.00  0.00    -0.268 OA
ENDBRANCH   1  13
TORSDOF 6
ENDMDL
MODEL 7
REMARK VINA RESULT:      -5.5      2.175      2.629
REMARK  6 active torsions:
REMARK  status: ('A' for Active; 'I' for Inactive)
REMARK    1  A    between atoms: C_2  and  C_4 
REMARK    2  A    between atoms: C_4  and  C_5 
REMARK    3  A    between atoms: C_5  and  C_6 
REMARK    4  A    between atoms: C_6  and  N_8 
REMARK       I    between atoms: N_8  and  C_9 
REMARK    5  A    between atoms: C_9  and  C_11 
REMARK    6  A    between atoms: C_11  and  C_12 
ROOT
HETATM    1  C   UNL     1     -42.910 -53.440  12.312  1.00  0.00     0.149 C 
ENDROOT
BRANCH   1   2
HETATM    2  C   UNL     1     -44.398 -53.497  12.606  1.00  0.00     0.222 C 
HETATM    3  N   UNL     1     -45.060 -52.295  12.454  1.00  0.00    -0.357 N 
HETATM    4  H   UNL     1     -44.579 -51.562  11.934  1.00  0.00     0.162 HD
HETATM    5  O   UNL     1     -44.955 -54.543  12.931  1.00  0.00    -0.273 OA
BRANCH   3   6
HETATM    6  C   UNL     1     -46.510 -52.200  12.602  1.00  0.00     0.080 C 
HETATM    7  C   UNL     1     -47.139 -51.663  11.316  1.00  0.00     0.032 C 
BRANCH   6   8
HETATM    8  C   UNL     1     -46.845 -51.341  13.835  1.00  0.00     0.025 C 
BRANCH   8   9
HETATM    9  C   UNL     1     -47.022 -52.168  15.114  1.00  0.00     0.006 C 
BRANCH   9  10
HETATM   10  C   UNL     1     -45.873 -52.010  16.129  1.00  0.00    -0.023 C 
HETATM   11  C   UNL     1     -45.165 -53.357  16.310  1.00  0.00     0.009 C 
HETATM   12  C   UNL     1     -44.855 -50.946  15.717  1.00  0.00     0.009 C 
ENDBRANCH   9  10
ENDBRANCH   8   9
ENDBRANCH   6   8
ENDBRANCH   3   6
ENDBRANCH   1   2
BRANCH   1  13
HETATM   13  C   UNL     1     -42.229 -52.760  13.463  1.00  0.00     0.041 A 
HETATM   14  C   UNL     1     -41.842 -53.307  14.633  1.00  0.00     0.018 A 
HETATM   15  C   UNL     1     -42.025 -54.767  14.969  1.00  0.00     0.069 C 
HETATM   16  N   UNL     1     -41.200 -52.605  15.629  1.00  0.00    -0.349 N 
HETATM   17  C   UNL     1     -40.951 -51.355  15.429  1.00  0.00     0.080 A 
ATOM     18  HN  UNL     1     -40.930 -53.061  16.501  1.00  0.00     0.167 HD
HETATM   19  C   UNL     1     -40.227 -50.539  16.458  1.00  0.00     0.089 C 
HETATM   20  N   UNL     1     -41.306 -50.695  14.294  1.00  0.00    -0.313 N 
HETATM   21  C   UNL     1     -41.929 -51.322  13.261  1.00  0.00     0.255 A 
HETATM   22  H   UNL     1     -41.086 -49.718  14.164  1.00  0.00     0.170 HD
HETATM   23  O   UNL     1     -42.206 -50.739  12.215  1.00  0.00    -0.268 OA
ENDBRANCH   1  13
TORSDOF 6
ENDMDL
MODEL 8
REMARK VINA RESULT:      -5.4      2.083      6.152
REMARK  6 active torsions:
REMARK  status: ('A' for Active; 'I' for Inactive)
REMARK    1  A    between atoms: C_2  and  C_4 
REMARK    2  A    between atoms: C_4  and  C_5 
REMARK    3  A    between atoms: C_5  and  C_6 
REMARK    4  A    between atoms: C_6  and  N_8 
REMARK       I    between atoms: N_8  and  C_9 
REMARK    5  A    between atoms: C_9  and  C_11 
REMARK    6  A    between atoms: C_11  and  C_12 
ROOT
HETATM    1  C   UNL     1     -39.860 -54.507  14.095  1.00  0.00     0.149 C 
ENDROOT
BRANCH   1   2
HETATM    2  C   UNL     1     -39.340 -53.425  15.025  1.00  0.00     0.222 C 
HETATM    3  N   UNL     1     -39.014 -52.239  14.400  1.00  0.00    -0.357 N 
HETATM    4  H   UNL     1     -39.372 -52.097  13.455  1.00  0.00     0.162 HD
HETATM    5  O   UNL     1     -39.245 -53.603  16.236  1.00  0.00    -0.273 OA
BRANCH   3   6
HETATM    6  C   UNL     1     -38.593 -51.066  15.162  1.00  0.00     0.080 C 
HETATM    7  C   UNL     1     -39.795 -50.165  15.453  1.00  0.00     0.032 C 
BRANCH   6   8
HETATM    8  C   UNL     1     -37.469 -50.337  14.405  1.00  0.00     0.025 C 
BRANCH   8   9
HETATM    9  C   UNL     1     -37.333 -50.790  12.946  1.00  0.00     0.006 C 
BRANCH   9  10
HETATM   10  C   UNL     1     -37.732 -49.717  11.914  1.00  0.00    -0.023 C 
HETATM   11  C   UNL     1     -37.067 -50.032  10.570  1.00  0.00     0.009 C 
HETATM   12  C   UNL     1     -39.245 -49.606  11.725  1.00  0.00     0.009 C 
ENDBRANCH   9  10
ENDBRANCH   8   9
ENDBRANCH   6   8
ENDBRANCH   3   6
ENDBRANCH   1   2
BRANCH   1  13
HETATM   13  C   UNL     1     -41.289 -54.195  13.763  1.00  0.00     0.041 A 
HETATM   14  C   UNL     1     -42.393 -54.554  14.448  1.00  0.00     0.018 A 
HETATM   15  C   UNL     1     -42.355 -55.346  15.732  1.00  0.00     0.069 C 
HETATM   16  N   UNL     1     -43.672 -54.202  14.075  1.00  0.00    -0.349 N 
HETATM   17  C   UNL     1     -43.820 -53.483  13.014  1.00  0.00     0.080 A 
ATOM     18  HN  UNL     1     -44.479 -54.501  14.624  1.00  0.00     0.167 HD
HETATM   19  C   UNL     1     -45.181 -53.037  12.570  1.00  0.00     0.089 C 
HETATM   20  N   UNL     1     -42.781 -53.074  12.237  1.00  0.00    -0.313 N 
HETATM   21  C   UNL     1     -41.490 -53.370  12.547  1.00  0.00     0.255 A 
HETATM   22  H   UNL     1     -42.930 -52.503  11.418  1.00  0.00     0.170 HD
HETATM   23  O   UNL     1     -40.547 -52.959  11.874  1.00  0.00    -0.268 OA
ENDBRANCH   1  13
TORSDOF 6
ENDMDL
MODEL 9
REMARK VINA RESULT:      -5.4      2.745      5.765
REMARK  6 active torsions:
REMARK  status: ('A' for Active; 'I' for Inactive)
REMARK    1  A    between atoms: C_2  and  C_4 
REMARK    2  A    between atoms: C_4  and  C_5 
REMARK    3  A    between atoms: C_5  and  C_6 
REMARK    4  A    between atoms: C_6  and  N_8 
REMARK       I    between atoms: N_8  and  C_9 
REMARK    5  A    between atoms: C_9  and  C_11 
REMARK    6  A    between atoms: C_11  and  C_12 
ROOT
HETATM    1  C   UNL     1     -44.135 -50.574  16.114  1.00  0.00     0.149 C 
ENDROOT
BRANCH   1   2
HETATM    2  C   UNL     1     -43.467 -51.843  16.611  1.00  0.00     0.222 C 
HETATM    3  N   UNL     1     -42.464 -52.323  15.792  1.00  0.00    -0.357 N 
HETATM    4  H   UNL     1     -42.092 -51.684  15.090  1.00  0.00     0.162 HD
HETATM    5  O   UNL     1     -43.791 -52.374  17.670  1.00  0.00    -0.273 OA
BRANCH   3   6
HETATM    6  C   UNL     1     -41.656 -53.477  16.174  1.00  0.00     0.080 C 
HETATM    7  C   UNL     1     -40.197 -53.060  16.373  1.00  0.00     0.032 C 
BRANCH   6   8
HETATM    8  C   UNL     1     -41.820 -54.590  15.124  1.00  0.00     0.025 C 
BRANCH   8   9
HETATM    9  C   UNL     1     -43.233 -55.185  15.092  1.00  0.00     0.006 C 
BRANCH   9  10
HETATM   10  C   UNL     1     -44.202 -54.456  14.141  1.00  0.00    -0.023 C 
HETATM   11  C   UNL     1     -43.484 -54.145  12.824  1.00  0.00     0.009 C 
HETATM   12  C   UNL     1     -45.473 -55.256  13.857  1.00  0.00     0.009 C 
ENDBRANCH   9  10
ENDBRANCH   8   9
ENDBRANCH   6   8
ENDBRANCH   3   6
ENDBRANCH   1   2
BRANCH   1  13
HETATM   13  C   UNL     1     -44.999 -50.927  14.939  1.00  0.00     0.041 A 
HETATM   14  C   UNL     1     -46.268 -51.381  14.954  1.00  0.00     0.018 A 
HETATM   15  C   UNL     1     -47.061 -51.593  16.221  1.00  0.00     0.069 C 
HETATM   16  N   UNL     1     -46.993 -51.660  13.817  1.00  0.00    -0.349 N 
HETATM   17  C   UNL     1     -46.428 -51.470  12.673  1.00  0.00     0.080 A 
ATOM     18  HN  UNL     1     -47.951 -52.007  13.878  1.00  0.00     0.167 HD
HETATM   19  C   UNL     1     -47.170 -51.723  11.395  1.00  0.00     0.089 C 
HETATM   20  N   UNL     1     -45.148 -51.028  12.536  1.00  0.00    -0.313 N 
HETATM   21  C   UNL     1     -44.375 -50.719  13.611  1.00  0.00     0.255 A 
HETATM   22  H   UNL     1     -44.739 -50.880  11.625  1.00  0.00     0.170 HD
HETATM   23  O   UNL     1     -43.236 -50.272  13.488  1.00  0.00    -0.268 OA
ENDBRANCH   1  13
TORSDOF 6
ENDMDL
