MODEL 1
REMARK VINA RESULT:      -6.2      0.000      0.000
REMARK  3 active torsions:
REMARK  status: ('A' for Active; 'I' for Inactive)
REMARK       I    between atoms: C_2  and  N_3 
REMARK       I    between atoms: C_2  and  N_9 
REMARK    1  A    between atoms: N_3  and  C_4 
REMARK    2  A    between atoms: C_4  and  C_5 
REMARK    3  A    between atoms: N_9  and  C_10 
ROOT
HETATM    1  O   UNL     1     -44.951 -54.734  12.893  1.00  0.00    -0.247 OA
HETATM    2  C   UNL     1     -44.270 -53.760  12.580  1.00  0.00     0.322 C 
HETATM    3  N   UNL     1     -44.799 -52.551  12.243  1.00  0.00    -0.342 N 
HETATM    4  N   UNL     1     -42.913 -53.854  12.660  1.00  0.00    -0.288 N 
HETATM    5  H   UNL     1     -44.191 -51.878  11.786  1.00  0.00     0.164 HD
HETATM    6  H   UNL     1     -42.564 -54.708  13.071  1.00  0.00     0.172 HD
ENDROOT
BRANCH   3   7
HETATM    7  C   UNL     1     -46.217 -52.290  12.303  1.00  0.00     0.129 C 
BRANCH   7   8
HETATM    8  C   UNL     1     -46.464 -51.462  13.555  1.00  0.00     0.003 C 
HETATM    9  C   UNL     1     -45.238 -51.022  14.406  1.00  0.00     0.006 C 
HETATM   10  C   UNL     1     -46.095 -51.303  15.657  1.00  0.00     0.001 C 
HETATM   11  C   UNL     1     -46.908 -52.286  14.794  1.00  0.00     0.006 C 
ENDBRANCH   7   8
ENDBRANCH   3   7
BRANCH   4  12
HETATM   12  C   UNL     1     -42.033 -52.856  12.379  1.00  0.00     0.168 A 
HETATM   13  N   UNL     1     -41.510 -52.516  11.223  1.00  0.00    -0.279 N 
HETATM   14  N   UNL     1     -40.700 -51.403  11.339  1.00  0.00    -0.303 N 
ATOM     15  HN  UNL     1     -41.680 -53.011  10.349  1.00  0.00     0.189 HD
HETATM   16  C   UNL     1     -40.671 -50.950  12.575  1.00  0.00     0.160 A 
ATOM     17  HN  UNL     1     -40.187 -50.984  10.563  1.00  0.00     0.186 HD
HETATM   18  S   UNL     1     -41.569 -51.885  13.701  1.00  0.00    -0.046 SA
ENDBRANCH   4  12
TORSDOF 3
ENDMDL
MODEL 2
REMARK VINA RESULT:      -5.5      1.780      2.024
REMARK  3 active torsions:
REMARK  status: ('A' for Active; 'I' for Inactive)
REMARK       I    between atoms: C_2  and  N_3 
REMARK       I    between atoms: C_2  and  N_9 
REMARK    1  A    between atoms: N_3  and  C_4 
REMARK    2  A    between atoms: C_4  and  C_5 
REMARK    3  A    between atoms: N_9  and  C_10 
ROOT
HETATM    1  O   UNL     1     -43.463 -55.541  15.745  1.00  0.00    -0.247 OA
HETATM    2  C   UNL     1     -43.224 -54.909  14.718  1.00  0.00     0.322 C 
HETATM    3  N   UNL     1     -44.188 -54.496  13.849  1.00  0.00    -0.342 N 
HETATM    4  N   UNL     1     -41.943 -54.517  14.471  1.00  0.00    -0.288 N 
HETATM    5  H   UNL     1     -43.894 -54.185  12.928  1.00  0.00     0.164 HD
HETATM    6  H   UNL     1     -41.286 -54.698  15.217  1.00  0.00     0.172 HD
ENDROOT
BRANCH   3   7
HETATM    7  C   UNL     1     -45.593 -54.699  14.107  1.00  0.00     0.129 C 
BRANCH   7   8
HETATM    8  C   UNL     1     -46.297 -53.388  13.792  1.00  0.00     0.003 C 
HETATM    9  C   UNL     1     -45.439 -52.095  13.673  1.00  0.00     0.006 C 
HETATM   10  C   UNL     1     -46.580 -51.356  14.401  1.00  0.00     0.001 C 
HETATM   11  C   UNL     1     -46.974 -52.712  15.016  1.00  0.00     0.006 C 
ENDBRANCH   7   8
ENDBRANCH   3   7
BRANCH   4  12
HETATM   12  C   UNL     1     -41.530 -53.789  13.399  1.00  0.00     0.168 A 
HETATM   13  N   UNL     1     -41.117 -54.208  12.225  1.00  0.00    -0.279 N 
HETATM   14  N   UNL     1     -40.842 -53.153  11.376  1.00  0.00    -0.303 N 
ATOM     15  HN  UNL     1     -41.013 -55.189  11.970  1.00  0.00     0.189 HD
HETATM   16  C   UNL     1     -41.081 -51.993  11.951  1.00  0.00     0.160 A 
ATOM     17  HN  UNL     1     -40.496 -53.260  10.423  1.00  0.00     0.186 HD
HETATM   18  S   UNL     1     -41.591 -52.096  13.587  1.00  0.00    -0.046 SA
ENDBRANCH   4  12
TORSDOF 3
ENDMDL
MODEL 3
REMARK VINA RESULT:      -5.3      2.228      3.033
REMARK  3 active torsions:
REMARK  status: ('A' for Active; 'I' for Inactive)
REMARK       I    between atoms: C_2  and  N_3 
REMARK       I    between atoms: C_2  and  N_9 
REMARK    1  A    between atoms: N_3  and  C_4 
REMARK    2  A    between atoms: C_4  and  C_5 
REMARK    3  A    between atoms: N_9  and  C_10 
ROOT
HETATM    1  O   UNL     1     -40.614 -53.457  12.439  1.00  0.00    -0.247 OA
HETATM    2  C   UNL     1     -41.023 -52.354  12.083  1.00  0.00     0.322 C 
HETATM    3  N   UNL     1     -42.342 -52.015  12.058  1.00  0.00    -0.342 N 
HETATM    4  N   UNL     1     -40.116 -51.383  11.781  1.00  0.00    -0.288 N 
HETATM    5  H   UNL     1     -42.607 -51.179  11.545  1.00  0.00     0.164 HD
HETATM    6  H   UNL     1     -39.153 -51.619  11.970  1.00  0.00     0.172 HD
ENDROOT
BRANCH   3   7
HETATM    7  C   UNL     1     -43.373 -52.907  12.530  1.00  0.00     0.129 C 
BRANCH   7   8
HETATM    8  C   UNL     1     -44.646 -52.085  12.662  1.00  0.00     0.003 C 
HETATM    9  C   UNL     1     -44.809 -51.163  13.905  1.00  0.00     0.006 C 
HETATM   10  C   UNL     1     -46.291 -51.586  13.937  1.00  0.00     0.001 C 
HETATM   11  C   UNL     1     -45.867 -52.875  13.207  1.00  0.00     0.006 C 
ENDBRANCH   7   8
ENDBRANCH   3   7
BRANCH   4  12
HETATM   12  C   UNL     1     -40.416 -50.111  11.404  1.00  0.00     0.168 A 
HETATM   13  N   UNL     1     -40.665 -49.640  10.204  1.00  0.00    -0.279 N 
HETATM   14  N   UNL     1     -40.988 -48.298  10.239  1.00  0.00    -0.303 N 
ATOM     15  HN  UNL     1     -40.625 -50.197   9.351  1.00  0.00     0.189 HD
HETATM   16  C   UNL     1     -40.984 -47.831  11.470  1.00  0.00     0.160 A 
ATOM     17  HN  UNL     1     -41.202 -47.738   9.414  1.00  0.00     0.186 HD
HETATM   18  S   UNL     1     -40.519 -48.970  12.667  1.00  0.00    -0.046 SA
ENDBRANCH   4  12
TORSDOF 3
ENDMDL
MODEL 4
REMARK VINA RESULT:      -5.3      4.071      6.210
REMARK  3 active torsions:
REMARK  status: ('A' for Active; 'I' for Inactive)
REMARK       I    between atoms: C_2  and  N_3 
REMARK       I    between atoms: C_2  and  N_9 
REMARK    1  A    between atoms: N_3  and  C_4 
REMARK    2  A    between atoms: C_4  and  C_5 
REMARK    3  A    between atoms: N_9  and  C_10 
ROOT
HETATM    1  O   UNL     1     -40.977 -48.912  10.959  1.00  0.00    -0.247 OA
HETATM    2  C   UNL     1     -40.652 -50.036  11.333  1.00  0.00     0.322 C 
HETATM    3  N   UNL     1     -39.363 -50.406  11.571  1.00  0.00    -0.342 N 
HETATM    4  N   UNL     1     -41.630 -50.942  11.616  1.00  0.00    -0.288 N 
HETATM    5  H   UNL     1     -39.162 -51.397  11.656  1.00  0.00     0.164 HD
HETATM    6  H   UNL     1     -42.573 -50.582  11.588  1.00  0.00     0.172 HD
ENDROOT
BRANCH   3   7
HETATM    7  C   UNL     1     -38.268 -49.471  11.478  1.00  0.00     0.129 C 
BRANCH   7   8
HETATM    8  C   UNL     1     -37.413 -49.664  12.722  1.00  0.00     0.003 C 
HETATM    9  C   UNL     1     -37.781 -50.813  13.704  1.00  0.00     0.006 C 
HETATM   10  C   UNL     1     -37.430 -49.847  14.854  1.00  0.00     0.001 C 
HETATM   11  C   UNL     1     -37.744 -48.691  13.886  1.00  0.00     0.006 C 
ENDBRANCH   7   8
ENDBRANCH   3   7
BRANCH   4  12
HETATM   12  C   UNL     1     -41.428 -52.209  12.068  1.00  0.00     0.168 A 
HETATM   13  N   UNL     1     -40.920 -53.242  11.436  1.00  0.00    -0.279 N 
HETATM   14  N   UNL     1     -40.823 -54.347  12.260  1.00  0.00    -0.303 N 
ATOM     15  HN  UNL     1     -40.631 -53.230  10.458  1.00  0.00     0.189 HD
HETATM   16  C   UNL     1     -41.247 -54.082  13.478  1.00  0.00     0.160 A 
ATOM     17  HN  UNL     1     -40.468 -55.255  11.961  1.00  0.00     0.186 HD
HETATM   18  S   UNL     1     -41.860 -52.492  13.693  1.00  0.00    -0.046 SA
ENDBRANCH   4  12
TORSDOF 3
ENDMDL
MODEL 5
REMARK VINA RESULT:      -5.1      3.039      3.624
REMARK  3 active torsions:
REMARK  status: ('A' for Active; 'I' for Inactive)
REMARK       I    between atoms: C_2  and  N_3 
REMARK       I    between atoms: C_2  and  N_9 
REMARK    1  A    between atoms: N_3  and  C_4 
REMARK    2  A    between atoms: C_4  and  C_5 
REMARK    3  A    between atoms: N_9  and  C_10 
ROOT
HETATM    1  O   UNL     1     -41.620 -50.785  14.336  1.00  0.00    -0.247 OA
HETATM    2  C   UNL     1     -42.024 -50.380  13.248  1.00  0.00     0.322 C 
HETATM    3  N   UNL     1     -43.124 -50.882  12.621  1.00  0.00    -0.342 N 
HETATM    4  N   UNL     1     -41.403 -49.312  12.673  1.00  0.00    -0.288 N 
HETATM    5  H   UNL     1     -43.257 -50.654  11.641  1.00  0.00     0.164 HD
HETATM    6  H   UNL     1     -40.701 -48.864  13.243  1.00  0.00     0.172 HD
ENDROOT
BRANCH   3   7
HETATM    7  C   UNL     1     -43.960 -51.889  13.229  1.00  0.00     0.129 C 
BRANCH   7   8
HETATM    8  C   UNL     1     -45.105 -51.160  13.916  1.00  0.00     0.003 C 
HETATM    9  C   UNL     1     -45.469 -51.560  15.375  1.00  0.00     0.006 C 
HETATM   10  C   UNL     1     -46.949 -51.392  14.977  1.00  0.00     0.001 C 
HETATM   11  C   UNL     1     -46.518 -51.671  13.525  1.00  0.00     0.006 C 
ENDBRANCH   7   8
ENDBRANCH   3   7
BRANCH   4  12
HETATM   12  C   UNL     1     -41.755 -48.733  11.493  1.00  0.00     0.168 A 
HETATM   13  N   UNL     1     -41.313 -48.987  10.283  1.00  0.00    -0.279 N 
HETATM   14  N   UNL     1     -41.963 -48.224   9.332  1.00  0.00    -0.303 N 
ATOM     15  HN  UNL     1     -40.580 -49.663  10.071  1.00  0.00     0.189 HD
HETATM   16  C   UNL     1     -42.878 -47.449   9.876  1.00  0.00     0.160 A 
ATOM     17  HN  UNL     1     -41.760 -48.258   8.334  1.00  0.00     0.186 HD
HETATM   18  S   UNL     1     -42.965 -47.537  11.589  1.00  0.00    -0.046 SA
ENDBRANCH   4  12
TORSDOF 3
ENDMDL
MODEL 6
REMARK VINA RESULT:      -4.9      2.574      5.796
REMARK  3 active torsions:
REMARK  status: ('A' for Active; 'I' for Inactive)
REMARK       I    between atoms: C_2  and  N_3 
REMARK       I    between atoms: C_2  and  N_9 
REMARK    1  A    between atoms: N_3  and  C_4 
REMARK    2  A    between atoms: C_4  and  C_5 
REMARK    3  A    between atoms: N_9  and  C_10 
ROOT
HETATM    1  O   UNL     1     -39.406 -54.112  13.401  1.00  0.00    -0.247 OA
HETATM    2  C   UNL     1     -40.493 -53.538  13.386  1.00  0.00     0.322 C 
HETATM    3  N   UNL     1     -40.644 -52.210  13.648  1.00  0.00    -0.342 N 
HETATM    4  N   UNL     1     -41.598 -54.235  13.001  1.00  0.00    -0.288 N 
HETATM    5  H   UNL     1     -41.582 -51.868  13.835  1.00  0.00     0.164 HD
HETATM    6  H   UNL     1     -41.421 -55.168  12.656  1.00  0.00     0.172 HD
ENDROOT
BRANCH   3   7
HETATM    7  C   UNL     1     -39.518 -51.342  13.889  1.00  0.00     0.129 C 
BRANCH   7   8
HETATM    8  C   UNL     1     -38.963 -50.946  12.528  1.00  0.00     0.003 C 
HETATM    9  C   UNL     1     -37.420 -50.926  12.333  1.00  0.00     0.006 C 
HETATM   10  C   UNL     1     -37.613 -49.649  11.491  1.00  0.00     0.001 C 
HETATM   11  C   UNL     1     -38.919 -49.415  12.274  1.00  0.00     0.006 C 
ENDBRANCH   7   8
ENDBRANCH   3   7
BRANCH   4  12
HETATM   12  C   UNL     1     -42.858 -53.731  12.904  1.00  0.00     0.168 A 
HETATM   13  N   UNL     1     -43.406 -53.059  11.918  1.00  0.00    -0.279 N 
HETATM   14  N   UNL     1     -44.732 -52.770  12.173  1.00  0.00    -0.303 N 
ATOM     15  HN  UNL     1     -42.913 -52.784  11.069  1.00  0.00     0.189 HD
HETATM   16  C   UNL     1     -45.120 -53.259  13.333  1.00  0.00     0.160 A 
ATOM     17  HN  UNL     1     -45.336 -52.244  11.542  1.00  0.00     0.186 HD
HETATM   18  S   UNL     1     -43.883 -54.043  14.229  1.00  0.00    -0.046 SA
ENDBRANCH   4  12
TORSDOF 3
ENDMDL
MODEL 7
REMARK VINA RESULT:      -4.8      2.363      3.258
REMARK  3 active torsions:
REMARK  status: ('A' for Active; 'I' for Inactive)
REMARK       I    between atoms: C_2  and  N_3 
REMARK       I    between atoms: C_2  and  N_9 
REMARK    1  A    between atoms: N_3  and  C_4 
REMARK    2  A    between atoms: C_4  and  C_5 
REMARK    3  A    between atoms: N_9  and  C_10 
ROOT
HETATM    1  O   UNL     1     -44.784 -50.725  14.034  1.00  0.00    -0.247 OA
HETATM    2  C   UNL     1     -43.814 -50.920  13.305  1.00  0.00     0.322 C 
HETATM    3  N   UNL     1     -43.641 -52.055  12.572  1.00  0.00    -0.342 N 
HETATM    4  N   UNL     1     -42.903 -49.920  13.143  1.00  0.00    -0.288 N 
HETATM    5  H   UNL     1     -42.721 -52.231  12.180  1.00  0.00     0.164 HD
HETATM    6  H   UNL     1     -43.151 -49.039  13.569  1.00  0.00     0.172 HD
ENDROOT
BRANCH   3   7
HETATM    7  C   UNL     1     -44.636 -53.099  12.529  1.00  0.00     0.129 C 
BRANCH   7   8
HETATM    8  C   UNL     1     -44.037 -54.312  13.227  1.00  0.00     0.003 C 
HETATM    9  C   UNL     1     -44.324 -54.511  14.744  1.00  0.00     0.006 C 
HETATM   10  C   UNL     1     -42.862 -54.981  14.886  1.00  0.00     0.001 C 
HETATM   11  C   UNL     1     -42.546 -54.150  13.628  1.00  0.00     0.006 C 
ENDBRANCH   7   8
ENDBRANCH   3   7
BRANCH   4  12
HETATM   12  C   UNL     1     -41.801 -49.975  12.348  1.00  0.00     0.168 A 
HETATM   13  N   UNL     1     -41.686 -49.688  11.071  1.00  0.00    -0.279 N 
HETATM   14  N   UNL     1     -40.381 -49.813  10.636  1.00  0.00    -0.303 N 
ATOM     15  HN  UNL     1     -42.464 -49.407  10.475  1.00  0.00     0.189 HD
HETATM   16  C   UNL     1     -39.576 -50.169  11.615  1.00  0.00     0.160 A 
ATOM     17  HN  UNL     1     -40.079 -49.649   9.676  1.00  0.00     0.186 HD
HETATM   18  S   UNL     1     -40.356 -50.448  13.119  1.00  0.00    -0.046 SA
ENDBRANCH   4  12
TORSDOF 3
ENDMDL
MODEL 8
REMARK VINA RESULT:      -4.8      2.131      2.796
REMARK  3 active torsions:
REMARK  status: ('A' for Active; 'I' for Inactive)
REMARK       I    between atoms: C_2  and  N_3 
REMARK       I    between atoms: C_2  and  N_9 
REMARK    1  A    between atoms: N_3  and  C_4 
REMARK    2  A    between atoms: C_4  and  C_5 
REMARK    3  A    between atoms: N_9  and  C_10 
ROOT
HETATM    1  O   UNL     1     -41.368 -53.208  15.167  1.00  0.00    -0.247 OA
HETATM    2  C   UNL     1     -41.453 -52.345  14.296  1.00  0.00     0.322 C 
HETATM    3  N   UNL     1     -42.506 -51.487  14.189  1.00  0.00    -0.342 N 
HETATM    4  N   UNL     1     -40.406 -52.168  13.442  1.00  0.00    -0.288 N 
HETATM    5  H   UNL     1     -42.607 -50.966  13.323  1.00  0.00     0.164 HD
HETATM    6  H   UNL     1     -39.580 -52.707  13.656  1.00  0.00     0.172 HD
ENDROOT
BRANCH   3   7
HETATM    7  C   UNL     1     -43.581 -51.469  15.151  1.00  0.00     0.129 C 
BRANCH   7   8
HETATM    8  C   UNL     1     -44.815 -50.948  14.429  1.00  0.00     0.003 C 
HETATM    9  C   UNL     1     -46.214 -51.421  14.916  1.00  0.00     0.006 C 
HETATM   10  C   UNL     1     -46.629 -51.495  13.433  1.00  0.00     0.001 C 
HETATM   11  C   UNL     1     -45.136 -51.681  13.098  1.00  0.00     0.006 C 
ENDBRANCH   7   8
ENDBRANCH   3   7
BRANCH   4  12
HETATM   12  C   UNL     1     -40.342 -51.237  12.452  1.00  0.00     0.168 A 
HETATM   13  N   UNL     1     -40.766 -51.317  11.212  1.00  0.00    -0.279 N 
HETATM   14  N   UNL     1     -40.571 -50.132  10.529  1.00  0.00    -0.303 N 
ATOM     15  HN  UNL     1     -41.188 -52.151  10.804  1.00  0.00     0.189 HD
HETATM   16  C   UNL     1     -40.026 -49.213  11.298  1.00  0.00     0.160 A 
ATOM     17  HN  UNL     1     -40.818 -49.988   9.550  1.00  0.00     0.186 HD
HETATM   18  S   UNL     1     -39.646 -49.742  12.887  1.00  0.00    -0.046 SA
ENDBRANCH   4  12
TORSDOF 3
ENDMDL
MODEL 9
REMARK VINA RESULT:      -4.4      3.126      5.147
REMARK  3 active torsions:
REMARK  status: ('A' for Active; 'I' for Inactive)
REMARK       I    between atoms: C_2  and  N_3 
REMARK       I    between atoms: C_2  and  N_9 
REMARK    1  A    between atoms: N_3  and  C_4 
REMARK    2  A    between atoms: C_4  and  C_5 
REMARK    3  A    between atoms: N_9  and  C_10 
ROOT
HETATM    1  O   UNL     1     -44.591 -54.591  17.326  1.00  0.00    -0.247 OA
HETATM    2  C   UNL     1     -44.639 -53.988  16.257  1.00  0.00     0.322 C 
HETATM    3  N   UNL     1     -43.533 -53.613  15.555  1.00  0.00    -0.342 N 
HETATM    4  N   UNL     1     -45.855 -53.756  15.687  1.00  0.00    -0.288 N 
HETATM    5  H   UNL     1     -43.651 -52.932  14.811  1.00  0.00     0.164 HD
HETATM    6  H   UNL     1     -46.638 -54.192  16.152  1.00  0.00     0.172 HD
ENDROOT
BRANCH   3   7
HETATM    7  C   UNL     1     -42.200 -53.969  15.977  1.00  0.00     0.129 C 
BRANCH   7   8
HETATM    8  C   UNL     1     -41.404 -54.281  14.719  1.00  0.00     0.003 C 
HETATM    9  C   UNL     1     -40.428 -53.200  14.172  1.00  0.00     0.006 C 
HETATM   10  C   UNL     1     -40.885 -53.604  12.756  1.00  0.00     0.001 C 
HETATM   11  C   UNL     1     -42.197 -54.097  13.396  1.00  0.00     0.006 C 
ENDBRANCH   7   8
ENDBRANCH   3   7
BRANCH   4  12
HETATM   12  C   UNL     1     -46.065 -53.132  14.497  1.00  0.00     0.168 A 
HETATM   13  N   UNL     1     -46.068 -53.640  13.286  1.00  0.00    -0.279 N 
HETATM   14  N   UNL     1     -46.382 -52.688  12.335  1.00  0.00    -0.303 N 
ATOM     15  HN  UNL     1     -45.864 -54.616  13.074  1.00  0.00     0.189 HD
HETATM   16  C   UNL     1     -46.620 -51.515  12.883  1.00  0.00     0.160 A 
ATOM     17  HN  UNL     1     -46.425 -52.872  11.333  1.00  0.00     0.186 HD
HETATM   18  S   UNL     1     -46.409 -51.465  14.586  1.00  0.00    -0.046 SA
ENDBRANCH   4  12
TORSDOF 3
ENDMDL
