MODEL 1
REMARK VINA RESULT:      -5.8      0.000      0.000
REMARK  5 active torsions:
REMARK  status: ('A' for Active; 'I' for Inactive)
REMARK    1  A    between atoms: C_2  and  C_3 
REMARK    2  A    between atoms: C_6  and  C_7 
REMARK    3  A    between atoms: C_7  and  C_8 
REMARK    4  A    between atoms: C_8  and  N_9 
REMARK       I    between atoms: N_9  and  C_10 
REMARK    5  A    between atoms: C_10  and  C_12 
ROOT
HETATM    1  C   UNL     1     -41.032 -50.848  12.649  1.00  0.00     0.084 C 
ENDROOT
BRANCH   1   2
HETATM    2  C   UNL     1     -41.148 -49.551  11.913  1.00  0.00     0.053 A 
HETATM    3  N   UNL     1     -42.113 -49.241  11.073  1.00  0.00    -0.356 N 
HETATM    4  C   UNL     1     -41.905 -47.979  10.540  1.00  0.00     0.022 A 
ATOM      5  HN  UNL     1     -42.902 -49.846  10.846  1.00  0.00     0.166 HD
HETATM    6  C   UNL     1     -40.785 -47.323  11.022  1.00  0.00     0.003 A 
HETATM    7  S   UNL     1     -39.963 -48.328  12.144  1.00  0.00    -0.080 SA
HETATM    8  C   UNL     1     -40.270 -45.968  10.690  1.00  0.00     0.058 C 
BRANCH   4   9
HETATM    9  C   UNL     1     -42.887 -47.481   9.531  1.00  0.00     0.054 C 
HETATM   10  C   UNL     1     -44.305 -47.446  10.077  1.00  0.00     0.011 C 
ENDBRANCH   4   9
ENDBRANCH   1   2
BRANCH   1  11
HETATM   11  C   UNL     1     -41.277 -52.048  11.732  1.00  0.00     0.129 C 
BRANCH  11  12
HETATM   12  N   UNL     1     -42.606 -52.612  11.914  1.00  0.00    -0.360 N 
HETATM   13  C   UNL     1     -42.836 -53.628  12.818  1.00  0.00     0.221 C 
HETATM   14  O   UNL     1     -41.945 -54.136  13.491  1.00  0.00    -0.273 OA
HETATM   15  H   UNL     1     -43.377 -52.225  11.385  1.00  0.00     0.162 HD
BRANCH  13  16
HETATM   16  C   UNL     1     -44.292 -54.058  12.894  1.00  0.00     0.078 C 
HETATM   17  C   UNL     1     -45.243 -52.857  12.964  1.00  0.00     0.014 C 
HETATM   18  C   UNL     1     -46.326 -53.215  13.981  1.00  0.00     0.001 C 
HETATM   19  C   UNL     1     -46.101 -54.677  14.336  1.00  0.00     0.001 C 
HETATM   20  C   UNL     1     -44.608 -54.872  14.148  1.00  0.00     0.014 C 
ENDBRANCH  13  16
ENDBRANCH  11  12
ENDBRANCH   1  11
TORSDOF 5
ENDMDL
MODEL 2
REMARK VINA RESULT:      -5.8      2.319      6.726
REMARK  5 active torsions:
REMARK  status: ('A' for Active; 'I' for Inactive)
REMARK    1  A    between atoms: C_2  and  C_3 
REMARK    2  A    between atoms: C_6  and  C_7 
REMARK    3  A    between atoms: C_7  and  C_8 
REMARK    4  A    between atoms: C_8  and  N_9 
REMARK       I    between atoms: N_9  and  C_10 
REMARK    5  A    between atoms: C_10  and  C_12 
ROOT
HETATM    1  C   UNL     1     -41.424 -52.165  12.045  1.00  0.00     0.084 C 
ENDROOT
BRANCH   1   2
HETATM    2  C   UNL     1     -42.768 -52.656  12.483  1.00  0.00     0.053 A 
HETATM    3  N   UNL     1     -43.893 -51.981  12.371  1.00  0.00    -0.356 N 
HETATM    4  C   UNL     1     -44.948 -52.706  12.902  1.00  0.00     0.022 A 
ATOM      5  HN  UNL     1     -43.976 -51.055  11.953  1.00  0.00     0.166 HD
HETATM    6  C   UNL     1     -44.607 -53.959  13.383  1.00  0.00     0.003 A 
HETATM    7  S   UNL     1     -42.921 -54.214  13.191  1.00  0.00    -0.080 SA
HETATM    8  C   UNL     1     -45.472 -55.001  13.998  1.00  0.00     0.058 C 
BRANCH   4   9
HETATM    9  C   UNL     1     -46.300 -52.071  12.896  1.00  0.00     0.054 C 
HETATM   10  C   UNL     1     -46.625 -51.397  14.219  1.00  0.00     0.011 C 
ENDBRANCH   4   9
ENDBRANCH   1   2
BRANCH   1  11
HETATM   11  C   UNL     1     -41.156 -50.736  12.521  1.00  0.00     0.129 C 
BRANCH  11  12
HETATM   12  N   UNL     1     -41.371 -49.760  11.464  1.00  0.00    -0.360 N 
HETATM   13  C   UNL     1     -42.430 -48.878  11.507  1.00  0.00     0.221 C 
HETATM   14  O   UNL     1     -43.265 -48.882  12.406  1.00  0.00    -0.273 OA
HETATM   15  H   UNL     1     -40.708 -49.713  10.701  1.00  0.00     0.162 HD
BRANCH  13  16
HETATM   16  C   UNL     1     -42.466 -47.911  10.335  1.00  0.00     0.078 C 
HETATM   17  C   UNL     1     -41.687 -46.623  10.629  1.00  0.00     0.014 C 
HETATM   18  C   UNL     1     -42.517 -45.471  10.063  1.00  0.00     0.001 C 
HETATM   19  C   UNL     1     -43.654 -46.116   9.285  1.00  0.00     0.001 C 
HETATM   20  C   UNL     1     -43.879 -47.437   9.997  1.00  0.00     0.014 C 
ENDBRANCH  13  16
ENDBRANCH  11  12
ENDBRANCH   1  11
TORSDOF 5
ENDMDL
MODEL 3
REMARK VINA RESULT:      -5.4      3.161      4.077
REMARK  5 active torsions:
REMARK  status: ('A' for Active; 'I' for Inactive)
REMARK    1  A    between atoms: C_2  and  C_3 
REMARK    2  A    between atoms: C_6  and  C_7 
REMARK    3  A    between atoms: C_7  and  C_8 
REMARK    4  A    between atoms: C_8  and  N_9 
REMARK       I    between atoms: N_9  and  C_10 
REMARK    5  A    between atoms: C_10  and  C_12 
ROOT
HETATM    1  C   UNL     1     -41.387 -53.748  12.534  1.00  0.00     0.084 C 
ENDROOT
BRANCH   1   2
HETATM    2  C   UNL     1     -40.422 -52.650  12.853  1.00  0.00     0.053 A 
HETATM    3  N   UNL     1     -40.133 -51.642  12.058  1.00  0.00    -0.356 N 
HETATM    4  C   UNL     1     -39.179 -50.824  12.640  1.00  0.00     0.022 A 
ATOM      5  HN  UNL     1     -40.553 -51.486  11.141  1.00  0.00     0.166 HD
HETATM    6  C   UNL     1     -38.779 -51.210  13.908  1.00  0.00     0.003 A 
HETATM    7  S   UNL     1     -39.598 -52.647  14.361  1.00  0.00    -0.080 SA
HETATM    8  C   UNL     1     -37.799 -50.567  14.824  1.00  0.00     0.058 C 
BRANCH   4   9
HETATM    9  C   UNL     1     -38.701 -49.646  11.853  1.00  0.00     0.054 C 
HETATM   10  C   UNL     1     -37.379 -49.920  11.155  1.00  0.00     0.011 C 
ENDBRANCH   4   9
ENDBRANCH   1   2
BRANCH   1  11
HETATM   11  C   UNL     1     -42.231 -54.137  13.749  1.00  0.00     0.129 C 
BRANCH  11  12
HETATM   12  N   UNL     1     -43.265 -53.153  14.032  1.00  0.00    -0.360 N 
HETATM   13  C   UNL     1     -44.495 -53.206  13.412  1.00  0.00     0.221 C 
HETATM   14  O   UNL     1     -44.781 -54.051  12.570  1.00  0.00    -0.273 OA
HETATM   15  H   UNL     1     -43.080 -52.437  14.723  1.00  0.00     0.162 HD
BRANCH  13  16
HETATM   16  C   UNL     1     -45.455 -52.118  13.865  1.00  0.00     0.078 C 
HETATM   17  C   UNL     1     -44.819 -51.188  14.906  1.00  0.00     0.014 C 
HETATM   18  C   UNL     1     -45.891 -50.912  15.959  1.00  0.00     0.001 C 
HETATM   19  C   UNL     1     -47.177 -51.516  15.416  1.00  0.00     0.001 C 
HETATM   20  C   UNL     1     -46.701 -52.671  14.554  1.00  0.00     0.014 C 
ENDBRANCH  13  16
ENDBRANCH  11  12
ENDBRANCH   1  11
TORSDOF 5
ENDMDL
MODEL 4
REMARK VINA RESULT:      -5.4      1.565      2.044
REMARK  5 active torsions:
REMARK  status: ('A' for Active; 'I' for Inactive)
REMARK    1  A    between atoms: C_2  and  C_3 
REMARK    2  A    between atoms: C_6  and  C_7 
REMARK    3  A    between atoms: C_7  and  C_8 
REMARK    4  A    between atoms: C_8  and  N_9 
REMARK       I    between atoms: N_9  and  C_10 
REMARK    5  A    between atoms: C_10  and  C_12 
ROOT
HETATM    1  C   UNL     1     -41.086 -49.671  12.623  1.00  0.00     0.084 C 
ENDROOT
BRANCH   1   2
HETATM    2  C   UNL     1     -41.749 -48.557  11.878  1.00  0.00     0.053 A 
HETATM    3  N   UNL     1     -42.725 -48.704  11.007  1.00  0.00    -0.356 N 
HETATM    4  C   UNL     1     -43.088 -47.478  10.474  1.00  0.00     0.022 A 
ATOM      5  HN  UNL     1     -43.153 -49.596  10.760  1.00  0.00     0.166 HD
HETATM    6  C   UNL     1     -42.394 -46.394  10.986  1.00  0.00     0.003 A 
HETATM    7  S   UNL     1     -41.243 -46.934  12.136  1.00  0.00    -0.080 SA
HETATM    8  C   UNL     1     -42.531 -44.949  10.661  1.00  0.00     0.058 C 
BRANCH   4   9
HETATM    9  C   UNL     1     -44.160 -47.464   9.433  1.00  0.00     0.054 C 
HETATM   10  C   UNL     1     -43.602 -47.644   8.031  1.00  0.00     0.011 C 
ENDBRANCH   4   9
ENDBRANCH   1   2
BRANCH   1  11
HETATM   11  C   UNL     1     -40.818 -50.880  11.724  1.00  0.00     0.129 C 
BRANCH  11  12
HETATM   12  N   UNL     1     -41.526 -52.066  12.179  1.00  0.00    -0.360 N 
HETATM   13  C   UNL     1     -40.877 -53.072  12.862  1.00  0.00     0.221 C 
HETATM   14  O   UNL     1     -39.673 -53.048  13.098  1.00  0.00    -0.273 OA
HETATM   15  H   UNL     1     -42.523 -52.133  12.012  1.00  0.00     0.162 HD
BRANCH  13  16
HETATM   16  C   UNL     1     -41.791 -54.210  13.287  1.00  0.00     0.078 C 
HETATM   17  C   UNL     1     -43.267 -53.895  13.010  1.00  0.00     0.014 C 
HETATM   18  C   UNL     1     -44.055 -54.399  14.218  1.00  0.00     0.001 C 
HETATM   19  C   UNL     1     -43.062 -55.166  15.077  1.00  0.00     0.001 C 
HETATM   20  C   UNL     1     -41.734 -54.492  14.787  1.00  0.00     0.014 C 
ENDBRANCH  13  16
ENDBRANCH  11  12
ENDBRANCH   1  11
TORSDOF 5
ENDMDL
MODEL 5
REMARK VINA RESULT:      -5.3      2.952      6.700
REMARK  5 active torsions:
REMARK  status: ('A' for Active; 'I' for Inactive)
REMARK    1  A    between atoms: C_2  and  C_3 
REMARK    2  A    between atoms: C_6  and  C_7 
REMARK    3  A    between atoms: C_7  and  C_8 
REMARK    4  A    between atoms: C_8  and  N_9 
REMARK       I    between atoms: N_9  and  C_10 
REMARK    5  A    between atoms: C_10  and  C_12 
ROOT
HETATM    1  C   UNL     1     -41.639 -53.097  12.983  1.00  0.00     0.084 C 
ENDROOT
BRANCH   1   2
HETATM    2  C   UNL     1     -43.110 -53.090  13.254  1.00  0.00     0.053 A 
HETATM    3  N   UNL     1     -43.957 -52.186  12.809  1.00  0.00    -0.356 N 
HETATM    4  C   UNL     1     -45.237 -52.454  13.268  1.00  0.00     0.022 A 
ATOM      5  HN  UNL     1     -43.706 -51.399  12.211  1.00  0.00     0.166 HD
HETATM    6  C   UNL     1     -45.350 -53.600  14.037  1.00  0.00     0.003 A 
HETATM    7  S   UNL     1     -43.810 -54.335  14.210  1.00  0.00    -0.080 SA
HETATM    8  C   UNL     1     -46.556 -54.194  14.673  1.00  0.00     0.058 C 
BRANCH   4   9
HETATM    9  C   UNL     1     -46.323 -51.500  12.891  1.00  0.00     0.054 C 
HETATM   10  C   UNL     1     -46.977 -51.866  11.568  1.00  0.00     0.011 C 
ENDBRANCH   4   9
ENDBRANCH   1   2
BRANCH   1  11
HETATM   11  C   UNL     1     -41.303 -52.455  11.635  1.00  0.00     0.129 C 
BRANCH  11  12
HETATM   12  N   UNL     1     -40.417 -51.311  11.781  1.00  0.00    -0.360 N 
HETATM   13  C   UNL     1     -40.913 -50.037  11.955  1.00  0.00     0.221 C 
HETATM   14  O   UNL     1     -42.114 -49.785  11.966  1.00  0.00    -0.273 OA
HETATM   15  H   UNL     1     -39.417 -51.466  11.782  1.00  0.00     0.162 HD
BRANCH  13  16
HETATM   16  C   UNL     1     -39.834 -48.980  12.126  1.00  0.00     0.078 C 
HETATM   17  C   UNL     1     -38.467 -49.600  12.442  1.00  0.00     0.014 C 
HETATM   18  C   UNL     1     -37.824 -48.720  13.513  1.00  0.00     0.001 C 
HETATM   19  C   UNL     1     -38.729 -47.507  13.658  1.00  0.00     0.001 C 
HETATM   20  C   UNL     1     -40.106 -48.035  13.295  1.00  0.00     0.014 C 
ENDBRANCH  13  16
ENDBRANCH  11  12
ENDBRANCH   1  11
TORSDOF 5
ENDMDL
MODEL 6
REMARK VINA RESULT:      -5.3      3.398      6.522
REMARK  5 active torsions:
REMARK  status: ('A' for Active; 'I' for Inactive)
REMARK    1  A    between atoms: C_2  and  C_3 
REMARK    2  A    between atoms: C_6  and  C_7 
REMARK    3  A    between atoms: C_7  and  C_8 
REMARK    4  A    between atoms: C_8  and  N_9 
REMARK       I    between atoms: N_9  and  C_10 
REMARK    5  A    between atoms: C_10  and  C_12 
ROOT
HETATM    1  C   UNL     1     -42.406 -54.309  14.285  1.00  0.00     0.084 C 
ENDROOT
BRANCH   1   2
HETATM    2  C   UNL     1     -43.617 -53.456  14.077  1.00  0.00     0.053 A 
HETATM    3  N   UNL     1     -44.157 -52.674  14.988  1.00  0.00    -0.356 N 
HETATM    4  C   UNL     1     -45.286 -52.050  14.483  1.00  0.00     0.022 A 
ATOM      5  HN  UNL     1     -43.795 -52.547  15.932  1.00  0.00     0.166 HD
HETATM    6  C   UNL     1     -45.570 -52.344  13.160  1.00  0.00     0.003 A 
HETATM    7  S   UNL     1     -44.410 -53.452  12.552  1.00  0.00    -0.080 SA
HETATM    8  C   UNL     1     -46.677 -51.849  12.299  1.00  0.00     0.058 C 
BRANCH   4   9
HETATM    9  C   UNL     1     -46.052 -51.152  15.399  1.00  0.00     0.054 C 
HETATM   10  C   UNL     1     -47.319 -51.809  15.922  1.00  0.00     0.011 C 
ENDBRANCH   4   9
ENDBRANCH   1   2
BRANCH   1  11
HETATM   11  C   UNL     1     -41.424 -54.199  13.117  1.00  0.00     0.129 C 
BRANCH  11  12
HETATM   12  N   UNL     1     -40.481 -53.106  13.297  1.00  0.00    -0.360 N 
HETATM   13  C   UNL     1     -40.616 -51.920  12.607  1.00  0.00     0.221 C 
HETATM   14  O   UNL     1     -41.506 -51.726  11.784  1.00  0.00    -0.273 OA
HETATM   15  H   UNL     1     -39.731 -53.215  13.968  1.00  0.00     0.162 HD
BRANCH  13  16
HETATM   16  C   UNL     1     -39.559 -50.886  12.957  1.00  0.00     0.078 C 
HETATM   17  C   UNL     1     -39.116 -50.079  11.730  1.00  0.00     0.014 C 
HETATM   18  C   UNL     1     -37.600 -49.918  11.836  1.00  0.00     0.001 C 
HETATM   19  C   UNL     1     -37.216 -50.456  13.206  1.00  0.00     0.001 C 
HETATM   20  C   UNL     1     -38.271 -51.510  13.491  1.00  0.00     0.014 C 
ENDBRANCH  13  16
ENDBRANCH  11  12
ENDBRANCH   1  11
TORSDOF 5
ENDMDL
MODEL 7
REMARK VINA RESULT:      -5.3      3.428      6.964
REMARK  5 active torsions:
REMARK  status: ('A' for Active; 'I' for Inactive)
REMARK    1  A    between atoms: C_2  and  C_3 
REMARK    2  A    between atoms: C_6  and  C_7 
REMARK    3  A    between atoms: C_7  and  C_8 
REMARK    4  A    between atoms: C_8  and  N_9 
REMARK       I    between atoms: N_9  and  C_10 
REMARK    5  A    between atoms: C_10  and  C_12 
ROOT
HETATM    1  C   UNL     1     -41.486 -51.536  12.416  1.00  0.00     0.084 C 
ENDROOT
BRANCH   1   2
HETATM    2  C   UNL     1     -42.798 -52.184  12.725  1.00  0.00     0.053 A 
HETATM    3  N   UNL     1     -43.965 -51.578  12.704  1.00  0.00    -0.356 N 
HETATM    4  C   UNL     1     -44.974 -52.454  13.072  1.00  0.00     0.022 A 
ATOM      5  HN  UNL     1     -44.107 -50.599  12.453  1.00  0.00     0.166 HD
HETATM    6  C   UNL     1     -44.552 -53.747  13.334  1.00  0.00     0.003 A 
HETATM    7  S   UNL     1     -42.851 -53.851  13.144  1.00  0.00    -0.080 SA
HETATM    8  C   UNL     1     -45.351 -54.936  13.733  1.00  0.00     0.058 C 
BRANCH   4   9
HETATM    9  C   UNL     1     -46.367 -51.919  13.142  1.00  0.00     0.054 C 
HETATM   10  C   UNL     1     -46.718 -51.408  14.529  1.00  0.00     0.011 C 
ENDBRANCH   4   9
ENDBRANCH   1   2
BRANCH   1  11
HETATM   11  C   UNL     1     -40.311 -52.310  13.016  1.00  0.00     0.129 C 
BRANCH  11  12
HETATM   12  N   UNL     1     -39.426 -51.449  13.787  1.00  0.00    -0.360 N 
HETATM   13  C   UNL     1     -38.230 -51.002  13.268  1.00  0.00     0.221 C 
HETATM   14  O   UNL     1     -37.824 -51.322  12.156  1.00  0.00    -0.273 OA
HETATM   15  H   UNL     1     -39.717 -51.153  14.710  1.00  0.00     0.162 HD
BRANCH  13  16
HETATM   16  C   UNL     1     -37.464 -50.084  14.207  1.00  0.00     0.078 C 
HETATM   17  C   UNL     1     -38.040 -50.105  15.628  1.00  0.00     0.014 C 
HETATM   18  C   UNL     1     -38.024 -48.661  16.128  1.00  0.00     0.001 C 
HETATM   19  C   UNL     1     -37.265 -47.862  15.079  1.00  0.00     0.001 C 
HETATM   20  C   UNL     1     -37.528 -48.616  13.788  1.00  0.00     0.014 C 
ENDBRANCH  13  16
ENDBRANCH  11  12
ENDBRANCH   1  11
TORSDOF 5
ENDMDL
MODEL 8
REMARK VINA RESULT:      -5.2      1.760      2.688
REMARK  5 active torsions:
REMARK  status: ('A' for Active; 'I' for Inactive)
REMARK    1  A    between atoms: C_2  and  C_3 
REMARK    2  A    between atoms: C_6  and  C_7 
REMARK    3  A    between atoms: C_7  and  C_8 
REMARK    4  A    between atoms: C_8  and  N_9 
REMARK       I    between atoms: N_9  and  C_10 
REMARK    5  A    between atoms: C_10  and  C_12 
ROOT
HETATM    1  C   UNL     1     -40.435 -49.541  12.339  1.00  0.00     0.084 C 
ENDROOT
BRANCH   1   2
HETATM    2  C   UNL     1     -40.815 -48.296  11.601  1.00  0.00     0.053 A 
HETATM    3  N   UNL     1     -39.994 -47.311  11.305  1.00  0.00    -0.356 N 
HETATM    4  C   UNL     1     -40.670 -46.296  10.649  1.00  0.00     0.022 A 
ATOM      5  HN  UNL     1     -38.999 -47.298  11.528  1.00  0.00     0.166 HD
HETATM    6  C   UNL     1     -42.013 -46.547  10.419  1.00  0.00     0.003 A 
HETATM    7  S   UNL     1     -42.435 -48.077  11.070  1.00  0.00    -0.080 SA
HETATM    8  C   UNL     1     -43.027 -45.700   9.737  1.00  0.00     0.058 C 
BRANCH   4   9
HETATM    9  C   UNL     1     -39.895 -45.075  10.273  1.00  0.00     0.054 C 
HETATM   10  C   UNL     1     -40.108 -43.934  11.253  1.00  0.00     0.011 C 
ENDBRANCH   4   9
ENDBRANCH   1   2
BRANCH   1  11
HETATM   11  C   UNL     1     -40.290 -50.739  11.399  1.00  0.00     0.129 C 
BRANCH  11  12
HETATM   12  N   UNL     1     -41.184 -51.828  11.760  1.00  0.00    -0.360 N 
HETATM   13  C   UNL     1     -40.776 -52.844  12.598  1.00  0.00     0.221 C 
HETATM   14  O   UNL     1     -39.641 -52.912  13.059  1.00  0.00    -0.273 OA
HETATM   15  H   UNL     1     -42.133 -51.816  11.408  1.00  0.00     0.162 HD
BRANCH  13  16
HETATM   16  C   UNL     1     -41.861 -53.868  12.888  1.00  0.00     0.078 C 
HETATM   17  C   UNL     1     -43.266 -53.299  12.653  1.00  0.00     0.014 C 
HETATM   18  C   UNL     1     -44.142 -53.812  13.796  1.00  0.00     0.001 C 
HETATM   19  C   UNL     1     -43.292 -54.818  14.557  1.00  0.00     0.001 C 
HETATM   20  C   UNL     1     -41.871 -54.328  14.345  1.00  0.00     0.014 C 
ENDBRANCH  13  16
ENDBRANCH  11  12
ENDBRANCH   1  11
TORSDOF 5
ENDMDL
MODEL 9
REMARK VINA RESULT:      -5.1      2.005      3.089
REMARK  5 active torsions:
REMARK  status: ('A' for Active; 'I' for Inactive)
REMARK    1  A    between atoms: C_2  and  C_3 
REMARK    2  A    between atoms: C_6  and  C_7 
REMARK    3  A    between atoms: C_7  and  C_8 
REMARK    4  A    between atoms: C_8  and  N_9 
REMARK       I    between atoms: N_9  and  C_10 
REMARK    5  A    between atoms: C_10  and  C_12 
ROOT
HETATM    1  C   UNL     1     -41.229 -48.796  10.924  1.00  0.00     0.084 C 
ENDROOT
BRANCH   1   2
HETATM    2  C   UNL     1     -40.669 -47.441  11.220  1.00  0.00     0.053 A 
HETATM    3  N   UNL     1     -40.422 -46.511  10.322  1.00  0.00    -0.356 N 
HETATM    4  C   UNL     1     -39.876 -45.389  10.923  1.00  0.00     0.022 A 
ATOM      5  HN  UNL     1     -40.607 -46.605   9.323  1.00  0.00     0.166 HD
HETATM    6  C   UNL     1     -39.750 -45.471  12.300  1.00  0.00     0.003 A 
HETATM    7  S   UNL     1     -40.300 -47.003  12.841  1.00  0.00    -0.080 SA
HETATM    8  C   UNL     1     -39.227 -44.463  13.261  1.00  0.00     0.058 C 
BRANCH   4   9
HETATM    9  C   UNL     1     -39.495 -44.244  10.041  1.00  0.00     0.054 C 
HETATM   10  C   UNL     1     -38.630 -44.683   8.871  1.00  0.00     0.011 C 
ENDBRANCH   4   9
ENDBRANCH   1   2
BRANCH   1  11
HETATM   11  C   UNL     1     -42.305 -49.202  11.933  1.00  0.00     0.129 C 
BRANCH  11  12
HETATM   12  N   UNL     1     -42.384 -50.645  12.096  1.00  0.00    -0.360 N 
HETATM   13  C   UNL     1     -43.222 -51.217  13.029  1.00  0.00     0.221 C 
HETATM   14  O   UNL     1     -43.920 -50.556  13.793  1.00  0.00    -0.273 OA
HETATM   15  H   UNL     1     -41.830 -51.235  11.488  1.00  0.00     0.162 HD
BRANCH  13  16
HETATM   16  C   UNL     1     -43.194 -52.737  13.025  1.00  0.00     0.078 C 
HETATM   17  C   UNL     1     -44.518 -53.334  12.532  1.00  0.00     0.014 C 
HETATM   18  C   UNL     1     -44.820 -54.531  13.432  1.00  0.00     0.001 C 
HETATM   19  C   UNL     1     -43.583 -54.729  14.296  1.00  0.00     0.001 C 
HETATM   20  C   UNL     1     -42.999 -53.333  14.417  1.00  0.00     0.014 C 
ENDBRANCH  13  16
ENDBRANCH  11  12
ENDBRANCH   1  11
TORSDOF 5
ENDMDL
