MODEL 1
REMARK VINA RESULT:      -6.2      0.000      0.000
REMARK  3 active torsions:
REMARK  status: ('A' for Active; 'I' for Inactive)
REMARK    1  A    between atoms: C_5  and  N_20 
REMARK    2  A    between atoms: C_8  and  N_9 
REMARK       I    between atoms: N_9  and  C_10 
REMARK       I    between atoms: C_10  and  N_12 
REMARK    3  A    between atoms: N_12  and  C_13 
ROOT
HETATM    1  C   UNL     1     -38.703 -50.096  13.305  1.00  0.00     0.070 C 
HETATM    2  C   UNL     1     -39.593 -51.275  13.053  1.00  0.00     0.034 A 
HETATM    3  N   UNL     1     -39.467 -52.265  13.991  1.00  0.00    -0.344 N 
ATOM      4  HN  UNL     1     -38.781 -52.166  14.738  1.00  0.00     0.167 HD
HETATM    5  C   UNL     1     -40.241 -53.374  13.939  1.00  0.00     0.103 A 
HETATM    6  C   UNL     1     -41.199 -53.480  12.944  1.00  0.00     0.051 A 
HETATM    7  C   UNL     1     -41.363 -52.454  12.000  1.00  0.00     0.035 A 
HETATM    8  C   UNL     1     -40.530 -51.335  12.018  1.00  0.00     0.058 A 
ENDROOT
BRANCH   8   9
HETATM    9  N   UNL     1     -40.741 -50.340  11.020  1.00  0.00    -0.307 N 
HETATM   10  C   UNL     1     -41.597 -49.270  11.190  1.00  0.00     0.321 C 
HETATM   11  O   UNL     1     -42.240 -49.044  12.210  1.00  0.00    -0.247 OA
HETATM   12  N   UNL     1     -41.643 -48.441  10.085  1.00  0.00    -0.334 N 
HETATM   13  H   UNL     1     -40.971 -48.631   9.357  1.00  0.00     0.165 HD
HETATM   14  H   UNL     1     -39.930 -50.113  10.465  1.00  0.00     0.170 HD
BRANCH  12  15
HETATM   15  C   UNL     1     -42.308 -47.108  10.070  1.00  0.00     0.035 C 
HETATM   16  C   UNL     1     -41.359 -46.059  10.687  1.00  0.00     0.039 C 
HETATM   17  C   UNL     1     -43.651 -47.091  10.839  1.00  0.00     0.057 C 
HETATM   18  C   UNL     1     -44.795 -47.757  10.084  1.00  0.00     0.170 C 
HETATM   19  O   UNL     1     -44.915 -47.253   8.755  1.00  0.00    -0.391 OA
HETATM   20  C   UNL     1     -43.729 -47.468   7.997  1.00  0.00     0.170 C 
HETATM   21  C   UNL     1     -42.580 -46.682   8.607  1.00  0.00     0.057 C 
ENDBRANCH  12  15
ENDBRANCH   8   9
BRANCH   5  22
HETATM   22  N   UNL     1     -40.021 -54.348  14.873  1.00  0.00    -0.367 N 
HETATM   23  C   UNL     1     -38.765 -55.016  15.147  1.00  0.00     0.124 C 
HETATM   24  C   UNL     1     -39.031 -55.861  16.398  1.00  0.00     0.021 C 
HETATM   25  C   UNL     1     -40.393 -55.410  16.911  1.00  0.00     0.021 C 
HETATM   26  C   UNL     1     -41.108 -54.886  15.673  1.00  0.00     0.124 C 
ENDBRANCH   5  22
TORSDOF 3
ENDMDL
MODEL 2
REMARK VINA RESULT:      -6.2      3.017      8.663
REMARK  3 active torsions:
REMARK  status: ('A' for Active; 'I' for Inactive)
REMARK    1  A    between atoms: C_5  and  N_20 
REMARK    2  A    between atoms: C_8  and  N_9 
REMARK       I    between atoms: N_9  and  C_10 
REMARK       I    between atoms: C_10  and  N_12 
REMARK    3  A    between atoms: N_12  and  C_13 
ROOT
HETATM    1  C   UNL     1     -44.295 -47.464   9.982  1.00  0.00     0.070 C 
HETATM    2  C   UNL     1     -43.091 -46.994  10.741  1.00  0.00     0.034 A 
HETATM    3  N   UNL     1     -42.929 -45.635  10.724  1.00  0.00    -0.344 N 
ATOM      4  HN  UNL     1     -43.577 -45.058  10.188  1.00  0.00     0.167 HD
HETATM    5  C   UNL     1     -41.921 -45.046  11.407  1.00  0.00     0.103 A 
HETATM    6  C   UNL     1     -41.072 -45.835  12.166  1.00  0.00     0.051 A 
HETATM    7  C   UNL     1     -41.250 -47.226  12.221  1.00  0.00     0.035 A 
HETATM    8  C   UNL     1     -42.255 -47.842  11.474  1.00  0.00     0.058 A 
ENDROOT
BRANCH   8   9
HETATM    9  N   UNL     1     -42.370 -49.259  11.564  1.00  0.00    -0.307 N 
HETATM   10  C   UNL     1     -42.953 -49.902  12.637  1.00  0.00     0.321 C 
HETATM   11  O   UNL     1     -43.455 -49.337  13.603  1.00  0.00    -0.247 OA
HETATM   12  N   UNL     1     -42.944 -51.278  12.505  1.00  0.00    -0.334 N 
HETATM   13  H   UNL     1     -42.643 -51.639  11.613  1.00  0.00     0.165 HD
HETATM   14  H   UNL     1     -42.526 -49.731  10.687  1.00  0.00     0.170 HD
BRANCH  12  15
HETATM   15  C   UNL     1     -43.693 -52.206  13.399  1.00  0.00     0.035 C 
HETATM   16  C   UNL     1     -45.203 -51.904  13.298  1.00  0.00     0.039 C 
HETATM   17  C   UNL     1     -43.254 -52.107  14.880  1.00  0.00     0.057 C 
HETATM   18  C   UNL     1     -41.918 -52.782  15.167  1.00  0.00     0.170 C 
HETATM   19  O   UNL     1     -41.885 -54.119  14.671  1.00  0.00    -0.391 OA
HETATM   20  C   UNL     1     -42.086 -54.167  13.263  1.00  0.00     0.170 C 
HETATM   21  C   UNL     1     -43.479 -53.664  12.926  1.00  0.00     0.057 C 
ENDBRANCH  12  15
ENDBRANCH   8   9
BRANCH   5  22
HETATM   22  N   UNL     1     -41.784 -43.689  11.298  1.00  0.00    -0.367 N 
HETATM   23  C   UNL     1     -42.837 -42.735  11.016  1.00  0.00     0.124 C 
HETATM   24  C   UNL     1     -42.182 -41.360  11.198  1.00  0.00     0.021 C 
HETATM   25  C   UNL     1     -40.825 -41.637  11.833  1.00  0.00     0.021 C 
HETATM   26  C   UNL     1     -40.482 -43.052  11.388  1.00  0.00     0.124 C 
ENDBRANCH   5  22
TORSDOF 3
ENDMDL
MODEL 3
REMARK VINA RESULT:      -6.0      3.584      8.056
REMARK  3 active torsions:
REMARK  status: ('A' for Active; 'I' for Inactive)
REMARK    1  A    between atoms: C_5  and  N_20 
REMARK    2  A    between atoms: C_8  and  N_9 
REMARK       I    between atoms: N_9  and  C_10 
REMARK       I    between atoms: C_10  and  N_12 
REMARK    3  A    between atoms: N_12  and  C_13 
ROOT
HETATM    1  C   UNL     1     -40.233 -49.511  13.261  1.00  0.00     0.070 C 
HETATM    2  C   UNL     1     -41.196 -48.497  12.721  1.00  0.00     0.034 A 
HETATM    3  N   UNL     1     -40.656 -47.246  12.587  1.00  0.00    -0.344 N 
ATOM      4  HN  UNL     1     -39.696 -47.078  12.888  1.00  0.00     0.167 HD
HETATM    5  C   UNL     1     -41.378 -46.229  12.061  1.00  0.00     0.103 A 
HETATM    6  C   UNL     1     -42.666 -46.479  11.617  1.00  0.00     0.051 A 
HETATM    7  C   UNL     1     -43.218 -47.766  11.714  1.00  0.00     0.035 A 
HETATM    8  C   UNL     1     -42.496 -48.803  12.306  1.00  0.00     0.058 A 
ENDROOT
BRANCH   8   9
HETATM    9  N   UNL     1     -43.123 -50.080  12.388  1.00  0.00    -0.307 N 
HETATM   10  C   UNL     1     -43.808 -50.515  13.504  1.00  0.00     0.321 C 
HETATM   11  O   UNL     1     -43.976 -49.853  14.524  1.00  0.00    -0.247 OA
HETATM   12  N   UNL     1     -44.325 -51.788  13.353  1.00  0.00    -0.334 N 
HETATM   13  H   UNL     1     -44.259 -52.189  12.430  1.00  0.00     0.165 HD
HETATM   14  H   UNL     1     -43.520 -50.416  11.524  1.00  0.00     0.170 HD
BRANCH  12  15
HETATM   15  C   UNL     1     -45.284 -52.416  14.304  1.00  0.00     0.035 C 
HETATM   16  C   UNL     1     -46.510 -51.495  14.475  1.00  0.00     0.039 C 
HETATM   17  C   UNL     1     -44.663 -52.698  15.694  1.00  0.00     0.057 C 
HETATM   18  C   UNL     1     -43.732 -53.905  15.713  1.00  0.00     0.170 C 
HETATM   19  O   UNL     1     -44.348 -55.057  15.141  1.00  0.00    -0.391 OA
HETATM   20  C   UNL     1     -44.726 -54.839  13.786  1.00  0.00     0.170 C 
HETATM   21  C   UNL     1     -45.790 -53.757  13.717  1.00  0.00     0.057 C 
ENDBRANCH  12  15
ENDBRANCH   8   9
BRANCH   5  22
HETATM   22  N   UNL     1     -40.794 -44.994  12.011  1.00  0.00    -0.367 N 
HETATM   23  C   UNL     1     -41.288 -43.833  11.299  1.00  0.00     0.124 C 
HETATM   24  C   UNL     1     -40.371 -42.684  11.733  1.00  0.00     0.021 C 
HETATM   25  C   UNL     1     -39.547 -43.235  12.890  1.00  0.00     0.021 C 
HETATM   26  C   UNL     1     -39.512 -44.738  12.645  1.00  0.00     0.124 C 
ENDBRANCH   5  22
TORSDOF 3
ENDMDL
MODEL 4
REMARK VINA RESULT:      -5.7      3.033      8.605
REMARK  3 active torsions:
REMARK  status: ('A' for Active; 'I' for Inactive)
REMARK    1  A    between atoms: C_5  and  N_20 
REMARK    2  A    between atoms: C_8  and  N_9 
REMARK       I    between atoms: N_9  and  C_10 
REMARK       I    between atoms: C_10  and  N_12 
REMARK    3  A    between atoms: N_12  and  C_13 
ROOT
HETATM    1  C   UNL     1     -43.069 -47.142  14.357  1.00  0.00     0.070 C 
HETATM    2  C   UNL     1     -42.933 -46.808  12.902  1.00  0.00     0.034 A 
HETATM    3  N   UNL     1     -42.614 -45.497  12.669  1.00  0.00    -0.344 N 
ATOM      4  HN  UNL     1     -42.535 -44.851  13.454  1.00  0.00     0.167 HD
HETATM    5  C   UNL     1     -42.401 -45.046  11.411  1.00  0.00     0.103 A 
HETATM    6  C   UNL     1     -42.468 -45.941  10.356  1.00  0.00     0.051 A 
HETATM    7  C   UNL     1     -42.758 -47.295  10.586  1.00  0.00     0.035 A 
HETATM    8  C   UNL     1     -43.032 -47.751  11.875  1.00  0.00     0.058 A 
ENDROOT
BRANCH   8   9
HETATM    9  N   UNL     1     -43.335 -49.135  12.035  1.00  0.00    -0.307 N 
HETATM   10  C   UNL     1     -42.389 -50.079  12.380  1.00  0.00     0.321 C 
HETATM   11  O   UNL     1     -41.209 -49.836  12.612  1.00  0.00    -0.247 OA
HETATM   12  N   UNL     1     -42.915 -51.354  12.470  1.00  0.00    -0.334 N 
HETATM   13  H   UNL     1     -43.919 -51.428  12.406  1.00  0.00     0.165 HD
HETATM   14  H   UNL     1     -44.247 -49.330  12.417  1.00  0.00     0.170 HD
BRANCH  12  15
HETATM   15  C   UNL     1     -42.179 -52.522  13.031  1.00  0.00     0.035 C 
HETATM   16  C   UNL     1     -40.922 -52.789  12.177  1.00  0.00     0.039 C 
HETATM   17  C   UNL     1     -43.036 -53.810  13.089  1.00  0.00     0.057 C 
HETATM   18  C   UNL     1     -44.059 -53.811  14.219  1.00  0.00     0.170 C 
HETATM   19  O   UNL     1     -43.460 -53.492  15.474  1.00  0.00    -0.391 OA
HETATM   20  C   UNL     1     -42.852 -52.205  15.459  1.00  0.00     0.170 C 
HETATM   21  C   UNL     1     -41.702 -52.191  14.467  1.00  0.00     0.057 C 
ENDBRANCH  12  15
ENDBRANCH   8   9
BRANCH   5  22
HETATM   22  N   UNL     1     -42.143 -43.713  11.247  1.00  0.00    -0.367 N 
HETATM   23  C   UNL     1     -43.114 -42.671  10.983  1.00  0.00     0.124 C 
HETATM   24  C   UNL     1     -42.324 -41.361  11.084  1.00  0.00     0.021 C 
HETATM   25  C   UNL     1     -40.967 -41.747  11.661  1.00  0.00     0.021 C 
HETATM   26  C   UNL     1     -40.783 -43.202  11.250  1.00  0.00     0.124 C 
ENDBRANCH   5  22
TORSDOF 3
ENDMDL
MODEL 5
REMARK VINA RESULT:      -5.6      3.521      8.106
REMARK  3 active torsions:
REMARK  status: ('A' for Active; 'I' for Inactive)
REMARK    1  A    between atoms: C_5  and  N_20 
REMARK    2  A    between atoms: C_8  and  N_9 
REMARK       I    between atoms: N_9  and  C_10 
REMARK       I    between atoms: C_10  and  N_12 
REMARK    3  A    between atoms: N_12  and  C_13 
ROOT
HETATM    1  C   UNL     1     -42.945 -48.290  15.167  1.00  0.00     0.070 C 
HETATM    2  C   UNL     1     -42.678 -48.032  13.715  1.00  0.00     0.034 A 
HETATM    3  N   UNL     1     -41.955 -46.892  13.486  1.00  0.00    -0.344 N 
ATOM      4  HN  UNL     1     -41.694 -46.296  14.271  1.00  0.00     0.167 HD
HETATM    5  C   UNL     1     -41.582 -46.544  12.233  1.00  0.00     0.103 A 
HETATM    6  C   UNL     1     -41.906 -47.383  11.178  1.00  0.00     0.051 A 
HETATM    7  C   UNL     1     -42.614 -48.574  11.405  1.00  0.00     0.035 A 
HETATM    8  C   UNL     1     -43.047 -48.907  12.689  1.00  0.00     0.058 A 
ENDROOT
BRANCH   8   9
HETATM    9  N   UNL     1     -43.776 -50.122  12.845  1.00  0.00    -0.307 N 
HETATM   10  C   UNL     1     -43.184 -51.314  13.212  1.00  0.00     0.321 C 
HETATM   11  O   UNL     1     -41.993 -51.455  13.468  1.00  0.00    -0.247 OA
HETATM   12  N   UNL     1     -44.089 -52.356  13.294  1.00  0.00    -0.334 N 
HETATM   13  H   UNL     1     -45.062 -52.109  13.209  1.00  0.00     0.165 HD
HETATM   14  H   UNL     1     -44.710 -50.015  13.209  1.00  0.00     0.170 HD
BRANCH  12  15
HETATM   15  C   UNL     1     -43.771 -53.692  13.872  1.00  0.00     0.035 C 
HETATM   16  C   UNL     1     -42.437 -54.197  13.283  1.00  0.00     0.039 C 
HETATM   17  C   UNL     1     -44.874 -54.745  13.609  1.00  0.00     0.057 C 
HETATM   18  C   UNL     1     -46.107 -54.571  14.487  1.00  0.00     0.170 C 
HETATM   19  O   UNL     1     -45.761 -54.469  15.867  1.00  0.00    -0.391 OA
HETATM   20  C   UNL     1     -44.906 -53.360  16.119  1.00  0.00     0.170 C 
HETATM   21  C   UNL     1     -43.581 -53.560  15.403  1.00  0.00     0.057 C 
ENDBRANCH  12  15
ENDBRANCH   8   9
BRANCH   5  22
HETATM   22  N   UNL     1     -40.912 -45.363  12.071  1.00  0.00    -0.367 N 
HETATM   23  C   UNL     1     -41.294 -44.264  11.208  1.00  0.00     0.124 C 
HETATM   24  C   UNL     1     -40.318 -43.134  11.554  1.00  0.00     0.021 C 
HETATM   25  C   UNL     1     -39.583 -43.599  12.805  1.00  0.00     0.021 C 
HETATM   26  C   UNL     1     -39.643 -45.119  12.735  1.00  0.00     0.124 C 
ENDBRANCH   5  22
TORSDOF 3
ENDMDL
MODEL 6
REMARK VINA RESULT:      -5.4      4.146      5.516
REMARK  3 active torsions:
REMARK  status: ('A' for Active; 'I' for Inactive)
REMARK    1  A    between atoms: C_5  and  N_20 
REMARK    2  A    between atoms: C_8  and  N_9 
REMARK       I    between atoms: N_9  and  C_10 
REMARK       I    between atoms: C_10  and  N_12 
REMARK    3  A    between atoms: N_12  and  C_13 
ROOT
HETATM    1  C   UNL     1     -39.369 -53.971  14.344  1.00  0.00     0.070 C 
HETATM    2  C   UNL     1     -40.050 -54.937  15.267  1.00  0.00     0.034 A 
HETATM    3  N   UNL     1     -39.184 -55.624  16.075  1.00  0.00    -0.344 N 
ATOM      4  HN  UNL     1     -38.180 -55.477  15.976  1.00  0.00     0.167 HD
HETATM    5  C   UNL     1     -39.642 -56.495  17.004  1.00  0.00     0.103 A 
HETATM    6  C   UNL     1     -41.009 -56.655  17.159  1.00  0.00     0.051 A 
HETATM    7  C   UNL     1     -41.908 -55.929  16.361  1.00  0.00     0.035 A 
HETATM    8  C   UNL     1     -41.438 -55.071  15.366  1.00  0.00     0.058 A 
ENDROOT
BRANCH   8   9
HETATM    9  N   UNL     1     -42.405 -54.378  14.582  1.00  0.00    -0.307 N 
HETATM   10  C   UNL     1     -42.905 -53.138  14.924  1.00  0.00     0.321 C 
HETATM   11  O   UNL     1     -42.560 -52.491  15.909  1.00  0.00    -0.247 OA
HETATM   12  N   UNL     1     -43.834 -52.667  14.017  1.00  0.00    -0.334 N 
HETATM   13  H   UNL     1     -43.941 -53.202  13.169  1.00  0.00     0.165 HD
HETATM   14  H   UNL     1     -42.319 -54.509  13.586  1.00  0.00     0.170 HD
BRANCH  12  15
HETATM   15  C   UNL     1     -44.371 -51.276  14.018  1.00  0.00     0.035 C 
HETATM   16  C   UNL     1     -43.320 -50.325  13.407  1.00  0.00     0.039 C 
HETATM   17  C   UNL     1     -44.749 -50.773  15.432  1.00  0.00     0.057 C 
HETATM   18  C   UNL     1     -46.053 -51.361  15.961  1.00  0.00     0.170 C 
HETATM   19  O   UNL     1     -47.116 -51.215  15.021  1.00  0.00    -0.391 OA
HETATM   20  C   UNL     1     -46.829 -51.868  13.789  1.00  0.00     0.170 C 
HETATM   21  C   UNL     1     -45.633 -51.208  13.125  1.00  0.00     0.057 C 
ENDBRANCH  12  15
ENDBRANCH   8   9
BRANCH   5  22
HETATM   22  N   UNL     1     -38.720 -57.189  17.737  1.00  0.00    -0.367 N 
HETATM   23  C   UNL     1     -37.408 -56.724  18.139  1.00  0.00     0.124 C 
HETATM   24  C   UNL     1     -36.881 -57.804  19.091  1.00  0.00     0.021 C 
HETATM   25  C   UNL     1     -38.069 -58.718  19.367  1.00  0.00     0.021 C 
HETATM   26  C   UNL     1     -38.956 -58.565  18.139  1.00  0.00     0.124 C 
ENDBRANCH   5  22
TORSDOF 3
ENDMDL
MODEL 7
REMARK VINA RESULT:      -5.4     14.758     18.262
REMARK  3 active torsions:
REMARK  status: ('A' for Active; 'I' for Inactive)
REMARK    1  A    between atoms: C_5  and  N_20 
REMARK    2  A    between atoms: C_8  and  N_9 
REMARK       I    between atoms: N_9  and  C_10 
REMARK       I    between atoms: C_10  and  N_12 
REMARK    3  A    between atoms: N_12  and  C_13 
ROOT
HETATM    1  C   UNL     1     -48.949 -54.479  -2.191  1.00  0.00     0.070 C 
HETATM    2  C   UNL     1     -50.423 -54.740  -2.269  1.00  0.00     0.034 A 
HETATM    3  N   UNL     1     -50.753 -55.771  -3.108  1.00  0.00    -0.344 N 
ATOM      4  HN  UNL     1     -50.020 -56.244  -3.635  1.00  0.00     0.167 HD
HETATM    5  C   UNL     1     -52.039 -56.169  -3.249  1.00  0.00     0.103 A 
HETATM    6  C   UNL     1     -53.021 -55.547  -2.497  1.00  0.00     0.051 A 
HETATM    7  C   UNL     1     -52.691 -54.514  -1.605  1.00  0.00     0.035 A 
HETATM    8  C   UNL     1     -51.375 -54.064  -1.499  1.00  0.00     0.058 A 
ENDROOT
BRANCH   8   9
HETATM    9  N   UNL     1     -51.112 -53.001  -0.587  1.00  0.00    -0.307 N 
HETATM   10  C   UNL     1     -51.228 -51.669  -0.928  1.00  0.00     0.321 C 
HETATM   11  O   UNL     1     -51.589 -51.255  -2.025  1.00  0.00    -0.247 OA
HETATM   12  N   UNL     1     -50.917 -50.820   0.118  1.00  0.00    -0.334 N 
HETATM   13  H   UNL     1     -50.774 -51.254   1.017  1.00  0.00     0.165 HD
HETATM   14  H   UNL     1     -51.367 -53.188   0.370  1.00  0.00     0.170 HD
BRANCH  12  15
HETATM   15  C   UNL     1     -51.162 -49.351   0.101  1.00  0.00     0.035 C 
HETATM   16  C   UNL     1     -52.678 -49.089  -0.027  1.00  0.00     0.039 C 
HETATM   17  C   UNL     1     -50.423 -48.626  -1.050  1.00  0.00     0.057 C 
HETATM   18  C   UNL     1     -48.929 -48.453  -0.803  1.00  0.00     0.170 C 
HETATM   19  O   UNL     1     -48.670 -47.869   0.473  1.00  0.00    -0.391 OA
HETATM   20  C   UNL     1     -49.182 -48.666   1.535  1.00  0.00     0.170 C 
HETATM   21  C   UNL     1     -50.697 -48.733   1.442  1.00  0.00     0.057 C 
ENDBRANCH  12  15
ENDBRANCH   8   9
BRANCH   5  22
HETATM   22  N   UNL     1     -52.302 -57.166  -4.147  1.00  0.00    -0.367 N 
HETATM   23  C   UNL     1     -53.487 -57.998  -4.193  1.00  0.00     0.124 C 
HETATM   24  C   UNL     1     -53.355 -58.801  -5.492  1.00  0.00     0.021 C 
HETATM   25  C   UNL     1     -52.189 -58.171  -6.244  1.00  0.00     0.021 C 
HETATM   26  C   UNL     1     -51.327 -57.553  -5.152  1.00  0.00     0.124 C 
ENDBRANCH   5  22
TORSDOF 3
ENDMDL
MODEL 8
REMARK VINA RESULT:      -5.4     15.382     17.043
REMARK  3 active torsions:
REMARK  status: ('A' for Active; 'I' for Inactive)
REMARK    1  A    between atoms: C_5  and  N_20 
REMARK    2  A    between atoms: C_8  and  N_9 
REMARK       I    between atoms: N_9  and  C_10 
REMARK       I    between atoms: C_10  and  N_12 
REMARK    3  A    between atoms: N_12  and  C_13 
ROOT
HETATM    1  C   UNL     1     -52.545 -53.636  -0.970  1.00  0.00     0.070 C 
HETATM    2  C   UNL     1     -51.082 -53.587  -1.292  1.00  0.00     0.034 A 
HETATM    3  N   UNL     1     -50.675 -54.581  -2.141  1.00  0.00    -0.344 N 
ATOM      4  HN  UNL     1     -51.347 -55.283  -2.452  1.00  0.00     0.167 HD
HETATM    5  C   UNL     1     -49.395 -54.646  -2.574  1.00  0.00     0.103 A 
HETATM    6  C   UNL     1     -48.502 -53.663  -2.180  1.00  0.00     0.051 A 
HETATM    7  C   UNL     1     -48.916 -52.617  -1.340  1.00  0.00     0.035 A 
HETATM    8  C   UNL     1     -50.221 -52.579  -0.848  1.00  0.00     0.058 A 
ENDROOT
BRANCH   8   9
HETATM    9  N   UNL     1     -50.570 -51.499   0.014  1.00  0.00    -0.307 N 
HETATM   10  C   UNL     1     -51.130 -50.322  -0.441  1.00  0.00     0.321 C 
HETATM   11  O   UNL     1     -51.412 -50.087  -1.611  1.00  0.00    -0.247 OA
HETATM   12  N   UNL     1     -51.376 -49.419   0.577  1.00  0.00    -0.334 N 
HETATM   13  H   UNL     1     -51.246 -49.760   1.517  1.00  0.00     0.165 HD
HETATM   14  H   UNL     1     -50.905 -51.771   0.925  1.00  0.00     0.170 HD
BRANCH  12  15
HETATM   15  C   UNL     1     -52.167 -48.168   0.407  1.00  0.00     0.035 C 
HETATM   16  C   UNL     1     -53.660 -48.527   0.252  1.00  0.00     0.039 C 
HETATM   17  C   UNL     1     -51.718 -47.326  -0.811  1.00  0.00     0.057 C 
HETATM   18  C   UNL     1     -50.418 -46.565  -0.582  1.00  0.00     0.170 C 
HETATM   19  O   UNL     1     -50.455 -45.809   0.626  1.00  0.00    -0.391 OA
HETATM   20  C   UNL     1     -50.664 -46.637   1.765  1.00  0.00     0.170 C 
HETATM   21  C   UNL     1     -52.031 -47.294   1.678  1.00  0.00     0.057 C 
ENDBRANCH  12  15
ENDBRANCH   8   9
BRANCH   5  22
HETATM   22  N   UNL     1     -49.045 -55.698  -3.374  1.00  0.00    -0.367 N 
HETATM   23  C   UNL     1     -48.443 -55.621  -4.690  1.00  0.00     0.124 C 
HETATM   24  C   UNL     1     -48.086 -57.069  -5.045  1.00  0.00     0.021 C 
HETATM   25  C   UNL     1     -48.291 -57.866  -3.763  1.00  0.00     0.021 C 
HETATM   26  C   UNL     1     -49.330 -57.068  -2.985  1.00  0.00     0.124 C 
ENDBRANCH   5  22
TORSDOF 3
ENDMDL
MODEL 9
REMARK VINA RESULT:      -5.3      3.034      8.550
REMARK  3 active torsions:
REMARK  status: ('A' for Active; 'I' for Inactive)
REMARK    1  A    between atoms: C_5  and  N_20 
REMARK    2  A    between atoms: C_8  and  N_9 
REMARK       I    between atoms: N_9  and  C_10 
REMARK       I    between atoms: C_10  and  N_12 
REMARK    3  A    between atoms: N_12  and  C_13 
ROOT
HETATM    1  C   UNL     1     -38.204 -47.827  15.261  1.00  0.00     0.070 C 
HETATM    2  C   UNL     1     -38.858 -47.662  13.923  1.00  0.00     0.034 A 
HETATM    3  N   UNL     1     -39.118 -46.357  13.598  1.00  0.00    -0.344 N 
ATOM      4  HN  UNL     1     -38.903 -45.620  14.268  1.00  0.00     0.167 HD
HETATM    5  C   UNL     1     -39.656 -46.033  12.400  1.00  0.00     0.103 A 
HETATM    6  C   UNL     1     -39.905 -47.038  11.480  1.00  0.00     0.051 A 
HETATM    7  C   UNL     1     -39.607 -48.376  11.787  1.00  0.00     0.035 A 
HETATM    8  C   UNL     1     -39.104 -48.719  13.042  1.00  0.00     0.058 A 
ENDROOT
BRANCH   8   9
HETATM    9  N   UNL     1     -38.840 -50.097  13.292  1.00  0.00    -0.307 N 
HETATM   10  C   UNL     1     -39.821 -51.001  13.647  1.00  0.00     0.321 C 
HETATM   11  O   UNL     1     -41.013 -50.733  13.757  1.00  0.00    -0.247 OA
HETATM   12  N   UNL     1     -39.327 -52.276  13.844  1.00  0.00    -0.334 N 
HETATM   13  H   UNL     1     -38.363 -52.426  13.588  1.00  0.00     0.165 HD
HETATM   14  H   UNL     1     -38.115 -50.503  12.721  1.00  0.00     0.170 HD
BRANCH  12  15
HETATM   15  C   UNL     1     -40.182 -53.484  14.019  1.00  0.00     0.035 C 
HETATM   16  C   UNL     1     -40.957 -53.752  12.712  1.00  0.00     0.039 C 
HETATM   17  C   UNL     1     -41.189 -53.351  15.188  1.00  0.00     0.057 C 
HETATM   18  C   UNL     1     -40.551 -53.506  16.563  1.00  0.00     0.170 C 
HETATM   19  O   UNL     1     -39.763 -54.692  16.648  1.00  0.00    -0.391 OA
HETATM   20  C   UNL     1     -38.707 -54.697  15.692  1.00  0.00     0.170 C 
HETATM   21  C   UNL     1     -39.286 -54.717  14.288  1.00  0.00     0.057 C 
ENDBRANCH  12  15
ENDBRANCH   8   9
BRANCH   5  22
HETATM   22  N   UNL     1     -39.943 -44.716  12.165  1.00  0.00    -0.367 N 
HETATM   23  C   UNL     1     -40.787 -44.190  11.112  1.00  0.00     0.124 C 
HETATM   24  C   UNL     1     -40.921 -42.695  11.424  1.00  0.00     0.021 C 
HETATM   25  C   UNL     1     -40.328 -42.515  12.816  1.00  0.00     0.021 C 
HETATM   26  C   UNL     1     -39.333 -43.660  12.954  1.00  0.00     0.124 C 
ENDBRANCH   5  22
TORSDOF 3
ENDMDL
