MODEL 1
REMARK VINA RESULT:      -5.6      0.000      0.000
REMARK  3 active torsions:
REMARK  status: ('A' for Active; 'I' for Inactive)
REMARK    1  A    between atoms: O_1  and  C_2 
REMARK    2  A    between atoms: C_2  and  C_4 
REMARK    3  A    between atoms: C_7  and  N_11 
ROOT
HETATM    1  C   UNL     1     -40.737 -53.803  13.552  1.00  0.00     0.053 A 
HETATM    2  C   UNL     1     -41.494 -54.482  14.498  1.00  0.00     0.023 A 
HETATM    3  C   UNL     1     -42.880 -54.562  14.329  1.00  0.00     0.049 A 
HETATM    4  C   UNL     1     -43.500 -53.977  13.221  1.00  0.00     0.103 A 
HETATM    5  N   UNL     1     -42.754 -53.298  12.319  1.00  0.00    -0.351 N 
ATOM      6  HN  UNL     1     -43.195 -52.859  11.511  1.00  0.00     0.166 HD
HETATM    7  C   UNL     1     -41.411 -53.207  12.502  1.00  0.00     0.108 A 
ENDROOT
BRANCH   4   8
HETATM    8  N   UNL     1     -44.876 -53.997  13.075  1.00  0.00    -0.363 N 
HETATM    9  C   UNL     1     -45.631 -52.789  12.708  1.00  0.00     0.150 C 
HETATM   10  C   UNL     1     -46.343 -52.181  13.929  1.00  0.00     0.187 C 
HETATM   11  O   UNL     1     -47.146 -53.149  14.622  1.00  0.00    -0.388 OA
HETATM   12  C   UNL     1     -46.321 -54.236  15.077  1.00  0.00     0.187 C 
HETATM   13  C   UNL     1     -45.652 -54.949  13.893  1.00  0.00     0.150 C 
ENDBRANCH   4   8
BRANCH   1  14
HETATM   14  C   UNL     1     -39.274 -53.652  13.640  1.00  0.00     0.177 C 
HETATM   15  O   UNL     1     -38.725 -52.576  13.781  1.00  0.00    -0.646 OA
BRANCH  14  16
HETATM   16  O   UNL     1     -38.609 -54.820  13.500  1.00  0.00    -0.773 OA
HETATM   17  H   UNL     1     -39.162 -55.623  13.503  1.00  0.00     0.167 HD
ENDBRANCH  14  16
ENDBRANCH   1  14
TORSDOF 3
ENDMDL
MODEL 2
REMARK VINA RESULT:      -5.5      7.449      9.569
REMARK  3 active torsions:
REMARK  status: ('A' for Active; 'I' for Inactive)
REMARK    1  A    between atoms: O_1  and  C_2 
REMARK    2  A    between atoms: C_2  and  C_4 
REMARK    3  A    between atoms: C_7  and  N_11 
ROOT
HETATM    1  C   UNL     1     -44.631 -47.302   9.544  1.00  0.00     0.053 A 
HETATM    2  C   UNL     1     -44.152 -47.795  10.750  1.00  0.00     0.023 A 
HETATM    3  C   UNL     1     -42.835 -47.509  11.125  1.00  0.00     0.049 A 
HETATM    4  C   UNL     1     -42.010 -46.731  10.307  1.00  0.00     0.103 A 
HETATM    5  N   UNL     1     -42.483 -46.277   9.123  1.00  0.00    -0.351 N 
ATOM      6  HN  UNL     1     -41.889 -45.715   8.513  1.00  0.00     0.166 HD
HETATM    7  C   UNL     1     -43.756 -46.576   8.756  1.00  0.00     0.108 A 
ENDROOT
BRANCH   4   8
HETATM    8  N   UNL     1     -40.688 -46.494  10.639  1.00  0.00    -0.363 N 
HETATM    9  C   UNL     1     -40.054 -47.147  11.794  1.00  0.00     0.150 C 
HETATM   10  C   UNL     1     -39.929 -46.180  12.985  1.00  0.00     0.187 C 
HETATM   11  O   UNL     1     -39.283 -44.953  12.617  1.00  0.00    -0.388 OA
HETATM   12  C   UNL     1     -40.032 -44.295  11.580  1.00  0.00     0.187 C 
HETATM   13  C   UNL     1     -40.114 -45.171  10.323  1.00  0.00     0.150 C 
ENDBRANCH   4   8
BRANCH   1  14
HETATM   14  C   UNL     1     -45.997 -47.551   9.051  1.00  0.00     0.177 C 
HETATM   15  O   UNL     1     -46.765 -46.659   8.743  1.00  0.00    -0.646 OA
BRANCH  14  16
HETATM   16  O   UNL     1     -46.322 -48.862   9.022  1.00  0.00    -0.773 OA
HETATM   17  H   UNL     1     -46.390 -49.299   9.891  1.00  0.00     0.167 HD
ENDBRANCH  14  16
ENDBRANCH   1  14
TORSDOF 3
ENDMDL
MODEL 3
REMARK VINA RESULT:      -5.4      1.262      5.741
REMARK  3 active torsions:
REMARK  status: ('A' for Active; 'I' for Inactive)
REMARK    1  A    between atoms: O_1  and  C_2 
REMARK    2  A    between atoms: C_2  and  C_4 
REMARK    3  A    between atoms: C_7  and  N_11 
ROOT
HETATM    1  C   UNL     1     -45.061 -54.165  14.074  1.00  0.00     0.053 A 
HETATM    2  C   UNL     1     -44.045 -54.698  14.857  1.00  0.00     0.023 A 
HETATM    3  C   UNL     1     -42.719 -54.558  14.437  1.00  0.00     0.049 A 
HETATM    4  C   UNL     1     -42.411 -53.884  13.250  1.00  0.00     0.103 A 
HETATM    5  N   UNL     1     -43.412 -53.391  12.485  1.00  0.00    -0.351 N 
ATOM      6  HN  UNL     1     -43.202 -52.905  11.613  1.00  0.00     0.166 HD
HETATM    7  C   UNL     1     -44.699 -53.549  12.889  1.00  0.00     0.108 A 
ENDROOT
BRANCH   4   8
HETATM    8  N   UNL     1     -41.108 -53.794  12.795  1.00  0.00    -0.363 N 
HETATM    9  C   UNL     1     -39.977 -54.299  13.587  1.00  0.00     0.150 C 
HETATM   10  C   UNL     1     -39.212 -53.150  14.268  1.00  0.00     0.187 C 
HETATM   11  O   UNL     1     -38.825 -52.132  13.333  1.00  0.00    -0.388 OA
HETATM   12  C   UNL     1     -39.991 -51.582  12.695  1.00  0.00     0.187 C 
HETATM   13  C   UNL     1     -40.752 -52.663  11.915  1.00  0.00     0.150 C 
ENDBRANCH   4   8
BRANCH   1  14
HETATM   14  C   UNL     1     -46.489 -54.264  14.420  1.00  0.00     0.177 C 
HETATM   15  O   UNL     1     -47.186 -53.293  14.647  1.00  0.00    -0.646 OA
BRANCH  14  16
HETATM   16  O   UNL     1     -46.930 -55.539  14.504  1.00  0.00    -0.773 OA
HETATM   17  H   UNL     1     -47.686 -55.761  13.929  1.00  0.00     0.167 HD
ENDBRANCH  14  16
ENDBRANCH   1  14
TORSDOF 3
ENDMDL
MODEL 4
REMARK VINA RESULT:      -5.1      1.340      1.579
REMARK  3 active torsions:
REMARK  status: ('A' for Active; 'I' for Inactive)
REMARK    1  A    between atoms: O_1  and  C_2 
REMARK    2  A    between atoms: C_2  and  C_4 
REMARK    3  A    between atoms: C_7  and  N_11 
ROOT
HETATM    1  C   UNL     1     -40.852 -52.192  12.925  1.00  0.00     0.053 A 
HETATM    2  C   UNL     1     -41.136 -53.504  13.282  1.00  0.00     0.023 A 
HETATM    3  C   UNL     1     -42.458 -53.954  13.215  1.00  0.00     0.049 A 
HETATM    4  C   UNL     1     -43.483 -53.105  12.786  1.00  0.00     0.103 A 
HETATM    5  N   UNL     1     -43.196 -51.823  12.463  1.00  0.00    -0.351 N 
ATOM      6  HN  UNL     1     -43.935 -51.190  12.157  1.00  0.00     0.166 HD
HETATM    7  C   UNL     1     -41.912 -51.386  12.551  1.00  0.00     0.108 A 
ENDROOT
BRANCH   4   8
HETATM    8  N   UNL     1     -44.802 -53.522  12.774  1.00  0.00    -0.363 N 
HETATM    9  C   UNL     1     -45.909 -52.572  12.584  1.00  0.00     0.150 C 
HETATM   10  C   UNL     1     -46.618 -52.264  13.915  1.00  0.00     0.187 C 
HETATM   11  O   UNL     1     -47.022 -53.460  14.599  1.00  0.00    -0.388 OA
HETATM   12  C   UNL     1     -45.872 -54.278  14.879  1.00  0.00     0.187 C 
HETATM   13  C   UNL     1     -45.171 -54.701  13.581  1.00  0.00     0.150 C 
ENDBRANCH   4   8
BRANCH   1  14
HETATM   14  C   UNL     1     -39.497 -51.615  12.968  1.00  0.00     0.177 C 
HETATM   15  O   UNL     1     -38.887 -51.428  14.004  1.00  0.00    -0.646 OA
BRANCH  14  16
HETATM   16  O   UNL     1     -39.024 -51.273  11.749  1.00  0.00    -0.773 OA
HETATM   17  H   UNL     1     -39.577 -50.649  11.242  1.00  0.00     0.167 HD
ENDBRANCH  14  16
ENDBRANCH   1  14
TORSDOF 3
ENDMDL
MODEL 5
REMARK VINA RESULT:      -5.0      2.637      5.787
REMARK  3 active torsions:
REMARK  status: ('A' for Active; 'I' for Inactive)
REMARK    1  A    between atoms: O_1  and  C_2 
REMARK    2  A    between atoms: C_2  and  C_4 
REMARK    3  A    between atoms: C_7  and  N_11 
ROOT
HETATM    1  C   UNL     1     -43.445 -53.779  13.291  1.00  0.00     0.053 A 
HETATM    2  C   UNL     1     -42.162 -54.109  13.706  1.00  0.00     0.023 A 
HETATM    3  C   UNL     1     -41.096 -53.280  13.342  1.00  0.00     0.049 A 
HETATM    4  C   UNL     1     -41.313 -52.129  12.578  1.00  0.00     0.103 A 
HETATM    5  N   UNL     1     -42.564 -51.832  12.160  1.00  0.00    -0.351 N 
ATOM      6  HN  UNL     1     -42.735 -51.000  11.596  1.00  0.00     0.166 HD
HETATM    7  C   UNL     1     -43.592 -52.653  12.500  1.00  0.00     0.108 A 
ENDROOT
BRANCH   4   8
HETATM    8  N   UNL     1     -40.258 -51.336  12.161  1.00  0.00    -0.363 N 
HETATM    9  C   UNL     1     -39.020 -51.224  12.947  1.00  0.00     0.150 C 
HETATM   10  C   UNL     1     -38.965 -49.894  13.719  1.00  0.00     0.187 C 
HETATM   11  O   UNL     1     -39.183 -48.764  12.861  1.00  0.00    -0.388 OA
HETATM   12  C   UNL     1     -40.473 -48.867  12.232  1.00  0.00     0.187 C 
HETATM   13  C   UNL     1     -40.562 -50.131  11.366  1.00  0.00     0.150 C 
ENDBRANCH   4   8
BRANCH   1  14
HETATM   14  C   UNL     1     -44.635 -54.586  13.611  1.00  0.00     0.177 C 
HETATM   15  O   UNL     1     -44.628 -55.480  14.436  1.00  0.00    -0.646 OA
BRANCH  14  16
HETATM   16  O   UNL     1     -45.715 -54.263  12.866  1.00  0.00    -0.773 OA
HETATM   17  H   UNL     1     -46.079 -54.983  12.318  1.00  0.00     0.167 HD
ENDBRANCH  14  16
ENDBRANCH   1  14
TORSDOF 3
ENDMDL
MODEL 6
REMARK VINA RESULT:      -5.0      1.977      2.467
REMARK  3 active torsions:
REMARK  status: ('A' for Active; 'I' for Inactive)
REMARK    1  A    between atoms: O_1  and  C_2 
REMARK    2  A    between atoms: C_2  and  C_4 
REMARK    3  A    between atoms: C_7  and  N_11 
ROOT
HETATM    1  C   UNL     1     -42.125 -53.691  13.303  1.00  0.00     0.053 A 
HETATM    2  C   UNL     1     -43.291 -53.779  12.555  1.00  0.00     0.023 A 
HETATM    3  C   UNL     1     -44.524 -53.760  13.214  1.00  0.00     0.049 A 
HETATM    4  C   UNL     1     -44.589 -53.646  14.607  1.00  0.00     0.103 A 
HETATM    5  N   UNL     1     -43.445 -53.586  15.326  1.00  0.00    -0.351 N 
ATOM      6  HN  UNL     1     -43.478 -53.510  16.342  1.00  0.00     0.166 HD
HETATM    7  C   UNL     1     -42.250 -53.626  14.679  1.00  0.00     0.108 A 
ENDROOT
BRANCH   4   8
HETATM    8  N   UNL     1     -45.801 -53.688  15.274  1.00  0.00    -0.363 N 
HETATM    9  C   UNL     1     -46.962 -52.911  14.813  1.00  0.00     0.150 C 
HETATM   10  C   UNL     1     -47.179 -51.660  15.683  1.00  0.00     0.187 C 
HETATM   11  O   UNL     1     -47.243 -51.980  17.081  1.00  0.00    -0.388 OA
HETATM   12  C   UNL     1     -46.019 -52.611  17.497  1.00  0.00     0.187 C 
HETATM   13  C   UNL     1     -45.790 -53.921  16.731  1.00  0.00     0.150 C 
ENDBRANCH   4   8
BRANCH   1  14
HETATM   14  C   UNL     1     -40.776 -53.711  12.710  1.00  0.00     0.177 C 
HETATM   15  O   UNL     1     -39.775 -53.985  13.345  1.00  0.00    -0.646 OA
BRANCH  14  16
HETATM   16  O   UNL     1     -40.761 -53.350  11.408  1.00  0.00    -0.773 OA
HETATM   17  H   UNL     1     -40.964 -52.413  11.228  1.00  0.00     0.167 HD
ENDBRANCH  14  16
ENDBRANCH   1  14
TORSDOF 3
ENDMDL
MODEL 7
REMARK VINA RESULT:      -4.9      6.221      8.272
REMARK  3 active torsions:
REMARK  status: ('A' for Active; 'I' for Inactive)
REMARK    1  A    between atoms: O_1  and  C_2 
REMARK    2  A    between atoms: C_2  and  C_4 
REMARK    3  A    between atoms: C_7  and  N_11 
ROOT
HETATM    1  C   UNL     1     -42.152 -46.641   9.886  1.00  0.00     0.053 A 
HETATM    2  C   UNL     1     -41.173 -46.029  10.657  1.00  0.00     0.023 A 
HETATM    3  C   UNL     1     -40.422 -46.807  11.543  1.00  0.00     0.049 A 
HETATM    4  C   UNL     1     -40.642 -48.184  11.651  1.00  0.00     0.103 A 
HETATM    5  N   UNL     1     -41.615 -48.763  10.911  1.00  0.00    -0.351 N 
ATOM      6  HN  UNL     1     -41.792 -49.765  10.986  1.00  0.00     0.166 HD
HETATM    7  C   UNL     1     -42.355 -47.997  10.067  1.00  0.00     0.108 A 
ENDROOT
BRANCH   4   8
HETATM    8  N   UNL     1     -39.947 -48.952  12.568  1.00  0.00    -0.363 N 
HETATM    9  C   UNL     1     -38.479 -49.045  12.542  1.00  0.00     0.150 C 
HETATM   10  C   UNL     1     -38.014 -50.380  11.933  1.00  0.00     0.187 C 
HETATM   11  O   UNL     1     -38.631 -51.507  12.572  1.00  0.00    -0.388 OA
HETATM   12  C   UNL     1     -40.061 -51.426  12.439  1.00  0.00     0.187 C 
HETATM   13  C   UNL     1     -40.603 -50.157  13.111  1.00  0.00     0.150 C 
ENDBRANCH   4   8
BRANCH   1  14
HETATM   14  C   UNL     1     -43.004 -45.914   8.929  1.00  0.00     0.177 C 
HETATM   15  O   UNL     1     -43.846 -45.105   9.271  1.00  0.00    -0.646 OA
BRANCH  14  16
HETATM   16  O   UNL     1     -42.787 -46.271   7.644  1.00  0.00    -0.773 OA
HETATM   17  H   UNL     1     -42.552 -45.543   7.038  1.00  0.00     0.167 HD
ENDBRANCH  14  16
ENDBRANCH   1  14
TORSDOF 3
ENDMDL
MODEL 8
REMARK VINA RESULT:      -4.9      5.514      7.143
REMARK  3 active torsions:
REMARK  status: ('A' for Active; 'I' for Inactive)
REMARK    1  A    between atoms: O_1  and  C_2 
REMARK    2  A    between atoms: C_2  and  C_4 
REMARK    3  A    between atoms: C_7  and  N_11 
ROOT
HETATM    1  C   UNL     1     -42.555 -46.966  10.683  1.00  0.00     0.053 A 
HETATM    2  C   UNL     1     -43.027 -47.020  11.988  1.00  0.00     0.023 A 
HETATM    3  C   UNL     1     -42.742 -48.145  12.767  1.00  0.00     0.049 A 
HETATM    4  C   UNL     1     -41.985 -49.201  12.250  1.00  0.00     0.103 A 
HETATM    5  N   UNL     1     -41.551 -49.146  10.970  1.00  0.00    -0.351 N 
ATOM      6  HN  UNL     1     -41.005 -49.913  10.578  1.00  0.00     0.166 HD
HETATM    7  C   UNL     1     -41.850 -48.059  10.212  1.00  0.00     0.108 A 
ENDROOT
BRANCH   4   8
HETATM    8  N   UNL     1     -41.749 -50.345  12.992  1.00  0.00    -0.363 N 
HETATM    9  C   UNL     1     -40.531 -50.501  13.803  1.00  0.00     0.150 C 
HETATM   10  C   UNL     1     -39.515 -51.429  13.114  1.00  0.00     0.187 C 
HETATM   11  O   UNL     1     -40.100 -52.686  12.741  1.00  0.00    -0.388 OA
HETATM   12  C   UNL     1     -41.197 -52.468  11.836  1.00  0.00     0.187 C 
HETATM   13  C   UNL     1     -42.295 -51.624  12.498  1.00  0.00     0.150 C 
ENDBRANCH   4   8
BRANCH   1  14
HETATM   14  C   UNL     1     -42.805 -45.833   9.775  1.00  0.00     0.177 C 
HETATM   15  O   UNL     1     -42.997 -44.698  10.167  1.00  0.00    -0.646 OA
BRANCH  14  16
HETATM   16  O   UNL     1     -42.845 -46.192   8.473  1.00  0.00    -0.773 OA
HETATM   17  H   UNL     1     -43.416 -45.644   7.902  1.00  0.00     0.167 HD
ENDBRANCH  14  16
ENDBRANCH   1  14
TORSDOF 3
ENDMDL
MODEL 9
REMARK VINA RESULT:      -4.9      6.538      8.468
REMARK  3 active torsions:
REMARK  status: ('A' for Active; 'I' for Inactive)
REMARK    1  A    between atoms: O_1  and  C_2 
REMARK    2  A    between atoms: C_2  and  C_4 
REMARK    3  A    between atoms: C_7  and  N_11 
ROOT
HETATM    1  C   UNL     1     -42.955 -46.472   9.843  1.00  0.00     0.053 A 
HETATM    2  C   UNL     1     -43.212 -47.712  10.413  1.00  0.00     0.023 A 
HETATM    3  C   UNL     1     -42.171 -48.396  11.049  1.00  0.00     0.049 A 
HETATM    4  C   UNL     1     -40.889 -47.842  11.120  1.00  0.00     0.103 A 
HETATM    5  N   UNL     1     -40.646 -46.645  10.540  1.00  0.00    -0.351 N 
ATOM      6  HN  UNL     1     -39.714 -46.233  10.578  1.00  0.00     0.166 HD
HETATM    7  C   UNL     1     -41.658 -45.995   9.906  1.00  0.00     0.108 A 
ENDROOT
BRANCH   4   8
HETATM    8  N   UNL     1     -39.838 -48.537  11.692  1.00  0.00    -0.363 N 
HETATM    9  C   UNL     1     -39.687 -49.990  11.515  1.00  0.00     0.150 C 
HETATM   10  C   UNL     1     -40.127 -50.756  12.775  1.00  0.00     0.187 C 
HETATM   11  O   UNL     1     -39.475 -50.269  13.957  1.00  0.00    -0.388 OA
HETATM   12  C   UNL     1     -39.779 -48.876  14.148  1.00  0.00     0.187 C 
HETATM   13  C   UNL     1     -39.279 -48.038  12.964  1.00  0.00     0.150 C 
ENDBRANCH   4   8
BRANCH   1  14
HETATM   14  C   UNL     1     -43.976 -45.673   9.144  1.00  0.00     0.177 C 
HETATM   15  O   UNL     1     -43.965 -44.457   9.118  1.00  0.00    -0.646 OA
BRANCH  14  16
HETATM   16  O   UNL     1     -44.945 -46.425   8.577  1.00  0.00    -0.773 OA
HETATM   17  H   UNL     1     -45.488 -45.975   7.903  1.00  0.00     0.167 HD
ENDBRANCH  14  16
ENDBRANCH   1  14
TORSDOF 3
ENDMDL
