MODEL 1
REMARK VINA RESULT:      -5.1      0.000      0.000
REMARK  6 active torsions:
REMARK  status: ('A' for Active; 'I' for Inactive)
REMARK    1  A    between atoms: C_6  and  N_7 
REMARK    2  A    between atoms: N_7  and  C_8 
REMARK    3  A    between atoms: C_8  and  C_9 
REMARK    4  A    between atoms: C_9  and  O_10 
REMARK    5  A    between atoms: O_10  and  C_11 
REMARK    6  A    between atoms: C_11  and  C_12 
ROOT
HETATM    1 CL   UNL     1     -46.590 -49.027   7.846  1.00  0.00    -0.081 Cl
HETATM    2  C   UNL     1     -45.246 -48.093   8.335  1.00  0.00     0.064 A 
HETATM    3  C   UNL     1     -44.067 -48.069   7.633  1.00  0.00     0.116 A 
HETATM    4  N   UNL     1     -43.003 -47.311   7.981  1.00  0.00    -0.341 N 
ATOM      5  HN  UNL     1     -42.146 -47.308   7.427  1.00  0.00     0.167 HD
HETATM    6  C   UNL     1     -43.123 -46.561   9.091  1.00  0.00     0.157 A 
HETATM    7  N   UNL     1     -44.222 -46.546   9.861  1.00  0.00    -0.341 N 
ATOM      8  HN  UNL     1     -44.267 -45.988  10.714  1.00  0.00     0.167 HD
HETATM    9  C   UNL     1     -45.268 -47.303   9.457  1.00  0.00     0.116 A 
ENDROOT
BRANCH   6  10
HETATM   10  N   UNL     1     -42.106 -45.720   9.489  1.00  0.00    -0.262 NA
HETATM   11  H   UNL     1     -42.366 -44.771   9.250  1.00  0.00     0.130 HD
BRANCH  10  12
HETATM   12  C   UNL     1     -41.588 -45.900  10.838  1.00  0.00     0.121 C 
BRANCH  12  13
HETATM   13  C   UNL     1     -40.896 -47.266  10.960  1.00  0.00     0.182 C 
BRANCH  13  14
HETATM   14  O   UNL     1     -39.574 -47.127  11.509  1.00  0.00    -0.390 OA
BRANCH  14  15
HETATM   15  C   UNL     1     -39.293 -48.218  12.393  1.00  0.00     0.172 C 
BRANCH  15  16
HETATM   16  C   UNL     1     -38.886 -49.462  11.662  1.00  0.00     0.009 A 
HETATM   17  C   UNL     1     -38.228 -50.606  12.389  1.00  0.00     0.007 A 
HETATM   18  C   UNL     1     -37.456 -49.830  11.356  1.00  0.00     0.007 A 
ENDBRANCH  15  16
ENDBRANCH  14  15
ENDBRANCH  13  14
ENDBRANCH  12  13
ENDBRANCH  10  12
ENDBRANCH   6  10
TORSDOF 6
ENDMDL
MODEL 2
REMARK VINA RESULT:      -4.9      2.496      4.156
REMARK  6 active torsions:
REMARK  status: ('A' for Active; 'I' for Inactive)
REMARK    1  A    between atoms: C_6  and  N_7 
REMARK    2  A    between atoms: N_7  and  C_8 
REMARK    3  A    between atoms: C_8  and  C_9 
REMARK    4  A    between atoms: C_9  and  O_10 
REMARK    5  A    between atoms: O_10  and  C_11 
REMARK    6  A    between atoms: C_11  and  C_12 
ROOT
HETATM    1 CL   UNL     1     -46.525 -49.240   7.627  1.00  0.00    -0.081 Cl
HETATM    2  C   UNL     1     -45.300 -48.153   8.115  1.00  0.00     0.064 A 
HETATM    3  C   UNL     1     -45.498 -47.204   9.087  1.00  0.00     0.116 A 
HETATM    4  N   UNL     1     -44.535 -46.357   9.515  1.00  0.00    -0.341 N 
ATOM      5  HN  UNL     1     -44.715 -45.673  10.249  1.00  0.00     0.167 HD
HETATM    6  C   UNL     1     -43.329 -46.457   8.929  1.00  0.00     0.157 A 
HETATM    7  N   UNL     1     -43.051 -47.329   7.947  1.00  0.00    -0.341 N 
ATOM      8  HN  UNL     1     -42.133 -47.355   7.503  1.00  0.00     0.167 HD
HETATM    9  C   UNL     1     -44.041 -48.170   7.570  1.00  0.00     0.116 A 
ENDROOT
BRANCH   6  10
HETATM   10  N   UNL     1     -42.276 -45.668   9.340  1.00  0.00    -0.262 NA
HETATM   11  H   UNL     1     -42.591 -44.706   9.362  1.00  0.00     0.130 HD
BRANCH  10  12
HETATM   12  C   UNL     1     -41.540 -46.108  10.516  1.00  0.00     0.121 C 
BRANCH  12  13
HETATM   13  C   UNL     1     -40.088 -45.612  10.448  1.00  0.00     0.182 C 
BRANCH  13  14
HETATM   14  O   UNL     1     -39.633 -45.165  11.736  1.00  0.00    -0.390 OA
BRANCH  14  15
HETATM   15  C   UNL     1     -40.549 -44.207  12.276  1.00  0.00     0.172 C 
BRANCH  15  16
HETATM   16  C   UNL     1     -40.421 -42.860  11.632  1.00  0.00     0.009 A 
HETATM   17  C   UNL     1     -40.818 -41.608  12.370  1.00  0.00     0.007 A 
HETATM   18  C   UNL     1     -41.592 -42.039  11.155  1.00  0.00     0.007 A 
ENDBRANCH  15  16
ENDBRANCH  14  15
ENDBRANCH  13  14
ENDBRANCH  12  13
ENDBRANCH  10  12
ENDBRANCH   6  10
TORSDOF 6
ENDMDL
MODEL 3
REMARK VINA RESULT:      -4.8      3.939      7.030
REMARK  6 active torsions:
REMARK  status: ('A' for Active; 'I' for Inactive)
REMARK    1  A    between atoms: C_6  and  N_7 
REMARK    2  A    between atoms: N_7  and  C_8 
REMARK    3  A    between atoms: C_8  and  C_9 
REMARK    4  A    between atoms: C_9  and  O_10 
REMARK    5  A    between atoms: O_10  and  C_11 
REMARK    6  A    between atoms: C_11  and  C_12 
ROOT
HETATM    1 CL   UNL     1     -36.969 -48.884  14.959  1.00  0.00    -0.081 Cl
HETATM    2  C   UNL     1     -38.064 -48.584  13.682  1.00  0.00     0.064 A 
HETATM    3  C   UNL     1     -38.017 -49.265  12.491  1.00  0.00     0.116 A 
HETATM    4  N   UNL     1     -38.894 -49.070  11.481  1.00  0.00    -0.341 N 
ATOM      5  HN  UNL     1     -38.836 -49.605  10.614  1.00  0.00     0.167 HD
HETATM    6  C   UNL     1     -39.846 -48.140  11.669  1.00  0.00     0.157 A 
HETATM    7  N   UNL     1     -39.950 -47.399  12.783  1.00  0.00    -0.341 N 
ATOM      8  HN  UNL     1     -40.666 -46.679  12.878  1.00  0.00     0.167 HD
HETATM    9  C   UNL     1     -39.064 -47.648  13.774  1.00  0.00     0.116 A 
ENDROOT
BRANCH   6  10
HETATM   10  N   UNL     1     -40.812 -47.913  10.711  1.00  0.00    -0.262 NA
HETATM   11  H   UNL     1     -40.421 -48.145   9.806  1.00  0.00     0.130 HD
BRANCH  10  12
HETATM   12  C   UNL     1     -42.140 -48.450  10.971  1.00  0.00     0.121 C 
BRANCH  12  13
HETATM   13  C   UNL     1     -43.212 -47.425  10.572  1.00  0.00     0.182 C 
BRANCH  13  14
HETATM   14  O   UNL     1     -43.103 -47.079   9.181  1.00  0.00    -0.390 OA
BRANCH  14  15
HETATM   15  C   UNL     1     -44.239 -47.572   8.461  1.00  0.00     0.172 C 
BRANCH  15  16
HETATM   16  C   UNL     1     -45.461 -47.686   9.321  1.00  0.00     0.009 A 
HETATM   17  C   UNL     1     -46.686 -48.414   8.831  1.00  0.00     0.007 A 
HETATM   18  C   UNL     1     -46.741 -46.929   9.071  1.00  0.00     0.007 A 
ENDBRANCH  15  16
ENDBRANCH  14  15
ENDBRANCH  13  14
ENDBRANCH  12  13
ENDBRANCH  10  12
ENDBRANCH   6  10
TORSDOF 6
ENDMDL
MODEL 4
REMARK VINA RESULT:      -4.8      6.337      7.874
REMARK  6 active torsions:
REMARK  status: ('A' for Active; 'I' for Inactive)
REMARK    1  A    between atoms: C_6  and  N_7 
REMARK    2  A    between atoms: N_7  and  C_8 
REMARK    3  A    between atoms: C_8  and  C_9 
REMARK    4  A    between atoms: C_9  and  O_10 
REMARK    5  A    between atoms: O_10  and  C_11 
REMARK    6  A    between atoms: C_11  and  C_12 
ROOT
HETATM    1 CL   UNL     1     -37.878 -49.835  11.733  1.00  0.00    -0.081 Cl
HETATM    2  C   UNL     1     -39.469 -50.384  12.029  1.00  0.00     0.064 A 
HETATM    3  C   UNL     1     -40.563 -49.865  11.383  1.00  0.00     0.116 A 
HETATM    4  N   UNL     1     -41.826 -50.307  11.574  1.00  0.00    -0.341 N 
ATOM      5  HN  UNL     1     -42.614 -49.906  11.066  1.00  0.00     0.167 HD
HETATM    6  C   UNL     1     -41.998 -51.300  12.465  1.00  0.00     0.157 A 
HETATM    7  N   UNL     1     -40.995 -51.846  13.170  1.00  0.00    -0.341 N 
ATOM      8  HN  UNL     1     -41.167 -52.576  13.861  1.00  0.00     0.167 HD
HETATM    9  C   UNL     1     -39.747 -51.385  12.925  1.00  0.00     0.116 A 
ENDROOT
BRANCH   6  10
HETATM   10  N   UNL     1     -43.245 -51.845  12.683  1.00  0.00    -0.262 NA
HETATM   11  H   UNL     1     -43.941 -51.151  12.443  1.00  0.00     0.130 HD
BRANCH  10  12
HETATM   12  C   UNL     1     -43.487 -53.178  12.149  1.00  0.00     0.121 C 
BRANCH  12  13
HETATM   13  C   UNL     1     -44.077 -54.085  13.239  1.00  0.00     0.182 C 
BRANCH  13  14
HETATM   14  O   UNL     1     -45.512 -54.115  13.165  1.00  0.00    -0.390 OA
BRANCH  14  15
HETATM   15  C   UNL     1     -46.076 -53.925  14.467  1.00  0.00     0.172 C 
BRANCH  15  16
HETATM   16  C   UNL     1     -46.877 -52.663  14.569  1.00  0.00     0.009 A 
HETATM   17  C   UNL     1     -46.715 -51.559  13.555  1.00  0.00     0.007 A 
HETATM   18  C   UNL     1     -46.302 -51.332  14.984  1.00  0.00     0.007 A 
ENDBRANCH  15  16
ENDBRANCH  14  15
ENDBRANCH  13  14
ENDBRANCH  12  13
ENDBRANCH  10  12
ENDBRANCH   6  10
TORSDOF 6
ENDMDL
MODEL 5
REMARK VINA RESULT:      -4.7      7.649      8.977
REMARK  6 active torsions:
REMARK  status: ('A' for Active; 'I' for Inactive)
REMARK    1  A    between atoms: C_6  and  N_7 
REMARK    2  A    between atoms: N_7  and  C_8 
REMARK    3  A    between atoms: C_8  and  C_9 
REMARK    4  A    between atoms: C_9  and  O_10 
REMARK    5  A    between atoms: O_10  and  C_11 
REMARK    6  A    between atoms: C_11  and  C_12 
ROOT
HETATM    1 CL   UNL     1     -38.970 -51.959  13.568  1.00  0.00    -0.081 Cl
HETATM    2  C   UNL     1     -40.487 -52.640  13.175  1.00  0.00     0.064 A 
HETATM    3  C   UNL     1     -41.045 -53.668  13.894  1.00  0.00     0.116 A 
HETATM    4  N   UNL     1     -42.259 -54.199  13.623  1.00  0.00    -0.341 N 
ATOM      5  HN  UNL     1     -42.648 -54.954  14.188  1.00  0.00     0.167 HD
HETATM    6  C   UNL     1     -42.930 -53.687  12.577  1.00  0.00     0.157 A 
HETATM    7  N   UNL     1     -42.451 -52.707  11.795  1.00  0.00    -0.341 N 
ATOM      8  HN  UNL     1     -42.975 -52.365  10.989  1.00  0.00     0.167 HD
HETATM    9  C   UNL     1     -41.243 -52.193  12.121  1.00  0.00     0.116 A 
ENDROOT
BRANCH   6  10
HETATM   10  N   UNL     1     -44.196 -54.134  12.263  1.00  0.00    -0.262 NA
HETATM   11  H   UNL     1     -44.138 -55.119  12.038  1.00  0.00     0.130 HD
BRANCH  10  12
HETATM   12  C   UNL     1     -45.272 -53.768  13.173  1.00  0.00     0.121 C 
BRANCH  12  13
HETATM   13  C   UNL     1     -45.691 -54.983  14.013  1.00  0.00     0.182 C 
BRANCH  13  14
HETATM   14  O   UNL     1     -46.083 -54.585  15.338  1.00  0.00    -0.390 OA
BRANCH  14  15
HETATM   15  C   UNL     1     -45.435 -53.359  15.695  1.00  0.00     0.172 C 
BRANCH  15  16
HETATM   16  C   UNL     1     -46.316 -52.456  16.503  1.00  0.00     0.009 A 
HETATM   17  C   UNL     1     -47.208 -51.442  15.833  1.00  0.00     0.007 A 
HETATM   18  C   UNL     1     -46.063 -50.982  16.694  1.00  0.00     0.007 A 
ENDBRANCH  15  16
ENDBRANCH  14  15
ENDBRANCH  13  14
ENDBRANCH  12  13
ENDBRANCH  10  12
ENDBRANCH   6  10
TORSDOF 6
ENDMDL
MODEL 6
REMARK VINA RESULT:      -4.7      7.210      9.277
REMARK  6 active torsions:
REMARK  status: ('A' for Active; 'I' for Inactive)
REMARK    1  A    between atoms: C_6  and  N_7 
REMARK    2  A    between atoms: N_7  and  C_8 
REMARK    3  A    between atoms: C_8  and  C_9 
REMARK    4  A    between atoms: C_9  and  O_10 
REMARK    5  A    between atoms: O_10  and  C_11 
REMARK    6  A    between atoms: C_11  and  C_12 
ROOT
HETATM    1 CL   UNL     1     -39.407 -55.980  17.507  1.00  0.00    -0.081 Cl
HETATM    2  C   UNL     1     -39.734 -55.308  15.971  1.00  0.00     0.064 A 
HETATM    3  C   UNL     1     -38.774 -55.190  14.996  1.00  0.00     0.116 A 
HETATM    4  N   UNL     1     -39.018 -54.695  13.762  1.00  0.00    -0.341 N 
ATOM      5  HN  UNL     1     -38.282 -54.634  13.058  1.00  0.00     0.167 HD
HETATM    6  C   UNL     1     -40.272 -54.286  13.504  1.00  0.00     0.157 A 
HETATM    7  N   UNL     1     -41.267 -54.329  14.403  1.00  0.00    -0.341 N 
ATOM      8  HN  UNL     1     -42.200 -53.980  14.182  1.00  0.00     0.167 HD
HETATM    9  C   UNL     1     -40.979 -54.855  15.616  1.00  0.00     0.116 A 
ENDROOT
BRANCH   6  10
HETATM   10  N   UNL     1     -40.619 -53.816  12.254  1.00  0.00    -0.262 NA
HETATM   11  H   UNL     1     -41.305 -54.445  11.858  1.00  0.00     0.130 HD
BRANCH  10  12
HETATM   12  C   UNL     1     -40.939 -52.399  12.146  1.00  0.00     0.121 C 
BRANCH  12  13
HETATM   13  C   UNL     1     -42.459 -52.194  12.220  1.00  0.00     0.182 C 
BRANCH  13  14
HETATM   14  O   UNL     1     -42.854 -51.730  13.522  1.00  0.00    -0.390 OA
BRANCH  14  15
HETATM   15  C   UNL     1     -44.076 -50.990  13.430  1.00  0.00     0.172 C 
BRANCH  15  16
HETATM   16  C   UNL     1     -45.289 -51.864  13.537  1.00  0.00     0.009 A 
HETATM   17  C   UNL     1     -46.506 -51.606  12.686  1.00  0.00     0.007 A 
HETATM   18  C   UNL     1     -46.583 -51.434  14.179  1.00  0.00     0.007 A 
ENDBRANCH  15  16
ENDBRANCH  14  15
ENDBRANCH  13  14
ENDBRANCH  12  13
ENDBRANCH  10  12
ENDBRANCH   6  10
TORSDOF 6
ENDMDL
MODEL 7
REMARK VINA RESULT:      -4.6      3.612      5.581
REMARK  6 active torsions:
REMARK  status: ('A' for Active; 'I' for Inactive)
REMARK    1  A    between atoms: C_6  and  N_7 
REMARK    2  A    between atoms: N_7  and  C_8 
REMARK    3  A    between atoms: C_8  and  C_9 
REMARK    4  A    between atoms: C_9  and  O_10 
REMARK    5  A    between atoms: O_10  and  C_11 
REMARK    6  A    between atoms: C_11  and  C_12 
ROOT
HETATM    1 CL   UNL     1     -37.548 -49.606  13.453  1.00  0.00    -0.081 Cl
HETATM    2  C   UNL     1     -38.945 -49.287  12.522  1.00  0.00     0.064 A 
HETATM    3  C   UNL     1     -39.253 -49.992  11.385  1.00  0.00     0.116 A 
HETATM    4  N   UNL     1     -40.370 -49.782  10.652  1.00  0.00    -0.341 N 
ATOM      5  HN  UNL     1     -40.572 -50.335   9.820  1.00  0.00     0.167 HD
HETATM    6  C   UNL     1     -41.201 -48.812  11.070  1.00  0.00     0.157 A 
HETATM    7  N   UNL     1     -40.967 -48.047  12.148  1.00  0.00    -0.341 N 
ATOM      8  HN  UNL     1     -41.606 -47.298  12.418  1.00  0.00     0.167 HD
HETATM    9  C   UNL     1     -39.849 -48.312  12.861  1.00  0.00     0.116 A 
ENDROOT
BRANCH   6  10
HETATM   10  N   UNL     1     -42.387 -48.566  10.412  1.00  0.00    -0.262 NA
HETATM   11  H   UNL     1     -42.977 -49.384  10.504  1.00  0.00     0.130 HD
BRANCH  10  12
HETATM   12  C   UNL     1     -43.043 -47.294  10.682  1.00  0.00     0.121 C 
BRANCH  12  13
HETATM   13  C   UNL     1     -43.138 -46.465   9.393  1.00  0.00     0.182 C 
BRANCH  13  14
HETATM   14  O   UNL     1     -42.741 -45.103   9.625  1.00  0.00    -0.390 OA
BRANCH  14  15
HETATM   15  C   UNL     1     -42.179 -44.970  10.935  1.00  0.00     0.172 C 
BRANCH  15  16
HETATM   16  C   UNL     1     -40.846 -44.285  10.924  1.00  0.00     0.009 A 
HETATM   17  C   UNL     1     -39.658 -44.915  10.243  1.00  0.00     0.007 A 
HETATM   18  C   UNL     1     -39.660 -44.738  11.737  1.00  0.00     0.007 A 
ENDBRANCH  15  16
ENDBRANCH  14  15
ENDBRANCH  13  14
ENDBRANCH  12  13
ENDBRANCH  10  12
ENDBRANCH   6  10
TORSDOF 6
ENDMDL
MODEL 8
REMARK VINA RESULT:      -4.6      5.516      5.966
REMARK  6 active torsions:
REMARK  status: ('A' for Active; 'I' for Inactive)
REMARK    1  A    between atoms: C_6  and  N_7 
REMARK    2  A    between atoms: N_7  and  C_8 
REMARK    3  A    between atoms: C_8  and  C_9 
REMARK    4  A    between atoms: C_9  and  O_10 
REMARK    5  A    between atoms: O_10  and  C_11 
REMARK    6  A    between atoms: C_11  and  C_12 
ROOT
HETATM    1 CL   UNL     1     -47.154 -51.322  15.245  1.00  0.00    -0.081 Cl
HETATM    2  C   UNL     1     -45.870 -51.781  14.215  1.00  0.00     0.064 A 
HETATM    3  C   UNL     1     -46.073 -52.442  13.029  1.00  0.00     0.116 A 
HETATM    4  N   UNL     1     -45.077 -52.784  12.182  1.00  0.00    -0.341 N 
ATOM      5  HN  UNL     1     -45.267 -53.264  11.302  1.00  0.00     0.167 HD
HETATM    6  C   UNL     1     -43.824 -52.464  12.551  1.00  0.00     0.157 A 
HETATM    7  N   UNL     1     -43.525 -51.850  13.706  1.00  0.00    -0.341 N 
ATOM      8  HN  UNL     1     -42.559 -51.651  13.967  1.00  0.00     0.167 HD
HETATM    9  C   UNL     1     -44.558 -51.508  14.508  1.00  0.00     0.116 A 
ENDROOT
BRANCH   6  10
HETATM   10  N   UNL     1     -42.755 -52.730  11.722  1.00  0.00    -0.262 NA
HETATM   11  H   UNL     1     -43.035 -52.536  10.769  1.00  0.00     0.130 HD
BRANCH  10  12
HETATM   12  C   UNL     1     -41.463 -52.182  12.113  1.00  0.00     0.121 C 
BRANCH  12  13
HETATM   13  C   UNL     1     -40.563 -53.295  12.669  1.00  0.00     0.182 C 
BRANCH  13  14
HETATM   14  O   UNL     1     -39.407 -52.746  13.323  1.00  0.00    -0.390 OA
BRANCH  14  15
HETATM   15  C   UNL     1     -39.356 -51.329  13.126  1.00  0.00     0.172 C 
BRANCH  15  16
HETATM   16  C   UNL     1     -37.969 -50.835  12.849  1.00  0.00     0.009 A 
HETATM   17  C   UNL     1     -37.685 -49.361  12.712  1.00  0.00     0.007 A 
HETATM   18  C   UNL     1     -37.524 -50.269  11.523  1.00  0.00     0.007 A 
ENDBRANCH  15  16
ENDBRANCH  14  15
ENDBRANCH  13  14
ENDBRANCH  12  13
ENDBRANCH  10  12
ENDBRANCH   6  10
TORSDOF 6
ENDMDL
MODEL 9
REMARK VINA RESULT:      -4.6      4.905      6.622
REMARK  6 active torsions:
REMARK  status: ('A' for Active; 'I' for Inactive)
REMARK    1  A    between atoms: C_6  and  N_7 
REMARK    2  A    between atoms: N_7  and  C_8 
REMARK    3  A    between atoms: C_8  and  C_9 
REMARK    4  A    between atoms: C_9  and  O_10 
REMARK    5  A    between atoms: O_10  and  C_11 
REMARK    6  A    between atoms: C_11  and  C_12 
ROOT
HETATM    1 CL   UNL     1     -43.401 -55.194  14.742  1.00  0.00    -0.081 Cl
HETATM    2  C   UNL     1     -42.663 -54.095  13.662  1.00  0.00     0.064 A 
HETATM    3  C   UNL     1     -43.371 -53.405  12.710  1.00  0.00     0.116 A 
HETATM    4  N   UNL     1     -42.815 -52.505  11.868  1.00  0.00    -0.341 N 
ATOM      5  HN  UNL     1     -43.376 -52.000  11.181  1.00  0.00     0.167 HD
HETATM    6  C   UNL     1     -41.491 -52.303  11.977  1.00  0.00     0.157 A 
HETATM    7  N   UNL     1     -40.710 -52.956  12.853  1.00  0.00    -0.341 N 
ATOM      8  HN  UNL     1     -39.702 -52.801  12.885  1.00  0.00     0.167 HD
HETATM    9  C   UNL     1     -41.317 -53.829  13.688  1.00  0.00     0.116 A 
ENDROOT
BRANCH   6  10
HETATM   10  N   UNL     1     -40.852 -51.365  11.194  1.00  0.00    -0.262 NA
HETATM   11  H   UNL     1     -41.509 -51.031  10.501  1.00  0.00     0.130 HD
BRANCH  10  12
HETATM   12  C   UNL     1     -40.097 -50.330  11.885  1.00  0.00     0.121 C 
BRANCH  12  13
HETATM   13  C   UNL     1     -41.036 -49.202  12.335  1.00  0.00     0.182 C 
BRANCH  13  14
HETATM   14  O   UNL     1     -42.354 -49.378  11.788  1.00  0.00    -0.390 OA
BRANCH  14  15
HETATM   15  C   UNL     1     -42.912 -48.108  11.431  1.00  0.00     0.172 C 
BRANCH  15  16
HETATM   16  C   UNL     1     -42.683 -47.763   9.991  1.00  0.00     0.009 A 
HETATM   17  C   UNL     1     -42.919 -46.364   9.483  1.00  0.00     0.007 A 
HETATM   18  C   UNL     1     -43.790 -47.493   9.003  1.00  0.00     0.007 A 
ENDBRANCH  15  16
ENDBRANCH  14  15
ENDBRANCH  13  14
ENDBRANCH  12  13
ENDBRANCH  10  12
ENDBRANCH   6  10
TORSDOF 6
ENDMDL
