MODEL 1
REMARK VINA RESULT:      -6.3      0.000      0.000
REMARK  6 active torsions:
REMARK  status: ('A' for Active; 'I' for Inactive)
REMARK    1  A    between atoms: C_6  and  O_8 
REMARK    2  A    between atoms: O_8  and  C_9 
REMARK    3  A    between atoms: C_9  and  C_10 
REMARK       I    between atoms: C_10  and  N_12 
REMARK    4  A    between atoms: N_12  and  C_13 
REMARK    5  A    between atoms: C_13  and  C_14 
REMARK    6  A    between atoms: C_14  and  C_15 
ROOT
HETATM    1  C   UNL     1     -41.125 -50.779  12.121  1.00  0.00     0.241 C 
HETATM    2  O   UNL     1     -40.125 -50.372  12.706  1.00  0.00    -0.271 OA
HETATM    3  N   UNL     1     -42.108 -49.938  11.637  1.00  0.00    -0.359 N 
HETATM    4  H   UNL     1     -42.865 -50.323  11.087  1.00  0.00     0.162 HD
ENDROOT
BRANCH   1   5
HETATM    5  C   UNL     1     -41.387 -52.262  11.849  1.00  0.00     0.270 C 
BRANCH   5   6
HETATM    6  O   UNL     1     -41.400 -53.031  13.043  1.00  0.00    -0.377 OA
BRANCH   6   7
HETATM    7  C   UNL     1     -42.712 -53.200  13.598  1.00  0.00     0.122 C 
HETATM    8  C   UNL     1     -42.796 -54.513  14.385  1.00  0.00     0.032 C 
HETATM    9  C   UNL     1     -44.212 -54.851  14.825  1.00  0.00     0.003 C 
HETATM   10  C   UNL     1     -45.186 -54.842  13.652  1.00  0.00     0.004 C 
HETATM   11  C   UNL     1     -45.149 -53.528  12.860  1.00  0.00    -0.016 C 
HETATM   12  C   UNL     1     -45.785 -52.378  13.645  1.00  0.00     0.010 C 
HETATM   13  C   UNL     1     -43.710 -53.201  12.432  1.00  0.00     0.036 C 
ENDBRANCH   6   7
ENDBRANCH   5   6
ENDBRANCH   1   5
BRANCH   3  14
HETATM   14  C   UNL     1     -41.962 -48.496  11.706  1.00  0.00     0.127 C 
BRANCH  14  15
HETATM   15  C   UNL     1     -41.819 -47.850  10.325  1.00  0.00     0.061 C 
BRANCH  15  16
HETATM   16  C   UNL     1     -43.119 -47.710   9.602  1.00  0.00    -0.023 A 
HETATM   17  C   UNL     1     -43.355 -47.807   8.211  1.00  0.00     0.115 A 
HETATM   18  N   UNL     1     -44.636 -47.610   7.891  1.00  0.00    -0.310 N 
HETATM   19  N   UNL     1     -45.235 -47.417   9.078  1.00  0.00    -0.308 N 
ATOM     20  HN  UNL     1     -45.061 -47.607   6.964  1.00  0.00     0.186 HD
HETATM   21  C   UNL     1     -46.657 -47.192   9.150  1.00  0.00     0.177 C 
HETATM   22  C   UNL     1     -44.368 -47.459  10.132  1.00  0.00     0.118 A 
ENDBRANCH  15  16
ENDBRANCH  14  15
ENDBRANCH   3  14
TORSDOF 6
ENDMDL
MODEL 2
REMARK VINA RESULT:      -6.0      1.603      2.231
REMARK  6 active torsions:
REMARK  status: ('A' for Active; 'I' for Inactive)
REMARK    1  A    between atoms: C_6  and  O_8 
REMARK    2  A    between atoms: O_8  and  C_9 
REMARK    3  A    between atoms: C_9  and  C_10 
REMARK       I    between atoms: C_10  and  N_12 
REMARK    4  A    between atoms: N_12  and  C_13 
REMARK    5  A    between atoms: C_13  and  C_14 
REMARK    6  A    between atoms: C_14  and  C_15 
ROOT
HETATM    1  C   UNL     1     -42.221 -49.487  12.955  1.00  0.00     0.241 C 
HETATM    2  O   UNL     1     -41.557 -48.667  13.585  1.00  0.00    -0.271 OA
HETATM    3  N   UNL     1     -42.232 -49.544  11.574  1.00  0.00    -0.359 N 
HETATM    4  H   UNL     1     -42.728 -50.295  11.112  1.00  0.00     0.162 HD
ENDROOT
BRANCH   1   5
HETATM    5  C   UNL     1     -43.097 -50.545  13.627  1.00  0.00     0.270 C 
BRANCH   5   6
HETATM    6  O   UNL     1     -44.399 -50.600  13.061  1.00  0.00    -0.377 OA
BRANCH   6   7
HETATM    7  C   UNL     1     -45.138 -51.767  13.447  1.00  0.00     0.122 C 
HETATM    8  C   UNL     1     -46.309 -51.382  14.360  1.00  0.00     0.032 C 
HETATM    9  C   UNL     1     -47.008 -52.588  14.968  1.00  0.00     0.003 C 
HETATM   10  C   UNL     1     -46.027 -53.509  15.683  1.00  0.00     0.004 C 
HETATM   11  C   UNL     1     -44.857 -53.939  14.788  1.00  0.00    -0.016 C 
HETATM   12  C   UNL     1     -45.303 -54.933  13.713  1.00  0.00     0.010 C 
HETATM   13  C   UNL     1     -44.169 -52.708  14.177  1.00  0.00     0.036 C 
ENDBRANCH   6   7
ENDBRANCH   5   6
ENDBRANCH   1   5
BRANCH   3  14
HETATM   14  C   UNL     1     -41.368 -48.690  10.781  1.00  0.00     0.127 C 
BRANCH  14  15
HETATM   15  C   UNL     1     -42.032 -47.363  10.403  1.00  0.00     0.061 C 
BRANCH  15  16
HETATM   16  C   UNL     1     -43.291 -47.537   9.618  1.00  0.00    -0.023 A 
HETATM   17  C   UNL     1     -43.423 -47.798   8.234  1.00  0.00     0.115 A 
HETATM   18  N   UNL     1     -44.698 -47.878   7.845  1.00  0.00    -0.310 N 
HETATM   19  N   UNL     1     -45.390 -47.699   8.983  1.00  0.00    -0.308 N 
ATOM     20  HN  UNL     1     -45.061 -48.036   6.905  1.00  0.00     0.186 HD
HETATM   21  C   UNL     1     -46.831 -47.744   8.974  1.00  0.00     0.177 C 
HETATM   22  C   UNL     1     -44.594 -47.484  10.070  1.00  0.00     0.118 A 
ENDBRANCH  15  16
ENDBRANCH  14  15
ENDBRANCH   3  14
TORSDOF 6
ENDMDL
MODEL 3
REMARK VINA RESULT:      -5.9      1.630      2.502
REMARK  6 active torsions:
REMARK  status: ('A' for Active; 'I' for Inactive)
REMARK    1  A    between atoms: C_6  and  O_8 
REMARK    2  A    between atoms: O_8  and  C_9 
REMARK    3  A    between atoms: C_9  and  C_10 
REMARK       I    between atoms: C_10  and  N_12 
REMARK    4  A    between atoms: N_12  and  C_13 
REMARK    5  A    between atoms: C_13  and  C_14 
REMARK    6  A    between atoms: C_14  and  C_15 
ROOT
HETATM    1  C   UNL     1     -40.832 -52.039  12.379  1.00  0.00     0.241 C 
HETATM    2  O   UNL     1     -39.636 -52.238  12.574  1.00  0.00    -0.271 OA
HETATM    3  N   UNL     1     -41.313 -50.914  11.738  1.00  0.00    -0.359 N 
HETATM    4  H   UNL     1     -42.301 -50.845  11.528  1.00  0.00     0.162 HD
ENDROOT
BRANCH   1   5
HETATM    5  C   UNL     1     -41.923 -53.021  12.812  1.00  0.00     0.270 C 
BRANCH   5   6
HETATM    6  O   UNL     1     -42.549 -52.625  14.024  1.00  0.00    -0.377 OA
BRANCH   6   7
HETATM    7  C   UNL     1     -43.980 -52.712  13.981  1.00  0.00     0.122 C 
HETATM    8  C   UNL     1     -44.460 -52.924  12.540  1.00  0.00     0.032 C 
HETATM    9  C   UNL     1     -45.971 -52.818  12.398  1.00  0.00     0.003 C 
HETATM   10  C   UNL     1     -46.504 -51.512  12.974  1.00  0.00     0.004 C 
HETATM   11  C   UNL     1     -46.066 -51.283  14.427  1.00  0.00    -0.016 C 
HETATM   12  C   UNL     1     -46.790 -52.226  15.391  1.00  0.00     0.010 C 
HETATM   13  C   UNL     1     -44.539 -51.401  14.552  1.00  0.00     0.036 C 
ENDBRANCH   6   7
ENDBRANCH   5   6
ENDBRANCH   1   5
BRANCH   3  14
HETATM   14  C   UNL     1     -40.410 -49.937  11.159  1.00  0.00     0.127 C 
BRANCH  14  15
HETATM   15  C   UNL     1     -40.584 -48.540  11.763  1.00  0.00     0.061 C 
BRANCH  15  16
HETATM   16  C   UNL     1     -41.760 -47.802  11.213  1.00  0.00    -0.023 A 
HETATM   17  C   UNL     1     -42.560 -46.833  11.863  1.00  0.00     0.115 A 
HETATM   18  N   UNL     1     -43.551 -46.381  11.090  1.00  0.00    -0.310 N 
HETATM   19  N   UNL     1     -43.374 -47.036   9.930  1.00  0.00    -0.308 N 
ATOM     20  HN  UNL     1     -44.272 -45.700  11.326  1.00  0.00     0.186 HD
HETATM   21  C   UNL     1     -44.253 -46.791   8.814  1.00  0.00     0.177 C 
HETATM   22  C   UNL     1     -42.320 -47.903   9.956  1.00  0.00     0.118 A 
ENDBRANCH  15  16
ENDBRANCH  14  15
ENDBRANCH   3  14
TORSDOF 6
ENDMDL
MODEL 4
REMARK VINA RESULT:      -5.6      2.472      3.377
REMARK  6 active torsions:
REMARK  status: ('A' for Active; 'I' for Inactive)
REMARK    1  A    between atoms: C_6  and  O_8 
REMARK    2  A    between atoms: O_8  and  C_9 
REMARK    3  A    between atoms: C_9  and  C_10 
REMARK       I    between atoms: C_10  and  N_12 
REMARK    4  A    between atoms: N_12  and  C_13 
REMARK    5  A    between atoms: C_13  and  C_14 
REMARK    6  A    between atoms: C_14  and  C_15 
ROOT
HETATM    1  C   UNL     1     -40.770 -51.916  12.267  1.00  0.00     0.241 C 
HETATM    2  O   UNL     1     -39.677 -52.133  12.784  1.00  0.00    -0.271 OA
HETATM    3  N   UNL     1     -41.025 -50.806  11.485  1.00  0.00    -0.359 N 
HETATM    4  H   UNL     1     -41.917 -50.724  11.015  1.00  0.00     0.162 HD
ENDROOT
BRANCH   1   5
HETATM    5  C   UNL     1     -41.966 -52.857  12.418  1.00  0.00     0.270 C 
BRANCH   5   6
HETATM    6  O   UNL     1     -42.471 -52.873  13.746  1.00  0.00    -0.377 OA
BRANCH   6   7
HETATM    7  C   UNL     1     -43.904 -52.854  13.811  1.00  0.00     0.122 C 
HETATM    8  C   UNL     1     -44.506 -53.038  12.413  1.00  0.00     0.032 C 
HETATM    9  C   UNL     1     -46.012 -52.822  12.383  1.00  0.00     0.003 C 
HETATM   10  C   UNL     1     -46.402 -51.477  12.984  1.00  0.00     0.004 C 
HETATM   11  C   UNL     1     -45.840 -51.273  14.397  1.00  0.00    -0.016 C 
HETATM   12  C   UNL     1     -46.556 -52.155  15.423  1.00  0.00     0.010 C 
HETATM   13  C   UNL     1     -44.321 -51.502  14.408  1.00  0.00     0.036 C 
ENDBRANCH   6   7
ENDBRANCH   5   6
ENDBRANCH   1   5
BRANCH   3  14
HETATM   14  C   UNL     1     -39.970 -49.870  11.143  1.00  0.00     0.127 C 
BRANCH  14  15
HETATM   15  C   UNL     1     -39.896 -48.683  12.107  1.00  0.00     0.061 C 
BRANCH  15  16
HETATM   16  C   UNL     1     -40.319 -47.392  11.486  1.00  0.00    -0.023 A 
HETATM   17  C   UNL     1     -41.352 -47.178  10.545  1.00  0.00     0.115 A 
HETATM   18  N   UNL     1     -41.456 -45.899  10.176  1.00  0.00    -0.310 N 
HETATM   19  N   UNL     1     -40.510 -45.281  10.903  1.00  0.00    -0.308 N 
ATOM     20  HN  UNL     1     -42.101 -45.488   9.502  1.00  0.00     0.186 HD
HETATM   21  C   UNL     1     -40.327 -43.854  10.799  1.00  0.00     0.177 C 
HETATM   22  C   UNL     1     -39.798 -46.132  11.697  1.00  0.00     0.118 A 
ENDBRANCH  15  16
ENDBRANCH  14  15
ENDBRANCH   3  14
TORSDOF 6
ENDMDL
MODEL 5
REMARK VINA RESULT:      -5.4     15.663     18.047
REMARK  6 active torsions:
REMARK  status: ('A' for Active; 'I' for Inactive)
REMARK    1  A    between atoms: C_6  and  O_8 
REMARK    2  A    between atoms: O_8  and  C_9 
REMARK    3  A    between atoms: C_9  and  C_10 
REMARK       I    between atoms: C_10  and  N_12 
REMARK    4  A    between atoms: N_12  and  C_13 
REMARK    5  A    between atoms: C_13  and  C_14 
REMARK    6  A    between atoms: C_14  and  C_15 
ROOT
HETATM    1  C   UNL     1     -28.629 -59.135  19.192  1.00  0.00     0.241 C 
HETATM    2  O   UNL     1     -29.797 -59.348  19.508  1.00  0.00    -0.271 OA
HETATM    3  N   UNL     1     -27.974 -57.955  19.486  1.00  0.00    -0.359 N 
HETATM    4  H   UNL     1     -26.987 -57.869  19.278  1.00  0.00     0.162 HD
ENDROOT
BRANCH   1   5
HETATM    5  C   UNL     1     -27.765 -60.157  18.451  1.00  0.00     0.270 C 
BRANCH   5   6
HETATM    6  O   UNL     1     -27.915 -61.467  18.978  1.00  0.00    -0.377 OA
BRANCH   6   7
HETATM    7  C   UNL     1     -28.129 -62.466  17.971  1.00  0.00     0.122 C 
HETATM    8  C   UNL     1     -26.881 -63.342  17.811  1.00  0.00     0.032 C 
HETATM    9  C   UNL     1     -26.967 -64.285  16.621  1.00  0.00     0.003 C 
HETATM   10  C   UNL     1     -27.293 -63.540  15.331  1.00  0.00     0.004 C 
HETATM   11  C   UNL     1     -28.555 -62.676  15.448  1.00  0.00    -0.016 C 
HETATM   12  C   UNL     1     -29.823 -63.533  15.499  1.00  0.00     0.010 C 
HETATM   13  C   UNL     1     -28.453 -61.737  16.659  1.00  0.00     0.036 C 
ENDBRANCH   6   7
ENDBRANCH   5   6
ENDBRANCH   1   5
BRANCH   3  14
HETATM   14  C   UNL     1     -28.607 -56.924  20.286  1.00  0.00     0.127 C 
BRANCH  14  15
HETATM   15  C   UNL     1     -28.467 -55.528  19.672  1.00  0.00     0.061 C 
BRANCH  15  16
HETATM   16  C   UNL     1     -29.624 -55.145  18.809  1.00  0.00    -0.023 A 
HETATM   17  C   UNL     1     -29.814 -53.938  18.096  1.00  0.00     0.115 A 
HETATM   18  N   UNL     1     -30.973 -53.909  17.434  1.00  0.00    -0.310 N 
HETATM   19  N   UNL     1     -31.518 -55.109  17.693  1.00  0.00    -0.308 N 
ATOM     20  HN  UNL     1     -31.355 -53.153  16.865  1.00  0.00     0.186 HD
HETATM   21  C   UNL     1     -32.791 -55.471  17.119  1.00  0.00     0.177 C 
HETATM   22  C   UNL     1     -30.753 -55.882  18.517  1.00  0.00     0.118 A 
ENDBRANCH  15  16
ENDBRANCH  14  15
ENDBRANCH   3  14
TORSDOF 6
ENDMDL
MODEL 6
REMARK VINA RESULT:      -5.3      3.746      5.877
REMARK  6 active torsions:
REMARK  status: ('A' for Active; 'I' for Inactive)
REMARK    1  A    between atoms: C_6  and  O_8 
REMARK    2  A    between atoms: O_8  and  C_9 
REMARK    3  A    between atoms: C_9  and  C_10 
REMARK       I    between atoms: C_10  and  N_12 
REMARK    4  A    between atoms: N_12  and  C_13 
REMARK    5  A    between atoms: C_13  and  C_14 
REMARK    6  A    between atoms: C_14  and  C_15 
ROOT
HETATM    1  C   UNL     1     -40.483 -51.959  12.454  1.00  0.00     0.241 C 
HETATM    2  O   UNL     1     -39.588 -52.658  12.923  1.00  0.00    -0.271 OA
HETATM    3  N   UNL     1     -40.246 -50.744  11.842  1.00  0.00    -0.359 N 
HETATM    4  H   UNL     1     -41.011 -50.254  11.397  1.00  0.00     0.162 HD
ENDROOT
BRANCH   1   5
HETATM    5  C   UNL     1     -41.958 -52.363  12.482  1.00  0.00     0.270 C 
BRANCH   5   6
HETATM    6  O   UNL     1     -42.459 -52.470  13.807  1.00  0.00    -0.377 OA
BRANCH   6   7
HETATM    7  C   UNL     1     -43.885 -52.612  13.867  1.00  0.00     0.122 C 
HETATM    8  C   UNL     1     -44.453 -52.914  12.475  1.00  0.00     0.032 C 
HETATM    9  C   UNL     1     -45.973 -52.872  12.432  1.00  0.00     0.003 C 
HETATM   10  C   UNL     1     -46.518 -51.560  12.982  1.00  0.00     0.004 C 
HETATM   11  C   UNL     1     -45.993 -51.242  14.389  1.00  0.00    -0.016 C 
HETATM   12  C   UNL     1     -46.611 -52.163  15.444  1.00  0.00     0.010 C 
HETATM   13  C   UNL     1     -44.458 -51.296  14.413  1.00  0.00     0.036 C 
ENDBRANCH   6   7
ENDBRANCH   5   6
ENDBRANCH   1   5
BRANCH   3  14
HETATM   14  C   UNL     1     -38.894 -50.264  11.626  1.00  0.00     0.127 C 
BRANCH  14  15
HETATM   15  C   UNL     1     -38.633 -48.909  12.290  1.00  0.00     0.061 C 
BRANCH  15  16
HETATM   16  C   UNL     1     -37.863 -49.016  13.565  1.00  0.00    -0.023 A 
HETATM   17  C   UNL     1     -37.471 -50.191  14.248  1.00  0.00     0.115 A 
HETATM   18  N   UNL     1     -36.807 -49.933  15.377  1.00  0.00    -0.310 N 
HETATM   19  N   UNL     1     -36.743 -48.591  15.409  1.00  0.00    -0.308 N 
ATOM     20  HN  UNL     1     -36.436 -50.598  16.055  1.00  0.00     0.186 HD
HETATM   21  C   UNL     1     -36.063 -47.919  16.489  1.00  0.00     0.177 C 
HETATM   22  C   UNL     1     -37.366 -47.996  14.351  1.00  0.00     0.118 A 
ENDBRANCH  15  16
ENDBRANCH  14  15
ENDBRANCH   3  14
TORSDOF 6
ENDMDL
MODEL 7
REMARK VINA RESULT:      -5.2      3.592      6.586
REMARK  6 active torsions:
REMARK  status: ('A' for Active; 'I' for Inactive)
REMARK    1  A    between atoms: C_6  and  O_8 
REMARK    2  A    between atoms: O_8  and  C_9 
REMARK    3  A    between atoms: C_9  and  C_10 
REMARK       I    between atoms: C_10  and  N_12 
REMARK    4  A    between atoms: N_12  and  C_13 
REMARK    5  A    between atoms: C_13  and  C_14 
REMARK    6  A    between atoms: C_14  and  C_15 
ROOT
HETATM    1  C   UNL     1     -42.773 -53.215  12.985  1.00  0.00     0.241 C 
HETATM    2  O   UNL     1     -42.938 -53.657  14.120  1.00  0.00    -0.271 OA
HETATM    3  N   UNL     1     -43.819 -52.957  12.120  1.00  0.00    -0.359 N 
HETATM    4  H   UNL     1     -43.629 -52.512  11.231  1.00  0.00     0.162 HD
ENDROOT
BRANCH   1   5
HETATM    5  C   UNL     1     -41.395 -52.889  12.409  1.00  0.00     0.270 C 
BRANCH   5   6
HETATM    6  O   UNL     1     -40.447 -52.588  13.424  1.00  0.00    -0.377 OA
BRANCH   6   7
HETATM    7  C   UNL     1     -39.850 -51.292  13.279  1.00  0.00     0.122 C 
HETATM    8  C   UNL     1     -40.221 -50.679  11.923  1.00  0.00     0.032 C 
HETATM    9  C   UNL     1     -39.456 -49.399  11.622  1.00  0.00     0.003 C 
HETATM   10  C   UNL     1     -37.950 -49.597  11.750  1.00  0.00     0.004 C 
HETATM   11  C   UNL     1     -37.542 -50.181  13.109  1.00  0.00    -0.016 C 
HETATM   12  C   UNL     1     -37.696 -49.155  14.234  1.00  0.00     0.010 C 
HETATM   13  C   UNL     1     -38.330 -51.468  13.398  1.00  0.00     0.036 C 
ENDBRANCH   6   7
ENDBRANCH   5   6
ENDBRANCH   1   5
BRANCH   3  14
HETATM   14  C   UNL     1     -45.198 -53.099  12.546  1.00  0.00     0.127 C 
BRANCH  14  15
HETATM   15  C   UNL     1     -45.875 -51.753  12.819  1.00  0.00     0.061 C 
BRANCH  15  16
HETATM   16  C   UNL     1     -45.923 -51.401  14.270  1.00  0.00    -0.023 A 
HETATM   17  C   UNL     1     -47.017 -51.527  15.159  1.00  0.00     0.115 A 
HETATM   18  N   UNL     1     -46.730 -51.101  16.391  1.00  0.00    -0.310 N 
HETATM   19  N   UNL     1     -45.442 -50.727  16.307  1.00  0.00    -0.308 N 
ATOM     20  HN  UNL     1     -47.344 -51.066  17.205  1.00  0.00     0.186 HD
HETATM   21  C   UNL     1     -44.751 -50.224  17.468  1.00  0.00     0.177 C 
HETATM   22  C   UNL     1     -44.917 -50.880  15.057  1.00  0.00     0.118 A 
ENDBRANCH  15  16
ENDBRANCH  14  15
ENDBRANCH   3  14
TORSDOF 6
ENDMDL
MODEL 8
REMARK VINA RESULT:      -5.2      2.533      3.570
REMARK  6 active torsions:
REMARK  status: ('A' for Active; 'I' for Inactive)
REMARK    1  A    between atoms: C_6  and  O_8 
REMARK    2  A    between atoms: O_8  and  C_9 
REMARK    3  A    between atoms: C_9  and  C_10 
REMARK       I    between atoms: C_10  and  N_12 
REMARK    4  A    between atoms: N_12  and  C_13 
REMARK    5  A    between atoms: C_13  and  C_14 
REMARK    6  A    between atoms: C_14  and  C_15 
ROOT
HETATM    1  C   UNL     1     -38.381 -51.340  13.276  1.00  0.00     0.241 C 
HETATM    2  O   UNL     1     -37.481 -51.615  12.486  1.00  0.00    -0.271 OA
HETATM    3  N   UNL     1     -38.857 -50.056  13.458  1.00  0.00    -0.359 N 
HETATM    4  H   UNL     1     -39.658 -49.904  14.057  1.00  0.00     0.162 HD
ENDROOT
BRANCH   1   5
HETATM    5  C   UNL     1     -39.086 -52.392  14.136  1.00  0.00     0.270 C 
BRANCH   5   6
HETATM    6  O   UNL     1     -39.456 -53.538  13.383  1.00  0.00    -0.377 OA
BRANCH   6   7
HETATM    7  C   UNL     1     -40.631 -54.192  13.882  1.00  0.00     0.122 C 
HETATM    8  C   UNL     1     -41.857 -53.799  13.049  1.00  0.00     0.032 C 
HETATM    9  C   UNL     1     -43.165 -54.294  13.649  1.00  0.00     0.003 C 
HETATM   10  C   UNL     1     -43.319 -53.863  15.103  1.00  0.00     0.004 C 
HETATM   11  C   UNL     1     -42.121 -54.269  15.972  1.00  0.00    -0.016 C 
HETATM   12  C   UNL     1     -42.090 -55.778  16.222  1.00  0.00     0.010 C 
HETATM   13  C   UNL     1     -40.810 -53.767  15.346  1.00  0.00     0.036 C 
ENDBRANCH   6   7
ENDBRANCH   5   6
ENDBRANCH   1   5
BRANCH   3  14
HETATM   14  C   UNL     1     -38.382 -48.957  12.639  1.00  0.00     0.127 C 
BRANCH  14  15
HETATM   15  C   UNL     1     -39.152 -47.657  12.889  1.00  0.00     0.061 C 
BRANCH  15  16
HETATM   16  C   UNL     1     -40.102 -47.314  11.789  1.00  0.00    -0.023 A 
HETATM   17  C   UNL     1     -40.095 -46.167  10.961  1.00  0.00     0.115 A 
HETATM   18  N   UNL     1     -41.102 -46.159  10.085  1.00  0.00    -0.310 N 
HETATM   19  N   UNL     1     -41.743 -47.315  10.326  1.00  0.00    -0.308 N 
ATOM     20  HN  UNL     1     -41.332 -45.444   9.395  1.00  0.00     0.186 HD
HETATM   21  C   UNL     1     -42.898 -47.686   9.545  1.00  0.00     0.177 C 
HETATM   22  C   UNL     1     -41.188 -48.038  11.342  1.00  0.00     0.118 A 
ENDBRANCH  15  16
ENDBRANCH  14  15
ENDBRANCH   3  14
TORSDOF 6
ENDMDL
MODEL 9
REMARK VINA RESULT:      -5.1      2.463      4.048
REMARK  6 active torsions:
REMARK  status: ('A' for Active; 'I' for Inactive)
REMARK    1  A    between atoms: C_6  and  O_8 
REMARK    2  A    between atoms: O_8  and  C_9 
REMARK    3  A    between atoms: C_9  and  C_10 
REMARK       I    between atoms: C_10  and  N_12 
REMARK    4  A    between atoms: N_12  and  C_13 
REMARK    5  A    between atoms: C_13  and  C_14 
REMARK    6  A    between atoms: C_14  and  C_15 
ROOT
HETATM    1  C   UNL     1     -41.821 -54.134  13.925  1.00  0.00     0.241 C 
HETATM    2  O   UNL     1     -40.739 -54.317  14.477  1.00  0.00    -0.271 OA
HETATM    3  N   UNL     1     -41.975 -53.317  12.822  1.00  0.00    -0.359 N 
HETATM    4  H   UNL     1     -42.873 -53.273  12.357  1.00  0.00     0.162 HD
ENDROOT
BRANCH   1   5
HETATM    5  C   UNL     1     -43.118 -54.801  14.389  1.00  0.00     0.270 C 
BRANCH   5   6
HETATM    6  O   UNL     1     -43.697 -54.131  15.500  1.00  0.00    -0.377 OA
BRANCH   6   7
HETATM    7  C   UNL     1     -44.963 -53.525  15.203  1.00  0.00     0.122 C 
HETATM    8  C   UNL     1     -45.394 -53.861  13.770  1.00  0.00     0.032 C 
HETATM    9  C   UNL     1     -46.624 -53.084  13.324  1.00  0.00     0.003 C 
HETATM   10  C   UNL     1     -46.443 -51.583  13.513  1.00  0.00     0.004 C 
HETATM   11  C   UNL     1     -46.040 -51.209  14.945  1.00  0.00    -0.016 C 
HETATM   12  C   UNL     1     -47.204 -51.386  15.924  1.00  0.00     0.010 C 
HETATM   13  C   UNL     1     -44.803 -52.009  15.380  1.00  0.00     0.036 C 
ENDBRANCH   6   7
ENDBRANCH   5   6
ENDBRANCH   1   5
BRANCH   3  14
HETATM   14  C   UNL     1     -40.830 -52.699  12.181  1.00  0.00     0.127 C 
BRANCH  14  15
HETATM   15  C   UNL     1     -40.329 -51.460  12.929  1.00  0.00     0.061 C 
BRANCH  15  16
HETATM   16  C   UNL     1     -40.436 -50.204  12.127  1.00  0.00    -0.023 A 
HETATM   17  C   UNL     1     -39.389 -49.355  11.700  1.00  0.00     0.115 A 
HETATM   18  N   UNL     1     -39.831 -48.298  11.013  1.00  0.00    -0.310 N 
HETATM   19  N   UNL     1     -41.161 -48.481  10.971  1.00  0.00    -0.308 N 
ATOM     20  HN  UNL     1     -39.287 -47.533  10.616  1.00  0.00     0.186 HD
HETATM   21  C   UNL     1     -42.005 -47.538  10.278  1.00  0.00     0.177 C 
HETATM   22  C   UNL     1     -41.573 -49.603  11.629  1.00  0.00     0.118 A 
ENDBRANCH  15  16
ENDBRANCH  14  15
ENDBRANCH   3  14
TORSDOF 6
ENDMDL
