MODEL 1
REMARK VINA RESULT:      -5.7      0.000      0.000
REMARK  5 active torsions:
REMARK  status: ('A' for Active; 'I' for Inactive)
REMARK    1  A    between atoms: C_2  and  C_4 
REMARK    2  A    between atoms: C_7  and  C_8 
REMARK    3  A    between atoms: C_8  and  C_9 
REMARK    4  A    between atoms: C_9  and  N_10 
REMARK       I    between atoms: N_10  and  C_11 
REMARK    5  A    between atoms: C_11  and  C_13 
ROOT
HETATM    1  C   UNL     1     -41.750 -49.987  12.965  1.00  0.00     0.077 C 
ENDROOT
BRANCH   1   2
HETATM    2  C   UNL     1     -42.697 -51.145  12.907  1.00  0.00     0.018 A 
HETATM    3  N   UNL     1     -44.062 -50.907  12.988  1.00  0.00    -0.356 N 
HETATM    4  C   UNL     1     -44.727 -52.043  12.973  1.00  0.00     0.054 A 
ATOM      5  HN  UNL     1     -44.489 -49.983  13.051  1.00  0.00     0.166 HD
HETATM    6  S   UNL     1     -43.762 -53.454  12.787  1.00  0.00    -0.086 SA
HETATM    7  C   UNL     1     -42.355 -52.477  12.774  1.00  0.00     0.076 A 
BRANCH   4   8
HETATM    8  C   UNL     1     -46.222 -52.154  13.127  1.00  0.00     0.035 C 
HETATM    9  C   UNL     1     -46.684 -51.387  14.368  1.00  0.00     0.016 C 
HETATM   10  C   UNL     1     -46.935 -51.633  11.880  1.00  0.00     0.016 C 
ENDBRANCH   4   8
ENDBRANCH   1   2
BRANCH   1  11
HETATM   11  C   UNL     1     -41.186 -49.621  11.589  1.00  0.00     0.128 C 
BRANCH  11  12
HETATM   12  N   UNL     1     -42.159 -48.950  10.742  1.00  0.00    -0.360 N 
HETATM   13  C   UNL     1     -42.022 -47.624  10.385  1.00  0.00     0.221 C 
HETATM   14  O   UNL     1     -41.028 -46.970  10.705  1.00  0.00    -0.273 OA
HETATM   15  H   UNL     1     -42.972 -49.469  10.441  1.00  0.00     0.162 HD
BRANCH  13  16
HETATM   16  C   UNL     1     -43.219 -47.062   9.562  1.00  0.00     0.078 C 
HETATM   17  C   UNL     1     -44.640 -47.513   9.993  1.00  0.00     0.014 C 
HETATM   18  C   UNL     1     -45.014 -47.565   8.501  1.00  0.00     0.002 C 
HETATM   19  C   UNL     1     -43.516 -47.738   8.194  1.00  0.00     0.014 C 
ENDBRANCH  13  16
ENDBRANCH  11  12
ENDBRANCH   1  11
TORSDOF 5
ENDMDL
MODEL 2
REMARK VINA RESULT:      -5.5      2.642      5.751
REMARK  5 active torsions:
REMARK  status: ('A' for Active; 'I' for Inactive)
REMARK    1  A    between atoms: C_2  and  C_4 
REMARK    2  A    between atoms: C_7  and  C_8 
REMARK    3  A    between atoms: C_8  and  C_9 
REMARK    4  A    between atoms: C_9  and  N_10 
REMARK       I    between atoms: N_10  and  C_11 
REMARK    5  A    between atoms: C_11  and  C_13 
ROOT
HETATM    1  C   UNL     1     -40.681 -49.766  11.652  1.00  0.00     0.077 C 
ENDROOT
BRANCH   1   2
HETATM    2  C   UNL     1     -41.457 -48.544  11.271  1.00  0.00     0.018 A 
HETATM    3  N   UNL     1     -42.288 -48.589  10.161  1.00  0.00    -0.356 N 
HETATM    4  C   UNL     1     -42.842 -47.413   9.954  1.00  0.00     0.054 A 
ATOM      5  HN  UNL     1     -42.447 -49.417   9.586  1.00  0.00     0.166 HD
HETATM    6  S   UNL     1     -42.457 -46.208  11.118  1.00  0.00    -0.086 SA
HETATM    7  C   UNL     1     -41.442 -47.327  11.925  1.00  0.00     0.076 A 
BRANCH   4   8
HETATM    8  C   UNL     1     -43.737 -47.089   8.785  1.00  0.00     0.035 C 
HETATM    9  C   UNL     1     -43.368 -47.958   7.581  1.00  0.00     0.016 C 
HETATM   10  C   UNL     1     -45.206 -47.285   9.158  1.00  0.00     0.016 C 
ENDBRANCH   4   8
ENDBRANCH   1   2
BRANCH   1  11
HETATM   11  C   UNL     1     -41.583 -50.970  11.934  1.00  0.00     0.128 C 
BRANCH  11  12
HETATM   12  N   UNL     1     -42.801 -50.607  12.641  1.00  0.00    -0.360 N 
HETATM   13  C   UNL     1     -43.702 -51.559  13.074  1.00  0.00     0.221 C 
HETATM   14  O   UNL     1     -43.478 -52.764  12.949  1.00  0.00    -0.273 OA
HETATM   15  H   UNL     1     -43.000 -49.627  12.783  1.00  0.00     0.162 HD
BRANCH  13  16
HETATM   16  C   UNL     1     -44.991 -50.966  13.717  1.00  0.00     0.078 C 
HETATM   17  C   UNL     1     -45.307 -51.392  15.175  1.00  0.00     0.014 C 
HETATM   18  C   UNL     1     -46.795 -51.424  14.783  1.00  0.00     0.002 C 
HETATM   19  C   UNL     1     -46.344 -51.624  13.326  1.00  0.00     0.014 C 
ENDBRANCH  13  16
ENDBRANCH  11  12
ENDBRANCH   1  11
TORSDOF 5
ENDMDL
MODEL 3
REMARK VINA RESULT:      -5.5      3.326      6.259
REMARK  5 active torsions:
REMARK  status: ('A' for Active; 'I' for Inactive)
REMARK    1  A    between atoms: C_2  and  C_4 
REMARK    2  A    between atoms: C_7  and  C_8 
REMARK    3  A    between atoms: C_8  and  C_9 
REMARK    4  A    between atoms: C_9  and  N_10 
REMARK       I    between atoms: N_10  and  C_11 
REMARK    5  A    between atoms: C_11  and  C_13 
ROOT
HETATM    1  C   UNL     1     -40.778 -48.893  11.916  1.00  0.00     0.077 C 
ENDROOT
BRANCH   1   2
HETATM    2  C   UNL     1     -41.565 -47.840  11.200  1.00  0.00     0.018 A 
HETATM    3  N   UNL     1     -42.458 -48.220  10.209  1.00  0.00    -0.356 N 
HETATM    4  C   UNL     1     -43.014 -47.160   9.660  1.00  0.00     0.054 A 
ATOM      5  HN  UNL     1     -42.656 -49.185   9.943  1.00  0.00     0.166 HD
HETATM    6  S   UNL     1     -42.553 -45.654  10.350  1.00  0.00    -0.086 SA
HETATM    7  C   UNL     1     -41.503 -46.478  11.423  1.00  0.00     0.076 A 
BRANCH   4   8
HETATM    8  C   UNL     1     -43.972 -47.208   8.498  1.00  0.00     0.035 C 
HETATM    9  C   UNL     1     -43.443 -48.154   7.417  1.00  0.00     0.016 C 
HETATM   10  C   UNL     1     -45.362 -47.644   8.959  1.00  0.00     0.016 C 
ENDBRANCH   4   8
ENDBRANCH   1   2
BRANCH   1  11
HETATM   11  C   UNL     1     -40.475 -50.104  11.031  1.00  0.00     0.128 C 
BRANCH  11  12
HETATM   12  N   UNL     1     -41.100 -51.325  11.513  1.00  0.00    -0.360 N 
HETATM   13  C   UNL     1     -40.449 -52.183  12.376  1.00  0.00     0.221 C 
HETATM   14  O   UNL     1     -39.339 -51.915  12.838  1.00  0.00    -0.273 OA
HETATM   15  H   UNL     1     -42.023 -51.559  11.174  1.00  0.00     0.162 HD
BRANCH  13  16
HETATM   16  C   UNL     1     -41.244 -53.485  12.694  1.00  0.00     0.078 C 
HETATM   17  C   UNL     1     -42.709 -53.312  13.175  1.00  0.00     0.014 C 
HETATM   18  C   UNL     1     -42.472 -54.487  14.141  1.00  0.00     0.002 C 
HETATM   19  C   UNL     1     -40.969 -54.164  14.065  1.00  0.00     0.014 C 
ENDBRANCH  13  16
ENDBRANCH  11  12
ENDBRANCH   1  11
TORSDOF 5
ENDMDL
MODEL 4
REMARK VINA RESULT:      -5.4      1.276      1.671
REMARK  5 active torsions:
REMARK  status: ('A' for Active; 'I' for Inactive)
REMARK    1  A    between atoms: C_2  and  C_4 
REMARK    2  A    between atoms: C_7  and  C_8 
REMARK    3  A    between atoms: C_8  and  C_9 
REMARK    4  A    between atoms: C_9  and  N_10 
REMARK       I    between atoms: N_10  and  C_11 
REMARK    5  A    between atoms: C_11  and  C_13 
ROOT
HETATM    1  C   UNL     1     -41.243 -51.176  12.017  1.00  0.00     0.077 C 
ENDROOT
BRANCH   1   2
HETATM    2  C   UNL     1     -42.379 -51.473  12.945  1.00  0.00     0.018 A 
HETATM    3  N   UNL     1     -43.677 -51.206  12.533  1.00  0.00    -0.356 N 
HETATM    4  C   UNL     1     -44.531 -51.482  13.497  1.00  0.00     0.054 A 
ATOM      5  HN  UNL     1     -43.933 -50.847  11.614  1.00  0.00     0.166 HD
HETATM    6  S   UNL     1     -43.834 -52.144  14.923  1.00  0.00    -0.086 SA
HETATM    7  C   UNL     1     -42.281 -52.007  14.216  1.00  0.00     0.076 A 
BRANCH   4   8
HETATM    8  C   UNL     1     -46.014 -51.232  13.415  1.00  0.00     0.035 C 
HETATM    9  C   UNL     1     -46.623 -52.039  12.266  1.00  0.00     0.016 C 
HETATM   10  C   UNL     1     -46.696 -51.582  14.737  1.00  0.00     0.016 C 
ENDBRANCH   4   8
ENDBRANCH   1   2
BRANCH   1  11
HETATM   11  C   UNL     1     -40.881 -49.688  11.988  1.00  0.00     0.128 C 
BRANCH  11  12
HETATM   12  N   UNL     1     -41.495 -48.981  10.876  1.00  0.00    -0.360 N 
HETATM   13  C   UNL     1     -42.638 -48.224  11.036  1.00  0.00     0.221 C 
HETATM   14  O   UNL     1     -43.146 -48.051  12.145  1.00  0.00    -0.273 OA
HETATM   15  H   UNL     1     -41.084 -49.081   9.958  1.00  0.00     0.162 HD
BRANCH  13  16
HETATM   16  C   UNL     1     -43.197 -47.632   9.709  1.00  0.00     0.078 C 
HETATM   17  C   UNL     1     -43.041 -46.101   9.503  1.00  0.00     0.014 C 
HETATM   18  C   UNL     1     -44.434 -46.104   8.849  1.00  0.00     0.002 C 
HETATM   19  C   UNL     1     -44.731 -47.395   9.632  1.00  0.00     0.014 C 
ENDBRANCH  13  16
ENDBRANCH  11  12
ENDBRANCH   1  11
TORSDOF 5
ENDMDL
MODEL 5
REMARK VINA RESULT:      -5.4      3.589      4.677
REMARK  5 active torsions:
REMARK  status: ('A' for Active; 'I' for Inactive)
REMARK    1  A    between atoms: C_2  and  C_4 
REMARK    2  A    between atoms: C_7  and  C_8 
REMARK    3  A    between atoms: C_8  and  C_9 
REMARK    4  A    between atoms: C_9  and  N_10 
REMARK       I    between atoms: N_10  and  C_11 
REMARK    5  A    between atoms: C_11  and  C_13 
ROOT
HETATM    1  C   UNL     1     -41.725 -54.122  14.627  1.00  0.00     0.077 C 
ENDROOT
BRANCH   1   2
HETATM    2  C   UNL     1     -43.195 -53.958  14.395  1.00  0.00     0.018 A 
HETATM    3  N   UNL     1     -43.704 -52.691  14.149  1.00  0.00    -0.356 N 
HETATM    4  C   UNL     1     -45.014 -52.739  14.023  1.00  0.00     0.054 A 
ATOM      5  HN  UNL     1     -43.143 -51.843  14.076  1.00  0.00     0.166 HD
HETATM    6  S   UNL     1     -45.700 -54.312  14.119  1.00  0.00    -0.086 SA
HETATM    7  C   UNL     1     -44.141 -54.965  14.395  1.00  0.00     0.076 A 
BRANCH   4   8
HETATM    8  C   UNL     1     -45.893 -51.531  13.831  1.00  0.00     0.035 C 
HETATM    9  C   UNL     1     -46.611 -51.609  12.482  1.00  0.00     0.016 C 
HETATM   10  C   UNL     1     -46.904 -51.411  14.971  1.00  0.00     0.016 C 
ENDBRANCH   4   8
ENDBRANCH   1   2
BRANCH   1  11
HETATM   11  C   UNL     1     -40.907 -53.969  13.341  1.00  0.00     0.128 C 
BRANCH  11  12
HETATM   12  N   UNL     1     -40.055 -52.791  13.354  1.00  0.00    -0.360 N 
HETATM   13  C   UNL     1     -40.451 -51.601  12.778  1.00  0.00     0.221 C 
HETATM   14  O   UNL     1     -41.575 -51.460  12.294  1.00  0.00    -0.273 OA
HETATM   15  H   UNL     1     -39.137 -52.867  13.768  1.00  0.00     0.162 HD
BRANCH  13  16
HETATM   16  C   UNL     1     -39.359 -50.490  12.803  1.00  0.00     0.078 C 
HETATM   17  C   UNL     1     -39.111 -49.719  11.479  1.00  0.00     0.014 C 
HETATM   18  C   UNL     1     -37.612 -49.718  11.825  1.00  0.00     0.002 C 
HETATM   19  C   UNL     1     -37.878 -50.952  12.707  1.00  0.00     0.014 C 
ENDBRANCH  13  16
ENDBRANCH  11  12
ENDBRANCH   1  11
TORSDOF 5
ENDMDL
MODEL 6
REMARK VINA RESULT:      -5.2      4.064      6.574
REMARK  5 active torsions:
REMARK  status: ('A' for Active; 'I' for Inactive)
REMARK    1  A    between atoms: C_2  and  C_4 
REMARK    2  A    between atoms: C_7  and  C_8 
REMARK    3  A    between atoms: C_8  and  C_9 
REMARK    4  A    between atoms: C_9  and  N_10 
REMARK       I    between atoms: N_10  and  C_11 
REMARK    5  A    between atoms: C_11  and  C_13 
ROOT
HETATM    1  C   UNL     1     -41.376 -53.753  12.787  1.00  0.00     0.077 C 
ENDROOT
BRANCH   1   2
HETATM    2  C   UNL     1     -40.385 -52.735  13.260  1.00  0.00     0.018 A 
HETATM    3  N   UNL     1     -40.127 -51.623  12.471  1.00  0.00    -0.356 N 
HETATM    4  C   UNL     1     -39.197 -50.874  13.023  1.00  0.00     0.054 A 
ATOM      5  HN  UNL     1     -40.593 -51.417  11.587  1.00  0.00     0.166 HD
HETATM    6  S   UNL     1     -38.631 -51.419  14.553  1.00  0.00    -0.086 SA
HETATM    7  C   UNL     1     -39.671 -52.776  14.442  1.00  0.00     0.076 A 
BRANCH   4   8
HETATM    8  C   UNL     1     -38.619 -49.633  12.392  1.00  0.00     0.035 C 
HETATM    9  C   UNL     1     -37.510 -50.009  11.407  1.00  0.00     0.016 C 
HETATM   10  C   UNL     1     -39.710 -48.826  11.689  1.00  0.00     0.016 C 
ENDBRANCH   4   8
ENDBRANCH   1   2
BRANCH   1  11
HETATM   11  C   UNL     1     -42.327 -54.207  13.897  1.00  0.00     0.128 C 
BRANCH  11  12
HETATM   12  N   UNL     1     -43.505 -53.362  14.010  1.00  0.00    -0.360 N 
HETATM   13  C   UNL     1     -44.620 -53.557  13.221  1.00  0.00     0.221 C 
HETATM   14  O   UNL     1     -44.697 -54.505  12.437  1.00  0.00    -0.273 OA
HETATM   15  H   UNL     1     -43.482 -52.592  14.664  1.00  0.00     0.162 HD
BRANCH  13  16
HETATM   16  C   UNL     1     -45.733 -52.486  13.419  1.00  0.00     0.078 C 
HETATM   17  C   UNL     1     -45.388 -51.275  14.326  1.00  0.00     0.014 C 
HETATM   18  C   UNL     1     -46.830 -51.335  14.860  1.00  0.00     0.002 C 
HETATM   19  C   UNL     1     -46.858 -52.816  14.440  1.00  0.00     0.014 C 
ENDBRANCH  13  16
ENDBRANCH  11  12
ENDBRANCH   1  11
TORSDOF 5
ENDMDL
MODEL 7
REMARK VINA RESULT:      -4.8      3.130      6.134
REMARK  5 active torsions:
REMARK  status: ('A' for Active; 'I' for Inactive)
REMARK    1  A    between atoms: C_2  and  C_4 
REMARK    2  A    between atoms: C_7  and  C_8 
REMARK    3  A    between atoms: C_8  and  C_9 
REMARK    4  A    between atoms: C_9  and  N_10 
REMARK       I    between atoms: N_10  and  C_11 
REMARK    5  A    between atoms: C_11  and  C_13 
ROOT
HETATM    1  C   UNL     1     -41.436 -52.618  12.287  1.00  0.00     0.077 C 
ENDROOT
BRANCH   1   2
HETATM    2  C   UNL     1     -40.881 -51.251  12.033  1.00  0.00     0.018 A 
HETATM    3  N   UNL     1     -41.690 -50.291  11.443  1.00  0.00    -0.356 N 
HETATM    4  C   UNL     1     -41.016 -49.176  11.255  1.00  0.00     0.054 A 
ATOM      5  HN  UNL     1     -42.669 -50.430  11.192  1.00  0.00     0.166 HD
HETATM    6  S   UNL     1     -39.399 -49.191  11.839  1.00  0.00    -0.086 SA
HETATM    7  C   UNL     1     -39.604 -50.817  12.335  1.00  0.00     0.076 A 
BRANCH   4   8
HETATM    8  C   UNL     1     -41.568 -47.957  10.562  1.00  0.00     0.035 C 
HETATM    9  C   UNL     1     -43.050 -47.783  10.899  1.00  0.00     0.016 C 
HETATM   10  C   UNL     1     -40.779 -46.708  10.954  1.00  0.00     0.016 C 
ENDBRANCH   4   8
ENDBRANCH   1   2
BRANCH   1  11
HETATM   11  C   UNL     1     -41.639 -52.903  13.777  1.00  0.00     0.128 C 
BRANCH  11  12
HETATM   12  N   UNL     1     -42.963 -52.529  14.246  1.00  0.00    -0.360 N 
HETATM   13  C   UNL     1     -43.963 -53.463  14.426  1.00  0.00     0.221 C 
HETATM   14  O   UNL     1     -43.755 -54.668  14.270  1.00  0.00    -0.273 OA
HETATM   15  H   UNL     1     -43.157 -51.550  14.409  1.00  0.00     0.162 HD
BRANCH  13  16
HETATM   16  C   UNL     1     -45.337 -52.852  14.833  1.00  0.00     0.078 C 
HETATM   17  C   UNL     1     -46.391 -52.684  13.706  1.00  0.00     0.014 C 
HETATM   18  C   UNL     1     -46.804 -51.357  14.368  1.00  0.00     0.002 C 
HETATM   19  C   UNL     1     -45.402 -51.309  15.003  1.00  0.00     0.014 C 
ENDBRANCH  13  16
ENDBRANCH  11  12
ENDBRANCH   1  11
TORSDOF 5
ENDMDL
MODEL 8
REMARK VINA RESULT:      -4.5      4.299      6.357
REMARK  5 active torsions:
REMARK  status: ('A' for Active; 'I' for Inactive)
REMARK    1  A    between atoms: C_2  and  C_4 
REMARK    2  A    between atoms: C_7  and  C_8 
REMARK    3  A    between atoms: C_8  and  C_9 
REMARK    4  A    between atoms: C_9  and  N_10 
REMARK       I    between atoms: N_10  and  C_11 
REMARK    5  A    between atoms: C_11  and  C_13 
ROOT
HETATM    1  C   UNL     1     -41.043 -46.076  10.613  1.00  0.00     0.077 C 
ENDROOT
BRANCH   1   2
HETATM    2  C   UNL     1     -40.717 -47.460  11.081  1.00  0.00     0.018 A 
HETATM    3  N   UNL     1     -39.416 -47.756  11.461  1.00  0.00    -0.356 N 
HETATM    4  C   UNL     1     -39.312 -49.027  11.791  1.00  0.00     0.054 A 
ATOM      5  HN  UNL     1     -38.648 -47.085  11.482  1.00  0.00     0.166 HD
HETATM    6  S   UNL     1     -40.780 -49.919  11.735  1.00  0.00    -0.086 SA
HETATM    7  C   UNL     1     -41.599 -48.518  11.186  1.00  0.00     0.076 A 
BRANCH   4   8
HETATM    8  C   UNL     1     -38.020 -49.702  12.174  1.00  0.00     0.035 C 
HETATM    9  C   UNL     1     -38.306 -50.973  12.976  1.00  0.00     0.016 C 
HETATM   10  C   UNL     1     -37.191 -50.028  10.932  1.00  0.00     0.016 C 
ENDBRANCH   4   8
ENDBRANCH   1   2
BRANCH   1  11
HETATM   11  C   UNL     1     -42.502 -45.695  10.876  1.00  0.00     0.128 C 
BRANCH  11  12
HETATM   12  N   UNL     1     -42.638 -44.407  11.535  1.00  0.00    -0.360 N 
HETATM   13  C   UNL     1     -43.222 -43.326  10.906  1.00  0.00     0.221 C 
HETATM   14  O   UNL     1     -43.724 -43.425   9.786  1.00  0.00    -0.273 OA
HETATM   15  H   UNL     1     -42.261 -44.301  12.466  1.00  0.00     0.162 HD
BRANCH  13  16
HETATM   16  C   UNL     1     -43.180 -42.009  11.738  1.00  0.00     0.078 C 
HETATM   17  C   UNL     1     -44.346 -41.008  11.525  1.00  0.00     0.014 C 
HETATM   18  C   UNL     1     -43.318 -39.870  11.653  1.00  0.00     0.002 C 
HETATM   19  C   UNL     1     -42.238 -40.882  11.231  1.00  0.00     0.014 C 
ENDBRANCH  13  16
ENDBRANCH  11  12
ENDBRANCH   1  11
TORSDOF 5
ENDMDL
MODEL 9
REMARK VINA RESULT:      -4.5      2.133      3.125
REMARK  5 active torsions:
REMARK  status: ('A' for Active; 'I' for Inactive)
REMARK    1  A    between atoms: C_2  and  C_4 
REMARK    2  A    between atoms: C_7  and  C_8 
REMARK    3  A    between atoms: C_8  and  C_9 
REMARK    4  A    between atoms: C_9  and  N_10 
REMARK       I    between atoms: N_10  and  C_11 
REMARK    5  A    between atoms: C_11  and  C_13 
ROOT
HETATM    1  C   UNL     1     -40.870 -50.616  11.786  1.00  0.00     0.077 C 
ENDROOT
BRANCH   1   2
HETATM    2  C   UNL     1     -41.572 -51.814  12.346  1.00  0.00     0.018 A 
HETATM    3  N   UNL     1     -42.948 -51.772  12.521  1.00  0.00    -0.356 N 
HETATM    4  C   UNL     1     -43.375 -52.890  13.069  1.00  0.00     0.054 A 
ATOM      5  HN  UNL     1     -43.543 -50.986  12.261  1.00  0.00     0.166 HD
HETATM    6  S   UNL     1     -42.165 -54.082  13.339  1.00  0.00    -0.086 SA
HETATM    7  C   UNL     1     -40.983 -53.006  12.722  1.00  0.00     0.076 A 
BRANCH   4   8
HETATM    8  C   UNL     1     -44.805 -53.147  13.471  1.00  0.00     0.035 C 
HETATM    9  C   UNL     1     -45.760 -52.479  12.480  1.00  0.00     0.016 C 
HETATM   10  C   UNL     1     -45.082 -54.647  13.555  1.00  0.00     0.016 C 
ENDBRANCH   4   8
ENDBRANCH   1   2
BRANCH   1  11
HETATM   11  C   UNL     1     -41.775 -49.383  11.720  1.00  0.00     0.128 C 
BRANCH  11  12
HETATM   12  N   UNL     1     -41.029 -48.136  11.746  1.00  0.00    -0.360 N 
HETATM   13  C   UNL     1     -41.217 -47.156  10.792  1.00  0.00     0.221 C 
HETATM   14  O   UNL     1     -42.080 -47.261   9.920  1.00  0.00    -0.273 OA
HETATM   15  H   UNL     1     -40.331 -48.007  12.466  1.00  0.00     0.162 HD
BRANCH  13  16
HETATM   16  C   UNL     1     -40.251 -45.941  10.932  1.00  0.00     0.078 C 
HETATM   17  C   UNL     1     -39.720 -45.628  12.356  1.00  0.00     0.014 C 
HETATM   18  C   UNL     1     -39.844 -44.133  12.012  1.00  0.00     0.002 C 
HETATM   19  C   UNL     1     -40.893 -44.526  10.957  1.00  0.00     0.014 C 
ENDBRANCH  13  16
ENDBRANCH  11  12
ENDBRANCH   1  11
TORSDOF 5
ENDMDL
