MODEL 1
REMARK VINA RESULT:      -5.6      0.000      0.000
REMARK  5 active torsions:
REMARK  status: ('A' for Active; 'I' for Inactive)
REMARK    1  A    between atoms: C_2  and  O_3 
REMARK    2  A    between atoms: O_3  and  C_4 
REMARK    3  A    between atoms: C_9  and  N_10 
REMARK    4  A    between atoms: N_10  and  C_11 
REMARK    5  A    between atoms: C_11  and  C_13 
ROOT
HETATM    1  C   UNL     1     -43.815 -53.324  12.534  1.00  0.00     0.159 A 
HETATM    2  C   UNL     1     -43.336 -54.173  13.519  1.00  0.00     0.144 A 
HETATM    3  N   UNL     1     -42.032 -54.209  13.871  1.00  0.00    -0.368 N 
ATOM      4  HN  UNL     1     -41.675 -54.815  14.609  1.00  0.00     0.164 HD
HETATM    5  C   UNL     1     -41.239 -53.372  13.157  1.00  0.00     0.136 A 
HETATM    6  C   UNL     1     -41.692 -52.528  12.135  1.00  0.00     0.119 A 
HETATM    7  N   UNL     1     -43.011 -52.487  11.833  1.00  0.00    -0.321 N 
ATOM      8  HN  UNL     1     -43.380 -51.860  11.118  1.00  0.00     0.169 HD
ENDROOT
BRANCH   6   9
HETATM    9  N   UNL     1     -40.800 -51.708  11.470  1.00  0.00    -0.368 N 
HETATM   10  H   UNL     1     -40.463 -51.957  10.548  1.00  0.00     0.161 HD
BRANCH   9  11
HETATM   11  C   UNL     1     -40.271 -50.489  12.069  1.00  0.00     0.108 C 
HETATM   12  C   UNL     1     -38.768 -50.697  12.279  1.00  0.00     0.035 C 
BRANCH  11  13
HETATM   13  C   UNL     1     -40.519 -49.252  11.174  1.00  0.00     0.143 C 
HETATM   14  C   UNL     1     -39.880 -47.956  11.647  1.00  0.00     0.036 C 
HETATM   15  C   UNL     1     -40.752 -46.873  11.032  1.00  0.00     0.029 C 
HETATM   16  C   UNL     1     -41.935 -47.621  10.441  1.00  0.00     0.168 C 
HETATM   17  O   UNL     1     -41.916 -48.927  11.033  1.00  0.00    -0.384 OA
ENDBRANCH  11  13
ENDBRANCH   9  11
ENDBRANCH   6   9
BRANCH   1  18
HETATM   18  O   UNL     1     -45.159 -53.416  12.235  1.00  0.00    -0.335 OA
BRANCH  18  19
HETATM   19  C   UNL     1     -46.000 -53.029  13.318  1.00  0.00     0.173 C 
HETATM   20  C   UNL     1     -46.376 -51.571  13.107  1.00  0.00     0.034 C 
ENDBRANCH  18  19
ENDBRANCH   1  18
TORSDOF 5
ENDMDL
MODEL 2
REMARK VINA RESULT:      -5.5      3.484      5.714
REMARK  5 active torsions:
REMARK  status: ('A' for Active; 'I' for Inactive)
REMARK    1  A    between atoms: C_2  and  O_3 
REMARK    2  A    between atoms: O_3  and  C_4 
REMARK    3  A    between atoms: C_9  and  N_10 
REMARK    4  A    between atoms: N_10  and  C_11 
REMARK    5  A    between atoms: C_11  and  C_13 
ROOT
HETATM    1  C   UNL     1     -43.464 -47.134   9.185  1.00  0.00     0.159 A 
HETATM    2  C   UNL     1     -43.088 -45.874   9.625  1.00  0.00     0.144 A 
HETATM    3  N   UNL     1     -42.002 -45.675  10.404  1.00  0.00    -0.368 N 
ATOM      4  HN  UNL     1     -41.706 -44.751  10.715  1.00  0.00     0.164 HD
HETATM    5  C   UNL     1     -41.339 -46.811  10.737  1.00  0.00     0.136 A 
HETATM    6  C   UNL     1     -41.716 -48.098  10.332  1.00  0.00     0.119 A 
HETATM    7  N   UNL     1     -42.788 -48.260   9.520  1.00  0.00    -0.321 N 
ATOM      8  HN  UNL     1     -43.070 -49.179   9.179  1.00  0.00     0.169 HD
ENDROOT
BRANCH   6   9
HETATM    9  N   UNL     1     -40.969 -49.192  10.724  1.00  0.00    -0.368 N 
HETATM   10  H   UNL     1     -40.452 -49.734  10.042  1.00  0.00     0.161 HD
BRANCH   9  11
HETATM   11  C   UNL     1     -40.924 -49.645  12.109  1.00  0.00     0.108 C 
HETATM   12  C   UNL     1     -41.723 -50.948  12.191  1.00  0.00     0.035 C 
BRANCH  11  13
HETATM   13  C   UNL     1     -39.473 -49.876  12.593  1.00  0.00     0.143 C 
HETATM   14  C   UNL     1     -38.400 -49.820  11.516  1.00  0.00     0.036 C 
HETATM   15  C   UNL     1     -37.272 -50.667  12.080  1.00  0.00     0.029 C 
HETATM   16  C   UNL     1     -37.860 -51.314  13.323  1.00  0.00     0.168 C 
HETATM   17  O   UNL     1     -39.282 -51.161  13.216  1.00  0.00    -0.384 OA
ENDBRANCH  11  13
ENDBRANCH   9  11
ENDBRANCH   6   9
BRANCH   1  18
HETATM   18  O   UNL     1     -44.619 -47.209   8.434  1.00  0.00    -0.335 OA
BRANCH  18  19
HETATM   19  C   UNL     1     -45.803 -47.188   9.227  1.00  0.00     0.173 C 
HETATM   20  C   UNL     1     -46.635 -48.400   8.839  1.00  0.00     0.034 C 
ENDBRANCH  18  19
ENDBRANCH   1  18
TORSDOF 5
ENDMDL
MODEL 3
REMARK VINA RESULT:      -5.4      1.768      2.437
REMARK  5 active torsions:
REMARK  status: ('A' for Active; 'I' for Inactive)
REMARK    1  A    between atoms: C_2  and  O_3 
REMARK    2  A    between atoms: O_3  and  C_4 
REMARK    3  A    between atoms: C_9  and  N_10 
REMARK    4  A    between atoms: N_10  and  C_11 
REMARK    5  A    between atoms: C_11  and  C_13 
ROOT
HETATM    1  C   UNL     1     -44.263 -53.506  12.760  1.00  0.00     0.159 A 
HETATM    2  C   UNL     1     -43.780 -54.305  13.785  1.00  0.00     0.144 A 
HETATM    3  N   UNL     1     -42.467 -54.355  14.103  1.00  0.00    -0.368 N 
ATOM      4  HN  UNL     1     -42.105 -54.923  14.869  1.00  0.00     0.164 HD
HETATM    5  C   UNL     1     -41.673 -53.586  13.317  1.00  0.00     0.136 A 
HETATM    6  C   UNL     1     -42.132 -52.796  12.256  1.00  0.00     0.119 A 
HETATM    7  N   UNL     1     -43.458 -52.737  11.987  1.00  0.00    -0.321 N 
ATOM      8  HN  UNL     1     -43.830 -52.146  11.244  1.00  0.00     0.169 HD
ENDROOT
BRANCH   6   9
HETATM    9  N   UNL     1     -41.239 -52.044  11.516  1.00  0.00    -0.368 N 
HETATM   10  H   UNL     1     -40.684 -52.476  10.787  1.00  0.00     0.161 HD
BRANCH   9  11
HETATM   11  C   UNL     1     -41.017 -50.627  11.774  1.00  0.00     0.108 C 
HETATM   12  C   UNL     1     -42.078 -50.174  12.781  1.00  0.00     0.035 C 
BRANCH  11  13
HETATM   13  C   UNL     1     -39.600 -50.358  12.333  1.00  0.00     0.143 C 
HETATM   14  C   UNL     1     -38.713 -49.461  11.481  1.00  0.00     0.036 C 
HETATM   15  C   UNL     1     -37.302 -49.871  11.868  1.00  0.00     0.029 C 
HETATM   16  C   UNL     1     -37.482 -51.103  12.739  1.00  0.00     0.168 C 
HETATM   17  O   UNL     1     -38.823 -51.558  12.510  1.00  0.00    -0.384 OA
ENDBRANCH  11  13
ENDBRANCH   9  11
ENDBRANCH   6   9
BRANCH   1  18
HETATM   18  O   UNL     1     -45.618 -53.579  12.504  1.00  0.00    -0.335 OA
BRANCH  18  19
HETATM   19  C   UNL     1     -46.222 -52.301  12.326  1.00  0.00     0.173 C 
HETATM   20  C   UNL     1     -46.490 -51.725  13.707  1.00  0.00     0.034 C 
ENDBRANCH  18  19
ENDBRANCH   1  18
TORSDOF 5
ENDMDL
MODEL 4
REMARK VINA RESULT:      -5.4      2.341      3.006
REMARK  5 active torsions:
REMARK  status: ('A' for Active; 'I' for Inactive)
REMARK    1  A    between atoms: C_2  and  O_3 
REMARK    2  A    between atoms: O_3  and  C_4 
REMARK    3  A    between atoms: C_9  and  N_10 
REMARK    4  A    between atoms: N_10  and  C_11 
REMARK    5  A    between atoms: C_11  and  C_13 
ROOT
HETATM    1  C   UNL     1     -44.530 -53.670  12.814  1.00  0.00     0.159 A 
HETATM    2  C   UNL     1     -44.783 -54.487  13.904  1.00  0.00     0.144 A 
HETATM    3  N   UNL     1     -43.796 -54.954  14.701  1.00  0.00    -0.368 N 
ATOM      4  HN  UNL     1     -43.975 -55.538  15.518  1.00  0.00     0.164 HD
HETATM    5  C   UNL     1     -42.549 -54.581  14.322  1.00  0.00     0.136 A 
HETATM    6  C   UNL     1     -42.264 -53.783  13.206  1.00  0.00     0.119 A 
HETATM    7  N   UNL     1     -43.277 -53.298  12.450  1.00  0.00    -0.321 N 
ATOM      8  HN  UNL     1     -43.108 -52.688  11.651  1.00  0.00     0.169 HD
ENDROOT
BRANCH   6   9
HETATM    9  N   UNL     1     -40.955 -53.456  12.907  1.00  0.00    -0.368 N 
HETATM   10  H   UNL     1     -40.609 -53.536  11.958  1.00  0.00     0.161 HD
BRANCH   9  11
HETATM   11  C   UNL     1     -40.008 -53.032  13.930  1.00  0.00     0.108 C 
HETATM   12  C   UNL     1     -39.009 -54.176  14.132  1.00  0.00     0.035 C 
BRANCH  11  13
HETATM   13  C   UNL     1     -39.264 -51.738  13.526  1.00  0.00     0.143 C 
HETATM   14  C   UNL     1     -39.892 -50.940  12.393  1.00  0.00     0.036 C 
HETATM   15  C   UNL     1     -38.725 -50.170  11.798  1.00  0.00     0.029 C 
HETATM   16  C   UNL     1     -37.495 -50.741  12.484  1.00  0.00     0.168 C 
HETATM   17  O   UNL     1     -37.913 -51.975  13.085  1.00  0.00    -0.384 OA
ENDBRANCH  11  13
ENDBRANCH   9  11
ENDBRANCH   6   9
BRANCH   1  18
HETATM   18  O   UNL     1     -45.618 -53.297  12.052  1.00  0.00    -0.335 OA
BRANCH  18  19
HETATM   19  C   UNL     1     -46.252 -52.112  12.525  1.00  0.00     0.173 C 
HETATM   20  C   UNL     1     -47.201 -51.636  11.437  1.00  0.00     0.034 C 
ENDBRANCH  18  19
ENDBRANCH   1  18
TORSDOF 5
ENDMDL
MODEL 5
REMARK VINA RESULT:      -5.2      3.367      6.663
REMARK  5 active torsions:
REMARK  status: ('A' for Active; 'I' for Inactive)
REMARK    1  A    between atoms: C_2  and  O_3 
REMARK    2  A    between atoms: O_3  and  C_4 
REMARK    3  A    between atoms: C_9  and  N_10 
REMARK    4  A    between atoms: N_10  and  C_11 
REMARK    5  A    between atoms: C_11  and  C_13 
ROOT
HETATM    1  C   UNL     1     -41.406 -45.858  10.259  1.00  0.00     0.159 A 
HETATM    2  C   UNL     1     -42.772 -45.622  10.259  1.00  0.00     0.144 A 
HETATM    3  N   UNL     1     -43.673 -46.603  10.488  1.00  0.00    -0.368 N 
ATOM      4  HN  UNL     1     -44.679 -46.435  10.511  1.00  0.00     0.164 HD
HETATM    5  C   UNL     1     -43.127 -47.828  10.683  1.00  0.00     0.136 A 
HETATM    6  C   UNL     1     -41.753 -48.099  10.656  1.00  0.00     0.119 A 
HETATM    7  N   UNL     1     -40.873 -47.088  10.463  1.00  0.00    -0.321 N 
ATOM      8  HN  UNL     1     -39.865 -47.243  10.470  1.00  0.00     0.169 HD
ENDROOT
BRANCH   6   9
HETATM    9  N   UNL     1     -41.297 -49.386  10.871  1.00  0.00    -0.368 N 
HETATM   10  H   UNL     1     -41.093 -49.996  10.089  1.00  0.00     0.161 HD
BRANCH   9  11
HETATM   11  C   UNL     1     -41.136 -49.938  12.210  1.00  0.00     0.108 C 
HETATM   12  C   UNL     1     -41.740 -51.345  12.200  1.00  0.00     0.035 C 
BRANCH  11  13
HETATM   13  C   UNL     1     -39.650 -49.998  12.633  1.00  0.00     0.143 C 
HETATM   14  C   UNL     1     -38.636 -49.805  11.516  1.00  0.00     0.036 C 
HETATM   15  C   UNL     1     -37.392 -50.516  12.024  1.00  0.00     0.029 C 
HETATM   16  C   UNL     1     -37.848 -51.238  13.281  1.00  0.00     0.168 C 
HETATM   17  O   UNL     1     -39.281 -51.255  13.232  1.00  0.00    -0.384 OA
ENDBRANCH  11  13
ENDBRANCH   9  11
ENDBRANCH   6   9
BRANCH   1  18
HETATM   18  O   UNL     1     -40.591 -44.783   9.967  1.00  0.00    -0.335 OA
BRANCH  18  19
HETATM   19  C   UNL     1     -39.806 -44.357  11.078  1.00  0.00     0.173 C 
HETATM   20  C   UNL     1     -40.432 -43.082  11.618  1.00  0.00     0.034 C 
ENDBRANCH  18  19
ENDBRANCH   1  18
TORSDOF 5
ENDMDL
MODEL 6
REMARK VINA RESULT:      -5.1      1.655      5.819
REMARK  5 active torsions:
REMARK  status: ('A' for Active; 'I' for Inactive)
REMARK    1  A    between atoms: C_2  and  O_3 
REMARK    2  A    between atoms: O_3  and  C_4 
REMARK    3  A    between atoms: C_9  and  N_10 
REMARK    4  A    between atoms: N_10  and  C_11 
REMARK    5  A    between atoms: C_11  and  C_13 
ROOT
HETATM    1  C   UNL     1     -42.176 -48.791  11.368  1.00  0.00     0.159 A 
HETATM    2  C   UNL     1     -40.948 -49.158  10.840  1.00  0.00     0.144 A 
HETATM    3  N   UNL     1     -40.385 -50.360  11.092  1.00  0.00    -0.368 N 
ATOM      4  HN  UNL     1     -39.492 -50.648  10.691  1.00  0.00     0.164 HD
HETATM    5  C   UNL     1     -41.106 -51.151  11.925  1.00  0.00     0.136 A 
HETATM    6  C   UNL     1     -42.332 -50.791  12.497  1.00  0.00     0.119 A 
HETATM    7  N   UNL     1     -42.890 -49.594  12.194  1.00  0.00    -0.321 N 
ATOM      8  HN  UNL     1     -43.797 -49.314  12.566  1.00  0.00     0.169 HD
ENDROOT
BRANCH   6   9
HETATM    9  N   UNL     1     -42.991 -51.673  13.333  1.00  0.00    -0.368 N 
HETATM   10  H   UNL     1     -42.888 -51.604  14.338  1.00  0.00     0.161 HD
BRANCH   9  11
HETATM   11  C   UNL     1     -43.815 -52.760  12.819  1.00  0.00     0.108 C 
HETATM   12  C   UNL     1     -43.232 -54.070  13.356  1.00  0.00     0.035 C 
BRANCH  11  13
HETATM   13  C   UNL     1     -45.293 -52.616  13.251  1.00  0.00     0.143 C 
HETATM   14  C   UNL     1     -45.660 -51.302  13.925  1.00  0.00     0.036 C 
HETATM   15  C   UNL     1     -46.870 -51.653  14.774  1.00  0.00     0.029 C 
HETATM   16  C   UNL     1     -46.973 -53.167  14.694  1.00  0.00     0.168 C 
HETATM   17  O   UNL     1     -45.709 -53.624  14.193  1.00  0.00    -0.384 OA
ENDBRANCH  11  13
ENDBRANCH   9  11
ENDBRANCH   6   9
BRANCH   1  18
HETATM   18  O   UNL     1     -42.623 -47.518  11.073  1.00  0.00    -0.335 OA
BRANCH  18  19
HETATM   19  C   UNL     1     -43.906 -47.506  10.454  1.00  0.00     0.173 C 
HETATM   20  C   UNL     1     -43.688 -47.471   8.950  1.00  0.00     0.034 C 
ENDBRANCH  18  19
ENDBRANCH   1  18
TORSDOF 5
ENDMDL
MODEL 7
REMARK VINA RESULT:      -5.1      1.947      5.633
REMARK  5 active torsions:
REMARK  status: ('A' for Active; 'I' for Inactive)
REMARK    1  A    between atoms: C_2  and  O_3 
REMARK    2  A    between atoms: O_3  and  C_4 
REMARK    3  A    between atoms: C_9  and  N_10 
REMARK    4  A    between atoms: N_10  and  C_11 
REMARK    5  A    between atoms: C_11  and  C_13 
ROOT
HETATM    1  C   UNL     1     -41.113 -52.153  12.339  1.00  0.00     0.159 A 
HETATM    2  C   UNL     1     -40.673 -53.272  13.029  1.00  0.00     0.144 A 
HETATM    3  N   UNL     1     -41.519 -54.235  13.456  1.00  0.00    -0.368 N 
ATOM      4  HN  UNL     1     -41.203 -55.072  13.945  1.00  0.00     0.164 HD
HETATM    5  C   UNL     1     -42.824 -53.994  13.178  1.00  0.00     0.136 A 
HETATM    6  C   UNL     1     -43.298 -52.857  12.512  1.00  0.00     0.119 A 
HETATM    7  N   UNL     1     -42.421 -51.928  12.062  1.00  0.00    -0.321 N 
ATOM      8  HN  UNL     1     -42.728 -51.105  11.544  1.00  0.00     0.169 HD
ENDROOT
BRANCH   6   9
HETATM    9  N   UNL     1     -44.651 -52.708  12.275  1.00  0.00    -0.368 N 
HETATM   10  H   UNL     1     -45.141 -53.352  11.666  1.00  0.00     0.161 HD
BRANCH   9  11
HETATM   11  C   UNL     1     -45.421 -51.608  12.841  1.00  0.00     0.108 C 
HETATM   12  C   UNL     1     -46.813 -51.648  12.204  1.00  0.00     0.035 C 
BRANCH  11  13
HETATM   13  C   UNL     1     -45.535 -51.716  14.380  1.00  0.00     0.143 C 
HETATM   14  C   UNL     1     -46.936 -51.562  14.952  1.00  0.00     0.036 C 
HETATM   15  C   UNL     1     -46.699 -51.075  16.372  1.00  0.00     0.029 C 
HETATM   16  C   UNL     1     -45.209 -50.782  16.436  1.00  0.00     0.168 C 
HETATM   17  O   UNL     1     -44.758 -50.722  15.076  1.00  0.00    -0.384 OA
ENDBRANCH  11  13
ENDBRANCH   9  11
ENDBRANCH   6   9
BRANCH   1  18
HETATM   18  O   UNL     1     -40.156 -51.218  11.998  1.00  0.00    -0.335 OA
BRANCH  18  19
HETATM   19  C   UNL     1     -40.713 -49.981  11.562  1.00  0.00     0.173 C 
HETATM   20  C   UNL     1     -39.667 -48.902  11.794  1.00  0.00     0.034 C 
ENDBRANCH  18  19
ENDBRANCH   1  18
TORSDOF 5
ENDMDL
MODEL 8
REMARK VINA RESULT:      -5.0      2.647      5.915
REMARK  5 active torsions:
REMARK  status: ('A' for Active; 'I' for Inactive)
REMARK    1  A    between atoms: C_2  and  O_3 
REMARK    2  A    between atoms: O_3  and  C_4 
REMARK    3  A    between atoms: C_9  and  N_10 
REMARK    4  A    between atoms: N_10  and  C_11 
REMARK    5  A    between atoms: C_11  and  C_13 
ROOT
HETATM    1  C   UNL     1     -42.824 -47.193  10.171  1.00  0.00     0.159 A 
HETATM    2  C   UNL     1     -41.644 -46.475  10.291  1.00  0.00     0.144 A 
HETATM    3  N   UNL     1     -40.538 -46.995  10.869  1.00  0.00    -0.368 N 
ATOM      4  HN  UNL     1     -39.660 -46.482  10.942  1.00  0.00     0.164 HD
HETATM    5  C   UNL     1     -40.696 -48.256  11.342  1.00  0.00     0.136 A 
HETATM    6  C   UNL     1     -41.886 -48.991  11.262  1.00  0.00     0.119 A 
HETATM    7  N   UNL     1     -42.966 -48.456  10.642  1.00  0.00    -0.321 N 
ATOM      8  HN  UNL     1     -43.836 -48.976  10.537  1.00  0.00     0.169 HD
ENDROOT
BRANCH   6   9
HETATM    9  N   UNL     1     -41.942 -50.273  11.773  1.00  0.00    -0.368 N 
HETATM   10  H   UNL     1     -41.900 -51.075  11.156  1.00  0.00     0.161 HD
BRANCH   9  11
HETATM   11  C   UNL     1     -42.107 -50.534  13.198  1.00  0.00     0.108 C 
HETATM   12  C   UNL     1     -43.602 -50.422  13.513  1.00  0.00     0.035 C 
BRANCH  11  13
HETATM   13  C   UNL     1     -41.580 -51.933  13.593  1.00  0.00     0.143 C 
HETATM   14  C   UNL     1     -40.867 -52.705  12.494  1.00  0.00     0.036 C 
HETATM   15  C   UNL     1     -41.038 -54.160  12.900  1.00  0.00     0.029 C 
HETATM   16  C   UNL     1     -42.009 -54.123  14.068  1.00  0.00     0.168 C 
HETATM   17  O   UNL     1     -42.622 -52.826  14.034  1.00  0.00    -0.384 OA
ENDBRANCH  11  13
ENDBRANCH   9  11
ENDBRANCH   6   9
BRANCH   1  18
HETATM   18  O   UNL     1     -43.896 -46.534   9.604  1.00  0.00    -0.335 OA
BRANCH  18  19
HETATM   19  C   UNL     1     -44.719 -47.386   8.811  1.00  0.00     0.173 C 
HETATM   20  C   UNL     1     -46.167 -47.059   9.142  1.00  0.00     0.034 C 
ENDBRANCH  18  19
ENDBRANCH   1  18
TORSDOF 5
ENDMDL
MODEL 9
REMARK VINA RESULT:      -4.9      2.272      5.648
REMARK  5 active torsions:
REMARK  status: ('A' for Active; 'I' for Inactive)
REMARK    1  A    between atoms: C_2  and  O_3 
REMARK    2  A    between atoms: O_3  and  C_4 
REMARK    3  A    between atoms: C_9  and  N_10 
REMARK    4  A    between atoms: N_10  and  C_11 
REMARK    5  A    between atoms: C_11  and  C_13 
ROOT
HETATM    1  C   UNL     1     -41.548 -48.012  10.876  1.00  0.00     0.159 A 
HETATM    2  C   UNL     1     -40.280 -47.518  11.143  1.00  0.00     0.144 A 
HETATM    3  N   UNL     1     -39.264 -48.315  11.544  1.00  0.00    -0.368 N 
ATOM      4  HN  UNL     1     -38.323 -47.964  11.721  1.00  0.00     0.164 HD
HETATM    5  C   UNL     1     -39.604 -49.620  11.691  1.00  0.00     0.136 A 
HETATM    6  C   UNL     1     -40.884 -50.138  11.460  1.00  0.00     0.119 A 
HETATM    7  N   UNL     1     -41.871 -49.321  11.021  1.00  0.00    -0.321 N 
ATOM      8  HN  UNL     1     -42.805 -49.671  10.811  1.00  0.00     0.169 HD
ENDROOT
BRANCH   6   9
HETATM    9  N   UNL     1     -41.126 -51.487  11.637  1.00  0.00    -0.368 N 
HETATM   10  H   UNL     1     -40.801 -52.161  10.955  1.00  0.00     0.161 HD
BRANCH   9  11
HETATM   11  C   UNL     1     -41.887 -51.997  12.770  1.00  0.00     0.108 C 
HETATM   12  C   UNL     1     -43.028 -52.851  12.209  1.00  0.00     0.035 C 
BRANCH  11  13
HETATM   13  C   UNL     1     -41.008 -52.840  13.724  1.00  0.00     0.143 C 
HETATM   14  C   UNL     1     -40.124 -52.051  14.677  1.00  0.00     0.036 C 
HETATM   15  C   UNL     1     -38.983 -53.005  14.991  1.00  0.00     0.029 C 
HETATM   16  C   UNL     1     -39.182 -54.171  14.037  1.00  0.00     0.168 C 
HETATM   17  O   UNL     1     -40.092 -53.709  13.029  1.00  0.00    -0.384 OA
ENDBRANCH  11  13
ENDBRANCH   9  11
ENDBRANCH   6   9
BRANCH   1  18
HETATM   18  O   UNL     1     -42.510 -47.090  10.518  1.00  0.00    -0.335 OA
BRANCH  18  19
HETATM   19  C   UNL     1     -43.205 -47.441   9.325  1.00  0.00     0.173 C 
HETATM   20  C   UNL     1     -44.693 -47.383   9.628  1.00  0.00     0.034 C 
ENDBRANCH  18  19
ENDBRANCH   1  18
TORSDOF 5
ENDMDL
