MODEL 1
REMARK VINA RESULT:      -5.8      0.000      0.000
REMARK  2 active torsions:
REMARK  status: ('A' for Active; 'I' for Inactive)
REMARK    1  A    between atoms: C_6  and  C_7 
REMARK       I    between atoms: C_7  and  N_9 
REMARK    2  A    between atoms: N_9  and  C_10 
ROOT
HETATM    1  C   UNL     1     -42.050 -45.622  10.075  1.00  0.00     0.252 C 
HETATM    2  O   UNL     1     -42.906 -44.750  10.185  1.00  0.00    -0.270 OA
HETATM    3  N   UNL     1     -42.294 -46.894   9.595  1.00  0.00    -0.310 N 
HETATM    4  H   UNL     1     -41.484 -47.426   9.287  1.00  0.00     0.170 HD
ENDROOT
BRANCH   3   5
HETATM    5  C   UNL     1     -43.518 -47.320   9.086  1.00  0.00     0.123 A 
HETATM    6  C   UNL     1     -43.658 -47.883   7.817  1.00  0.00     0.136 A 
HETATM    7  N   UNL     1     -44.848 -48.349   7.350  1.00  0.00    -0.371 N 
HETATM    8  C   UNL     1     -45.883 -48.249   8.204  1.00  0.00     0.104 A 
ATOM      9  HN  UNL     1     -44.949 -48.747   6.416  1.00  0.00     0.164 HD
HETATM   10  C   UNL     1     -45.746 -47.666   9.456  1.00  0.00     0.106 A 
HETATM   11  N   UNL     1     -44.574 -47.162   9.910  1.00  0.00    -0.350 N 
ATOM     12  HN  UNL     1     -44.495 -46.695  10.813  1.00  0.00     0.166 HD
ENDBRANCH   3   5
BRANCH   1  13
HETATM   13  C   UNL     1     -40.579 -45.409  10.486  1.00  0.00     0.217 C 
HETATM   14  C   UNL     1     -40.242 -45.567  11.966  1.00  0.00     0.022 C 
HETATM   15  C   UNL     1     -40.946 -46.656  12.756  1.00  0.00     0.013 C 
HETATM   16  C   UNL     1     -40.491 -44.176  12.514  1.00  0.00     0.033 C 
HETATM   17  C   UNL     1     -40.172 -43.269  11.343  1.00  0.00     0.169 C 
HETATM   18  O   UNL     1     -40.154 -44.071  10.153  1.00  0.00    -0.376 OA
ENDBRANCH   1  13
TORSDOF 2
ENDMDL
MODEL 2
REMARK VINA RESULT:      -5.3      6.575      8.600
REMARK  2 active torsions:
REMARK  status: ('A' for Active; 'I' for Inactive)
REMARK    1  A    between atoms: C_6  and  C_7 
REMARK       I    between atoms: C_7  and  N_9 
REMARK    2  A    between atoms: N_9  and  C_10 
ROOT
HETATM    1  C   UNL     1     -44.462 -51.870  12.988  1.00  0.00     0.252 C 
HETATM    2  O   UNL     1     -44.462 -50.776  13.546  1.00  0.00    -0.270 OA
HETATM    3  N   UNL     1     -43.354 -52.433  12.385  1.00  0.00    -0.310 N 
HETATM    4  H   UNL     1     -43.393 -53.434  12.211  1.00  0.00     0.170 HD
ENDROOT
BRANCH   3   5
HETATM    5  C   UNL     1     -42.077 -51.880  12.415  1.00  0.00     0.123 A 
HETATM    6  C   UNL     1     -41.004 -52.481  13.073  1.00  0.00     0.136 A 
HETATM    7  N   UNL     1     -39.746 -51.962  13.048  1.00  0.00    -0.371 N 
HETATM    8  C   UNL     1     -39.599 -50.836  12.327  1.00  0.00     0.104 A 
ATOM      9  HN  UNL     1     -38.967 -52.398  13.542  1.00  0.00     0.164 HD
HETATM   10  C   UNL     1     -40.673 -50.226  11.695  1.00  0.00     0.106 A 
HETATM   11  N   UNL     1     -41.935 -50.714  11.750  1.00  0.00    -0.350 N 
ATOM     12  HN  UNL     1     -42.725 -50.233  11.320  1.00  0.00     0.166 HD
ENDBRANCH   3   5
BRANCH   1  13
HETATM   13  C   UNL     1     -45.721 -52.752  12.871  1.00  0.00     0.217 C 
HETATM   14  C   UNL     1     -46.653 -52.793  14.079  1.00  0.00     0.022 C 
HETATM   15  C   UNL     1     -46.872 -51.514  14.867  1.00  0.00     0.013 C 
HETATM   16  C   UNL     1     -46.068 -53.915  14.913  1.00  0.00     0.033 C 
HETATM   17  C   UNL     1     -45.465 -54.848  13.882  1.00  0.00     0.169 C 
HETATM   18  O   UNL     1     -45.351 -54.128  12.646  1.00  0.00    -0.376 OA
ENDBRANCH   1  13
TORSDOF 2
ENDMDL
MODEL 3
REMARK VINA RESULT:      -5.2      6.691      8.740
REMARK  2 active torsions:
REMARK  status: ('A' for Active; 'I' for Inactive)
REMARK    1  A    between atoms: C_6  and  C_7 
REMARK       I    between atoms: C_7  and  N_9 
REMARK    2  A    between atoms: N_9  and  C_10 
ROOT
HETATM    1  C   UNL     1     -43.453 -52.622  12.988  1.00  0.00     0.252 C 
HETATM    2  O   UNL     1     -43.207 -52.448  14.178  1.00  0.00    -0.270 OA
HETATM    3  N   UNL     1     -42.592 -52.289  11.960  1.00  0.00    -0.310 N 
HETATM    4  H   UNL     1     -42.772 -52.726  11.060  1.00  0.00     0.170 HD
ENDROOT
BRANCH   3   5
HETATM    5  C   UNL     1     -41.301 -51.804  12.144  1.00  0.00     0.123 A 
HETATM    6  C   UNL     1     -40.783 -50.731  11.417  1.00  0.00     0.136 A 
HETATM    7  N   UNL     1     -39.540 -50.226  11.643  1.00  0.00    -0.371 N 
HETATM    8  C   UNL     1     -38.846 -50.818  12.632  1.00  0.00     0.104 A 
ATOM      9  HN  UNL     1     -39.160 -49.451  11.100  1.00  0.00     0.164 HD
HETATM   10  C   UNL     1     -39.353 -51.901  13.336  1.00  0.00     0.106 A 
HETATM   11  N   UNL     1     -40.573 -52.436  13.087  1.00  0.00    -0.350 N 
ATOM     12  HN  UNL     1     -40.917 -53.259  13.580  1.00  0.00     0.166 HD
ENDBRANCH   3   5
BRANCH   1  13
HETATM   13  C   UNL     1     -44.782 -53.222  12.487  1.00  0.00     0.217 C 
HETATM   14  C   UNL     1     -46.058 -52.769  13.191  1.00  0.00     0.022 C 
HETATM   15  C   UNL     1     -46.167 -51.318  13.626  1.00  0.00     0.013 C 
HETATM   16  C   UNL     1     -46.168 -53.747  14.343  1.00  0.00     0.033 C 
HETATM   17  C   UNL     1     -45.529 -55.010  13.800  1.00  0.00     0.169 C 
HETATM   18  O   UNL     1     -44.771 -54.658  12.634  1.00  0.00    -0.376 OA
ENDBRANCH   1  13
TORSDOF 2
ENDMDL
MODEL 4
REMARK VINA RESULT:      -5.2      6.005      7.436
REMARK  2 active torsions:
REMARK  status: ('A' for Active; 'I' for Inactive)
REMARK    1  A    between atoms: C_6  and  C_7 
REMARK       I    between atoms: C_7  and  N_9 
REMARK    2  A    between atoms: N_9  and  C_10 
ROOT
HETATM    1  C   UNL     1     -40.991 -51.810  12.708  1.00  0.00     0.252 C 
HETATM    2  O   UNL     1     -41.299 -51.245  13.753  1.00  0.00    -0.270 OA
HETATM    3  N   UNL     1     -40.782 -51.161  11.506  1.00  0.00    -0.310 N 
HETATM    4  H   UNL     1     -40.267 -51.676  10.797  1.00  0.00     0.170 HD
ENDROOT
BRANCH   3   5
HETATM    5  C   UNL     1     -40.802 -49.778  11.347  1.00  0.00     0.123 A 
HETATM    6  C   UNL     1     -39.661 -48.983  11.472  1.00  0.00     0.136 A 
HETATM    7  N   UNL     1     -39.679 -47.640  11.258  1.00  0.00    -0.371 N 
HETATM    8  C   UNL     1     -40.870 -47.127  10.897  1.00  0.00     0.104 A 
ATOM      9  HN  UNL     1     -38.846 -47.061  11.364  1.00  0.00     0.164 HD
HETATM   10  C   UNL     1     -42.007 -47.916  10.799  1.00  0.00     0.106 A 
HETATM   11  N   UNL     1     -42.005 -49.246  11.051  1.00  0.00    -0.350 N 
ATOM     12  HN  UNL     1     -42.856 -49.807  11.020  1.00  0.00     0.166 HD
ENDBRANCH   3   5
BRANCH   1  13
HETATM   13  C   UNL     1     -40.816 -53.338  12.602  1.00  0.00     0.217 C 
HETATM   14  C   UNL     1     -41.935 -54.206  13.171  1.00  0.00     0.022 C 
HETATM   15  C   UNL     1     -43.370 -53.740  12.999  1.00  0.00     0.013 C 
HETATM   16  C   UNL     1     -41.528 -54.362  14.623  1.00  0.00     0.033 C 
HETATM   17  C   UNL     1     -40.014 -54.305  14.577  1.00  0.00     0.169 C 
HETATM   18  O   UNL     1     -39.629 -53.758  13.308  1.00  0.00    -0.376 OA
ENDBRANCH   1  13
TORSDOF 2
ENDMDL
MODEL 5
REMARK VINA RESULT:      -4.7      8.492      9.911
REMARK  2 active torsions:
REMARK  status: ('A' for Active; 'I' for Inactive)
REMARK    1  A    between atoms: C_6  and  C_7 
REMARK       I    between atoms: C_7  and  N_9 
REMARK    2  A    between atoms: N_9  and  C_10 
ROOT
HETATM    1  C   UNL     1     -44.463 -53.117  15.361  1.00  0.00     0.252 C 
HETATM    2  O   UNL     1     -43.809 -52.216  15.879  1.00  0.00    -0.270 OA
HETATM    3  N   UNL     1     -43.939 -54.060  14.499  1.00  0.00    -0.310 N 
HETATM    4  H   UNL     1     -44.491 -54.903  14.360  1.00  0.00     0.170 HD
ENDROOT
BRANCH   3   5
HETATM    5  C   UNL     1     -42.589 -54.169  14.180  1.00  0.00     0.123 A 
HETATM    6  C   UNL     1     -42.102 -54.029  12.880  1.00  0.00     0.136 A 
HETATM    7  N   UNL     1     -40.774 -54.079  12.586  1.00  0.00    -0.371 N 
HETATM    8  C   UNL     1     -39.955 -54.254  13.639  1.00  0.00     0.104 A 
ATOM      9  HN  UNL     1     -40.424 -53.990  11.632  1.00  0.00     0.164 HD
HETATM   10  C   UNL     1     -40.443 -54.418  14.928  1.00  0.00     0.106 A 
HETATM   11  N   UNL     1     -41.766 -54.411  15.221  1.00  0.00    -0.350 N 
ATOM     12  HN  UNL     1     -42.115 -54.578  16.164  1.00  0.00     0.166 HD
ENDBRANCH   3   5
BRANCH   1  13
HETATM   13  C   UNL     1     -45.976 -53.295  15.598  1.00  0.00     0.217 C 
HETATM   14  C   UNL     1     -46.893 -52.184  15.094  1.00  0.00     0.022 C 
HETATM   15  C   UNL     1     -46.555 -51.509  13.777  1.00  0.00     0.013 C 
HETATM   16  C   UNL     1     -46.926 -51.223  16.266  1.00  0.00     0.033 C 
HETATM   17  C   UNL     1     -46.752 -52.125  17.471  1.00  0.00     0.169 C 
HETATM   18  O   UNL     1     -46.255 -53.390  17.011  1.00  0.00    -0.376 OA
ENDBRANCH   1  13
TORSDOF 2
ENDMDL
MODEL 6
REMARK VINA RESULT:      -4.6      7.302      8.111
REMARK  2 active torsions:
REMARK  status: ('A' for Active; 'I' for Inactive)
REMARK    1  A    between atoms: C_6  and  C_7 
REMARK       I    between atoms: C_7  and  N_9 
REMARK    2  A    between atoms: N_9  and  C_10 
ROOT
HETATM    1  C   UNL     1     -41.755 -53.049  13.512  1.00  0.00     0.252 C 
HETATM    2  O   UNL     1     -42.008 -52.175  14.337  1.00  0.00    -0.270 OA
HETATM    3  N   UNL     1     -42.711 -53.823  12.883  1.00  0.00    -0.310 N 
HETATM    4  H   UNL     1     -42.419 -54.302  12.035  1.00  0.00     0.170 HD
ENDROOT
BRANCH   3   5
HETATM    5  C   UNL     1     -44.084 -53.650  13.032  1.00  0.00     0.123 A 
HETATM    6  C   UNL     1     -44.900 -54.577  13.679  1.00  0.00     0.136 A 
HETATM    7  N   UNL     1     -46.232 -54.373  13.870  1.00  0.00    -0.371 N 
HETATM    8  C   UNL     1     -46.710 -53.202  13.409  1.00  0.00     0.104 A 
ATOM      9  HN  UNL     1     -46.828 -55.060  14.332  1.00  0.00     0.164 HD
HETATM   10  C   UNL     1     -45.900 -52.292  12.743  1.00  0.00     0.106 A 
HETATM   11  N   UNL     1     -44.583 -52.509  12.512  1.00  0.00    -0.350 N 
ATOM     12  HN  UNL     1     -44.009 -51.854  11.983  1.00  0.00     0.166 HD
ENDBRANCH   3   5
BRANCH   1  13
HETATM   13  C   UNL     1     -40.317 -53.408  13.086  1.00  0.00     0.217 C 
HETATM   14  C   UNL     1     -39.378 -53.918  14.176  1.00  0.00     0.022 C 
HETATM   15  C   UNL     1     -39.944 -54.829  15.251  1.00  0.00     0.013 C 
HETATM   16  C   UNL     1     -38.786 -52.638  14.730  1.00  0.00     0.033 C 
HETATM   17  C   UNL     1     -38.778 -51.703  13.537  1.00  0.00     0.169 C 
HETATM   18  O   UNL     1     -39.652 -52.250  12.539  1.00  0.00    -0.376 OA
ENDBRANCH   1  13
TORSDOF 2
ENDMDL
MODEL 7
REMARK VINA RESULT:      -4.5      7.718      9.739
REMARK  2 active torsions:
REMARK  status: ('A' for Active; 'I' for Inactive)
REMARK    1  A    between atoms: C_6  and  C_7 
REMARK       I    between atoms: C_7  and  N_9 
REMARK    2  A    between atoms: N_9  and  C_10 
ROOT
HETATM    1  C   UNL     1     -43.620 -53.449  13.810  1.00  0.00     0.252 C 
HETATM    2  O   UNL     1     -43.574 -52.981  14.945  1.00  0.00    -0.270 OA
HETATM    3  N   UNL     1     -42.515 -53.637  13.003  1.00  0.00    -0.310 N 
HETATM    4  H   UNL     1     -42.629 -54.276  12.221  1.00  0.00     0.170 HD
ENDROOT
BRANCH   3   5
HETATM    5  C   UNL     1     -41.202 -53.410  13.404  1.00  0.00     0.123 A 
HETATM    6  C   UNL     1     -40.269 -54.436  13.566  1.00  0.00     0.136 A 
HETATM    7  N   UNL     1     -38.972 -54.199  13.902  1.00  0.00    -0.371 N 
HETATM    8  C   UNL     1     -38.640 -52.904  14.052  1.00  0.00     0.104 A 
ATOM      9  HN  UNL     1     -38.297 -54.953  14.033  1.00  0.00     0.164 HD
HETATM   10  C   UNL     1     -39.575 -51.888  13.916  1.00  0.00     0.106 A 
HETATM   11  N   UNL     1     -40.877 -52.119  13.622  1.00  0.00    -0.350 N 
ATOM     12  HN  UNL     1     -41.565 -51.368  13.569  1.00  0.00     0.166 HD
ENDBRANCH   3   5
BRANCH   1  13
HETATM   13  C   UNL     1     -44.938 -53.870  13.130  1.00  0.00     0.217 C 
HETATM   14  C   UNL     1     -46.089 -52.870  13.168  1.00  0.00     0.022 C 
HETATM   15  C   UNL     1     -45.769 -51.393  13.020  1.00  0.00     0.013 C 
HETATM   16  C   UNL     1     -46.777 -53.203  14.477  1.00  0.00     0.033 C 
HETATM   17  C   UNL     1     -46.526 -54.688  14.643  1.00  0.00     0.169 C 
HETATM   18  O   UNL     1     -45.465 -55.061  13.752  1.00  0.00    -0.376 OA
ENDBRANCH   1  13
TORSDOF 2
ENDMDL
MODEL 8
REMARK VINA RESULT:      -4.5      5.530      6.069
REMARK  2 active torsions:
REMARK  status: ('A' for Active; 'I' for Inactive)
REMARK    1  A    between atoms: C_6  and  C_7 
REMARK       I    between atoms: C_7  and  N_9 
REMARK    2  A    between atoms: N_9  and  C_10 
ROOT
HETATM    1  C   UNL     1     -40.303 -50.151  12.699  1.00  0.00     0.252 C 
HETATM    2  O   UNL     1     -40.863 -49.910  13.765  1.00  0.00    -0.270 OA
HETATM    3  N   UNL     1     -40.533 -51.282  11.939  1.00  0.00    -0.310 N 
HETATM    4  H   UNL     1     -40.238 -51.242  10.967  1.00  0.00     0.170 HD
ENDROOT
BRANCH   3   5
HETATM    5  C   UNL     1     -41.493 -52.245  12.235  1.00  0.00     0.123 A 
HETATM    6  C   UNL     1     -41.170 -53.534  12.660  1.00  0.00     0.136 A 
HETATM    7  N   UNL     1     -42.116 -54.450  13.003  1.00  0.00    -0.371 N 
HETATM    8  C   UNL     1     -43.390 -54.024  12.923  1.00  0.00     0.104 A 
ATOM      9  HN  UNL     1     -41.876 -55.396  13.299  1.00  0.00     0.164 HD
HETATM   10  C   UNL     1     -43.709 -52.750  12.475  1.00  0.00     0.106 A 
HETATM   11  N   UNL     1     -42.775 -51.848  12.093  1.00  0.00    -0.350 N 
ATOM     12  HN  UNL     1     -43.023 -50.930  11.723  1.00  0.00     0.166 HD
ENDBRANCH   3   5
BRANCH   1  13
HETATM   13  C   UNL     1     -39.244 -49.217  12.079  1.00  0.00     0.217 C 
HETATM   14  C   UNL     1     -37.796 -49.426  12.512  1.00  0.00     0.022 C 
HETATM   15  C   UNL     1     -37.305 -50.846  12.734  1.00  0.00     0.013 C 
HETATM   16  C   UNL     1     -37.690 -48.558  13.749  1.00  0.00     0.033 C 
HETATM   17  C   UNL     1     -38.669 -47.432  13.480  1.00  0.00     0.169 C 
HETATM   18  O   UNL     1     -39.532 -47.843  12.410  1.00  0.00    -0.376 OA
ENDBRANCH   1  13
TORSDOF 2
ENDMDL
MODEL 9
REMARK VINA RESULT:      -4.4      6.851      8.648
REMARK  2 active torsions:
REMARK  status: ('A' for Active; 'I' for Inactive)
REMARK    1  A    between atoms: C_6  and  C_7 
REMARK       I    between atoms: C_7  and  N_9 
REMARK    2  A    between atoms: N_9  and  C_10 
ROOT
HETATM    1  C   UNL     1     -41.368 -52.743  13.575  1.00  0.00     0.252 C 
HETATM    2  O   UNL     1     -41.426 -52.051  14.588  1.00  0.00    -0.270 OA
HETATM    3  N   UNL     1     -40.774 -52.343  12.394  1.00  0.00    -0.310 N 
HETATM    4  H   UNL     1     -40.538 -53.079  11.733  1.00  0.00     0.170 HD
ENDROOT
BRANCH   3   5
HETATM    5  C   UNL     1     -40.083 -51.146  12.229  1.00  0.00     0.123 A 
HETATM    6  C   UNL     1     -40.514 -50.132  11.373  1.00  0.00     0.136 A 
HETATM    7  N   UNL     1     -39.863 -48.942  11.262  1.00  0.00    -0.371 N 
HETATM    8  C   UNL     1     -38.782 -48.798  12.050  1.00  0.00     0.104 A 
ATOM      9  HN  UNL     1     -40.174 -48.209  10.624  1.00  0.00     0.164 HD
HETATM   10  C   UNL     1     -38.340 -49.818  12.881  1.00  0.00     0.106 A 
HETATM   11  N   UNL     1     -38.959 -51.019  12.965  1.00  0.00    -0.350 N 
ATOM     12  HN  UNL     1     -38.600 -51.777  13.545  1.00  0.00     0.166 HD
ENDBRANCH   3   5
BRANCH   1  13
HETATM   13  C   UNL     1     -41.980 -54.156  13.489  1.00  0.00     0.217 C 
HETATM   14  C   UNL     1     -43.490 -54.247  13.292  1.00  0.00     0.022 C 
HETATM   15  C   UNL     1     -44.164 -53.232  12.386  1.00  0.00     0.013 C 
HETATM   16  C   UNL     1     -44.014 -54.217  14.714  1.00  0.00     0.033 C 
HETATM   17  C   UNL     1     -42.907 -54.874  15.515  1.00  0.00     0.169 C 
HETATM   18  O   UNL     1     -41.723 -54.889  14.705  1.00  0.00    -0.376 OA
ENDBRANCH   1  13
TORSDOF 2
ENDMDL
