MODEL 1
REMARK VINA RESULT:      -7.3      0.000      0.000
REMARK  6 active torsions:
REMARK  status: ('A' for Active; 'I' for Inactive)
REMARK    1  A    between atoms: N_6  and  C_7 
REMARK    2  A    between atoms: C_7  and  C_8 
REMARK    3  A    between atoms: C_8  and  N_9 
REMARK       I    between atoms: N_9  and  C_10 
REMARK    4  A    between atoms: C_10  and  C_12 
REMARK    5  A    between atoms: C_12  and  N_13 
REMARK    6  A    between atoms: C_15  and  C_20 
ROOT
HETATM    1  N   UNL     1     -41.986 -50.249  11.776  1.00  0.00    -0.358 N 
HETATM    2  C   UNL     1     -42.324 -48.914  11.907  1.00  0.00     0.235 C 
HETATM    3  O   UNL     1     -42.866 -48.445  12.903  1.00  0.00    -0.272 OA
HETATM    4  H   UNL     1     -41.243 -50.463  11.119  1.00  0.00     0.162 HD
ENDROOT
BRANCH   2   5
HETATM    5  C   UNL     1     -41.976 -48.065  10.677  1.00  0.00     0.234 C 
BRANCH   5   6
HETATM    6  N   UNL     1     -43.128 -47.354  10.132  1.00  0.00    -0.315 N 
HETATM    7  C   UNL     1     -44.315 -48.030   9.899  1.00  0.00     0.110 A 
HETATM    8  C   UNL     1     -45.353 -47.447   9.271  1.00  0.00     0.063 A 
HETATM    9  C   UNL     1     -45.246 -46.042   8.907  1.00  0.00     0.023 A 
HETATM   10  C   UNL     1     -44.101 -45.371   9.095  1.00  0.00     0.075 A 
HETATM   11  C   UNL     1     -42.918 -46.052   9.684  1.00  0.00     0.247 A 
HETATM   12  O   UNL     1     -41.840 -45.467   9.746  1.00  0.00    -0.268 OA
BRANCH   8  13
HETATM   13  C   UNL     1     -46.588 -48.216   8.897  1.00  0.00     0.418 C 
HETATM   14  F   UNL     1     -46.541 -48.722   7.636  1.00  0.00    -0.166 F 
HETATM   15  F   UNL     1     -46.775 -49.276   9.729  1.00  0.00    -0.166 F 
HETATM   16  F   UNL     1     -47.708 -47.457   8.975  1.00  0.00    -0.166 F 
ENDBRANCH   8  13
ENDBRANCH   5   6
ENDBRANCH   2   5
BRANCH   1  17
HETATM   17  C   UNL     1     -42.209 -51.211  12.845  1.00  0.00     0.152 C 
BRANCH  17  18
HETATM   18  C   UNL     1     -43.294 -52.253  12.495  1.00  0.00     0.292 C 
BRANCH  18  19
HETATM   19  N   UNL     1     -44.325 -52.436  13.540  1.00  0.00     0.090 N 
HETATM   20  C   UNL     1     -44.871 -53.800  13.561  1.00  0.00     0.272 C 
HETATM   21  C   UNL     1     -45.908 -53.985  14.673  1.00  0.00     0.031 C 
HETATM   22  C   UNL     1     -47.019 -52.947  14.584  1.00  0.00     0.007 C 
HETATM   23  C   UNL     1     -46.454 -51.525  14.492  1.00  0.00     0.010 C 
HETATM   24  C   UNL     1     -45.875 -51.059  15.833  1.00  0.00     0.011 C 
HETATM   25  C   UNL     1     -45.406 -51.447  13.365  1.00  0.00     0.276 C 
ENDBRANCH  18  19
ENDBRANCH  17  18
ENDBRANCH   1  17
TORSDOF 6
ENDMDL
MODEL 2
REMARK VINA RESULT:      -6.9      1.160      1.735
REMARK  6 active torsions:
REMARK  status: ('A' for Active; 'I' for Inactive)
REMARK    1  A    between atoms: N_6  and  C_7 
REMARK    2  A    between atoms: C_7  and  C_8 
REMARK    3  A    between atoms: C_8  and  N_9 
REMARK       I    between atoms: N_9  and  C_10 
REMARK    4  A    between atoms: C_10  and  C_12 
REMARK    5  A    between atoms: C_12  and  N_13 
REMARK    6  A    between atoms: C_15  and  C_20 
ROOT
HETATM    1  N   UNL     1     -42.109 -50.021  11.766  1.00  0.00    -0.358 N 
HETATM    2  C   UNL     1     -42.116 -48.641  11.866  1.00  0.00     0.235 C 
HETATM    3  O   UNL     1     -42.295 -48.036  12.919  1.00  0.00    -0.272 OA
HETATM    4  H   UNL     1     -41.604 -50.412  10.978  1.00  0.00     0.162 HD
ENDROOT
BRANCH   2   5
HETATM    5  C   UNL     1     -41.897 -47.924  10.526  1.00  0.00     0.234 C 
BRANCH   5   6
HETATM    6  N   UNL     1     -43.095 -47.245  10.042  1.00  0.00    -0.315 N 
HETATM    7  C   UNL     1     -44.263 -47.962   9.834  1.00  0.00     0.110 A 
HETATM    8  C   UNL     1     -45.345 -47.404   9.260  1.00  0.00     0.063 A 
HETATM    9  C   UNL     1     -45.306 -45.987   8.930  1.00  0.00     0.023 A 
HETATM   10  C   UNL     1     -44.182 -45.277   9.094  1.00  0.00     0.075 A 
HETATM   11  C   UNL     1     -42.952 -45.925   9.622  1.00  0.00     0.247 A 
HETATM   12  O   UNL     1     -41.896 -45.299   9.661  1.00  0.00    -0.268 OA
BRANCH   8  13
HETATM   13  C   UNL     1     -46.563 -48.212   8.909  1.00  0.00     0.418 C 
HETATM   14  F   UNL     1     -46.509 -48.744   7.660  1.00  0.00    -0.166 F 
HETATM   15  F   UNL     1     -46.719 -49.257   9.766  1.00  0.00    -0.166 F 
HETATM   16  F   UNL     1     -47.701 -47.479   8.977  1.00  0.00    -0.166 F 
ENDBRANCH   8  13
ENDBRANCH   5   6
ENDBRANCH   2   5
BRANCH   1  17
HETATM   17  C   UNL     1     -42.271 -50.880  12.929  1.00  0.00     0.152 C 
BRANCH  17  18
HETATM   18  C   UNL     1     -43.751 -51.084  13.320  1.00  0.00     0.292 C 
BRANCH  18  19
HETATM   19  N   UNL     1     -44.026 -52.355  14.026  1.00  0.00     0.090 N 
HETATM   20  C   UNL     1     -43.017 -52.661  15.050  1.00  0.00     0.272 C 
HETATM   21  C   UNL     1     -43.337 -53.958  15.798  1.00  0.00     0.031 C 
HETATM   22  C   UNL     1     -43.526 -55.128  14.842  1.00  0.00     0.007 C 
HETATM   23  C   UNL     1     -44.527 -54.790  13.731  1.00  0.00     0.010 C 
HETATM   24  C   UNL     1     -45.966 -54.751  14.259  1.00  0.00     0.011 C 
HETATM   25  C   UNL     1     -44.135 -53.461  13.056  1.00  0.00     0.276 C 
ENDBRANCH  18  19
ENDBRANCH  17  18
ENDBRANCH   1  17
TORSDOF 6
ENDMDL
MODEL 3
REMARK VINA RESULT:      -6.6      5.253      7.650
REMARK  6 active torsions:
REMARK  status: ('A' for Active; 'I' for Inactive)
REMARK    1  A    between atoms: N_6  and  C_7 
REMARK    2  A    between atoms: C_7  and  C_8 
REMARK    3  A    between atoms: C_8  and  N_9 
REMARK       I    between atoms: N_9  and  C_10 
REMARK    4  A    between atoms: C_10  and  C_12 
REMARK    5  A    between atoms: C_12  and  N_13 
REMARK    6  A    between atoms: C_15  and  C_20 
ROOT
HETATM    1  N   UNL     1     -42.398 -54.000  13.242  1.00  0.00    -0.358 N 
HETATM    2  C   UNL     1     -42.849 -54.324  14.510  1.00  0.00     0.235 C 
HETATM    3  O   UNL     1     -42.123 -54.368  15.499  1.00  0.00    -0.272 OA
HETATM    4  H   UNL     1     -43.092 -53.637  12.597  1.00  0.00     0.162 HD
ENDROOT
BRANCH   2   5
HETATM    5  C   UNL     1     -44.348 -54.647  14.568  1.00  0.00     0.234 C 
BRANCH   5   6
HETATM    6  N   UNL     1     -45.188 -53.453  14.542  1.00  0.00    -0.315 N 
HETATM    7  C   UNL     1     -45.695 -52.935  15.722  1.00  0.00     0.110 A 
HETATM    8  C   UNL     1     -46.582 -51.922  15.730  1.00  0.00     0.063 A 
HETATM    9  C   UNL     1     -46.947 -51.307  14.463  1.00  0.00     0.023 A 
HETATM   10  C   UNL     1     -46.495 -51.804  13.305  1.00  0.00     0.075 A 
HETATM   11  C   UNL     1     -45.605 -52.996  13.293  1.00  0.00     0.247 A 
HETATM   12  O   UNL     1     -45.288 -53.516  12.228  1.00  0.00    -0.268 OA
BRANCH   8  13
HETATM   13  C   UNL     1     -47.236 -51.450  16.999  1.00  0.00     0.418 C 
HETATM   14  F   UNL     1     -47.114 -52.334  18.023  1.00  0.00    -0.166 F 
HETATM   15  F   UNL     1     -46.682 -50.284  17.429  1.00  0.00    -0.166 F 
HETATM   16  F   UNL     1     -48.561 -51.215  16.835  1.00  0.00    -0.166 F 
ENDBRANCH   8  13
ENDBRANCH   5   6
ENDBRANCH   2   5
BRANCH   1  17
HETATM   17  C   UNL     1     -41.013 -53.635  12.985  1.00  0.00     0.152 C 
BRANCH  17  18
HETATM   18  C   UNL     1     -40.880 -52.328  12.174  1.00  0.00     0.292 C 
BRANCH  18  19
HETATM   19  N   UNL     1     -39.639 -51.568  12.438  1.00  0.00     0.090 N 
HETATM   20  C   UNL     1     -39.311 -51.505  13.870  1.00  0.00     0.272 C 
HETATM   21  C   UNL     1     -38.003 -50.750  14.124  1.00  0.00     0.031 C 
HETATM   22  C   UNL     1     -38.024 -49.361  13.500  1.00  0.00     0.007 C 
HETATM   23  C   UNL     1     -38.433 -49.414  12.023  1.00  0.00     0.010 C 
HETATM   24  C   UNL     1     -37.315 -49.991  11.148  1.00  0.00     0.011 C 
HETATM   25  C   UNL     1     -39.742 -50.212  11.869  1.00  0.00     0.276 C 
ENDBRANCH  18  19
ENDBRANCH  17  18
ENDBRANCH   1  17
TORSDOF 6
ENDMDL
MODEL 4
REMARK VINA RESULT:      -6.4      4.055      5.251
REMARK  6 active torsions:
REMARK  status: ('A' for Active; 'I' for Inactive)
REMARK    1  A    between atoms: N_6  and  C_7 
REMARK    2  A    between atoms: C_7  and  C_8 
REMARK    3  A    between atoms: C_8  and  N_9 
REMARK       I    between atoms: N_9  and  C_10 
REMARK    4  A    between atoms: C_10  and  C_12 
REMARK    5  A    between atoms: C_12  and  N_13 
REMARK    6  A    between atoms: C_15  and  C_20 
ROOT
HETATM    1  N   UNL     1     -41.231 -53.613  14.540  1.00  0.00    -0.358 N 
HETATM    2  C   UNL     1     -40.322 -53.291  13.548  1.00  0.00     0.235 C 
HETATM    3  O   UNL     1     -40.370 -53.745  12.408  1.00  0.00    -0.272 OA
HETATM    4  H   UNL     1     -41.334 -52.940  15.292  1.00  0.00     0.162 HD
ENDROOT
BRANCH   2   5
HETATM    5  C   UNL     1     -39.225 -52.321  14.006  1.00  0.00     0.234 C 
BRANCH   5   6
HETATM    6  N   UNL     1     -39.126 -51.134  13.162  1.00  0.00    -0.315 N 
HETATM    7  C   UNL     1     -40.260 -50.395  12.869  1.00  0.00     0.110 A 
HETATM    8  C   UNL     1     -40.237 -49.379  11.986  1.00  0.00     0.063 A 
HETATM    9  C   UNL     1     -38.962 -49.001  11.393  1.00  0.00     0.023 A 
HETATM   10  C   UNL     1     -37.855 -49.716  11.636  1.00  0.00     0.075 A 
HETATM   11  C   UNL     1     -37.909 -50.908  12.523  1.00  0.00     0.247 A 
HETATM   12  O   UNL     1     -36.920 -51.625  12.650  1.00  0.00    -0.268 OA
BRANCH   8  13
HETATM   13  C   UNL     1     -41.490 -48.664  11.564  1.00  0.00     0.418 C 
HETATM   14  F   UNL     1     -41.590 -47.412  12.083  1.00  0.00    -0.166 F 
HETATM   15  F   UNL     1     -41.543 -48.526  10.212  1.00  0.00    -0.166 F 
HETATM   16  F   UNL     1     -42.610 -49.333  11.932  1.00  0.00    -0.166 F 
ENDBRANCH   8  13
ENDBRANCH   5   6
ENDBRANCH   2   5
BRANCH   1  17
HETATM   17  C   UNL     1     -42.362 -54.496  14.295  1.00  0.00     0.152 C 
BRANCH  17  18
HETATM   18  C   UNL     1     -43.541 -54.237  15.258  1.00  0.00     0.292 C 
BRANCH  18  19
HETATM   19  N   UNL     1     -44.646 -53.447  14.671  1.00  0.00     0.090 N 
HETATM   20  C   UNL     1     -44.725 -53.587  13.210  1.00  0.00     0.272 C 
HETATM   21  C   UNL     1     -45.897 -52.796  12.622  1.00  0.00     0.031 C 
HETATM   22  C   UNL     1     -45.850 -51.330  13.035  1.00  0.00     0.007 C 
HETATM   23  C   UNL     1     -45.698 -51.179  14.553  1.00  0.00     0.010 C 
HETATM   24  C   UNL     1     -46.995 -51.535  15.289  1.00  0.00     0.011 C 
HETATM   25  C   UNL     1     -44.513 -52.028  15.050  1.00  0.00     0.276 C 
ENDBRANCH  18  19
ENDBRANCH  17  18
ENDBRANCH   1  17
TORSDOF 6
ENDMDL
MODEL 5
REMARK VINA RESULT:      -6.4      4.848      6.789
REMARK  6 active torsions:
REMARK  status: ('A' for Active; 'I' for Inactive)
REMARK    1  A    between atoms: N_6  and  C_7 
REMARK    2  A    between atoms: C_7  and  C_8 
REMARK    3  A    between atoms: C_8  and  N_9 
REMARK       I    between atoms: N_9  and  C_10 
REMARK    4  A    between atoms: C_10  and  C_12 
REMARK    5  A    between atoms: C_12  and  N_13 
REMARK    6  A    between atoms: C_15  and  C_20 
ROOT
HETATM    1  N   UNL     1     -42.338 -54.227  13.088  1.00  0.00    -0.358 N 
HETATM    2  C   UNL     1     -42.867 -54.499  14.336  1.00  0.00     0.235 C 
HETATM    3  O   UNL     1     -42.197 -54.551  15.364  1.00  0.00    -0.272 OA
HETATM    4  H   UNL     1     -42.980 -53.848  12.399  1.00  0.00     0.162 HD
ENDROOT
BRANCH   2   5
HETATM    5  C   UNL     1     -44.381 -54.752  14.323  1.00  0.00     0.234 C 
BRANCH   5   6
HETATM    6  N   UNL     1     -45.164 -53.521  14.372  1.00  0.00    -0.315 N 
HETATM    7  C   UNL     1     -45.664 -53.064  15.581  1.00  0.00     0.110 A 
HETATM    8  C   UNL     1     -46.503 -52.014  15.652  1.00  0.00     0.063 A 
HETATM    9  C   UNL     1     -46.821 -51.294  14.428  1.00  0.00     0.023 A 
HETATM   10  C   UNL     1     -46.375 -51.729  13.242  1.00  0.00     0.075 A 
HETATM   11  C   UNL     1     -45.541 -52.957  13.156  1.00  0.00     0.247 A 
HETATM   12  O   UNL     1     -45.234 -53.416  12.059  1.00  0.00    -0.268 OA
BRANCH   8  13
HETATM   13  C   UNL     1     -47.152 -51.602  16.943  1.00  0.00     0.418 C 
HETATM   14  F   UNL     1     -47.163 -52.591  17.875  1.00  0.00    -0.166 F 
HETATM   15  F   UNL     1     -46.498 -50.551  17.506  1.00  0.00    -0.166 F 
HETATM   16  F   UNL     1     -48.439 -51.212  16.768  1.00  0.00    -0.166 F 
ENDBRANCH   8  13
ENDBRANCH   5   6
ENDBRANCH   2   5
BRANCH   1  17
HETATM   17  C   UNL     1     -40.926 -53.931  12.896  1.00  0.00     0.152 C 
BRANCH  17  18
HETATM   18  C   UNL     1     -40.652 -52.422  12.707  1.00  0.00     0.292 C 
BRANCH  18  19
HETATM   19  N   UNL     1     -41.631 -51.536  13.374  1.00  0.00     0.090 N 
HETATM   20  C   UNL     1     -42.294 -50.621  12.434  1.00  0.00     0.272 C 
HETATM   21  C   UNL     1     -43.332 -49.737  13.131  1.00  0.00     0.031 C 
HETATM   22  C   UNL     1     -42.728 -48.979  14.306  1.00  0.00     0.007 C 
HETATM   23  C   UNL     1     -41.975 -49.920  15.254  1.00  0.00     0.010 C 
HETATM   24  C   UNL     1     -42.939 -50.787  16.072  1.00  0.00     0.011 C 
HETATM   25  C   UNL     1     -40.976 -50.780  14.458  1.00  0.00     0.276 C 
ENDBRANCH  18  19
ENDBRANCH  17  18
ENDBRANCH   1  17
TORSDOF 6
ENDMDL
MODEL 6
REMARK VINA RESULT:      -6.3      2.959      7.329
REMARK  6 active torsions:
REMARK  status: ('A' for Active; 'I' for Inactive)
REMARK    1  A    between atoms: N_6  and  C_7 
REMARK    2  A    between atoms: C_7  and  C_8 
REMARK    3  A    between atoms: C_8  and  N_9 
REMARK       I    between atoms: N_9  and  C_10 
REMARK    4  A    between atoms: C_10  and  C_12 
REMARK    5  A    between atoms: C_12  and  N_13 
REMARK    6  A    between atoms: C_15  and  C_20 
ROOT
HETATM    1  N   UNL     1     -42.607 -48.626  11.273  1.00  0.00    -0.358 N 
HETATM    2  C   UNL     1     -41.595 -49.477  11.679  1.00  0.00     0.235 C 
HETATM    3  O   UNL     1     -40.561 -49.657  11.042  1.00  0.00    -0.272 OA
HETATM    4  H   UNL     1     -43.215 -48.269  12.003  1.00  0.00     0.162 HD
ENDROOT
BRANCH   2   5
HETATM    5  C   UNL     1     -41.890 -50.200  13.000  1.00  0.00     0.234 C 
BRANCH   5   6
HETATM    6  N   UNL     1     -42.924 -51.222  12.871  1.00  0.00    -0.315 N 
HETATM    7  C   UNL     1     -44.203 -50.980  13.345  1.00  0.00     0.110 A 
HETATM    8  C   UNL     1     -45.145 -51.941  13.372  1.00  0.00     0.063 A 
HETATM    9  C   UNL     1     -44.826 -53.244  12.805  1.00  0.00     0.023 A 
HETATM   10  C   UNL     1     -43.590 -53.515  12.366  1.00  0.00     0.075 A 
HETATM   11  C   UNL     1     -42.520 -52.485  12.444  1.00  0.00     0.247 A 
HETATM   12  O   UNL     1     -41.364 -52.776  12.149  1.00  0.00    -0.268 OA
BRANCH   8  13
HETATM   13  C   UNL     1     -46.488 -51.720  14.009  1.00  0.00     0.418 C 
HETATM   14  F   UNL     1     -46.431 -50.928  15.112  1.00  0.00    -0.166 F 
HETATM   15  F   UNL     1     -47.345 -51.114  13.144  1.00  0.00    -0.166 F 
HETATM   16  F   UNL     1     -47.073 -52.882  14.388  1.00  0.00    -0.166 F 
ENDBRANCH   8  13
ENDBRANCH   5   6
ENDBRANCH   2   5
BRANCH   1  17
HETATM   17  C   UNL     1     -42.505 -47.827  10.060  1.00  0.00     0.152 C 
BRANCH  17  18
HETATM   18  C   UNL     1     -43.066 -46.399  10.236  1.00  0.00     0.292 C 
BRANCH  18  19
HETATM   19  N   UNL     1     -42.039 -45.367  10.500  1.00  0.00     0.090 N 
HETATM   20  C   UNL     1     -40.671 -45.894  10.393  1.00  0.00     0.272 C 
HETATM   21  C   UNL     1     -39.619 -44.806  10.629  1.00  0.00     0.031 C 
HETATM   22  C   UNL     1     -39.834 -44.095  11.959  1.00  0.00     0.007 C 
HETATM   23  C   UNL     1     -41.279 -43.603  12.105  1.00  0.00     0.010 C 
HETATM   24  C   UNL     1     -41.559 -42.396  11.203  1.00  0.00     0.011 C 
HETATM   25  C   UNL     1     -42.259 -44.759  11.825  1.00  0.00     0.276 C 
ENDBRANCH  18  19
ENDBRANCH  17  18
ENDBRANCH   1  17
TORSDOF 6
ENDMDL
MODEL 7
REMARK VINA RESULT:      -6.3      3.161      7.485
REMARK  6 active torsions:
REMARK  status: ('A' for Active; 'I' for Inactive)
REMARK    1  A    between atoms: N_6  and  C_7 
REMARK    2  A    between atoms: C_7  and  C_8 
REMARK    3  A    between atoms: C_8  and  N_9 
REMARK       I    between atoms: N_9  and  C_10 
REMARK    4  A    between atoms: C_10  and  C_12 
REMARK    5  A    between atoms: C_12  and  N_13 
REMARK    6  A    between atoms: C_15  and  C_20 
ROOT
HETATM    1  N   UNL     1     -40.663 -50.508  11.120  1.00  0.00    -0.358 N 
HETATM    2  C   UNL     1     -40.922 -51.281  12.237  1.00  0.00     0.235 C 
HETATM    3  O   UNL     1     -40.871 -50.854  13.387  1.00  0.00    -0.272 OA
HETATM    4  H   UNL     1     -41.076 -50.823  10.249  1.00  0.00     0.162 HD
ENDROOT
BRANCH   2   5
HETATM    5  C   UNL     1     -41.265 -52.742  11.911  1.00  0.00     0.234 C 
BRANCH   5   6
HETATM    6  N   UNL     1     -42.394 -53.247  12.685  1.00  0.00    -0.315 N 
HETATM    7  C   UNL     1     -43.665 -52.737  12.473  1.00  0.00     0.110 A 
HETATM    8  C   UNL     1     -44.706 -53.075  13.257  1.00  0.00     0.063 A 
HETATM    9  C   UNL     1     -44.498 -54.069  14.300  1.00  0.00     0.023 A 
HETATM   10  C   UNL     1     -43.275 -54.558  14.546  1.00  0.00     0.075 A 
HETATM   11  C   UNL     1     -42.106 -54.095  13.752  1.00  0.00     0.247 A 
HETATM   12  O   UNL     1     -40.973 -54.459  14.057  1.00  0.00    -0.268 OA
BRANCH   8  13
HETATM   13  C   UNL     1     -46.052 -52.421  13.115  1.00  0.00     0.418 C 
HETATM   14  F   UNL     1     -46.047 -51.109  13.467  1.00  0.00    -0.166 F 
HETATM   15  F   UNL     1     -46.486 -52.473  11.827  1.00  0.00    -0.166 F 
HETATM   16  F   UNL     1     -46.998 -53.029  13.871  1.00  0.00    -0.166 F 
ENDBRANCH   8  13
ENDBRANCH   5   6
ENDBRANCH   2   5
BRANCH   1  17
HETATM   17  C   UNL     1     -40.348 -49.090  11.219  1.00  0.00     0.152 C 
BRANCH  17  18
HETATM   18  C   UNL     1     -41.581 -48.187  10.998  1.00  0.00     0.292 C 
BRANCH  18  19
HETATM   19  N   UNL     1     -41.390 -46.780  11.413  1.00  0.00     0.090 N 
HETATM   20  C   UNL     1     -42.404 -45.881  10.843  1.00  0.00     0.272 C 
HETATM   21  C   UNL     1     -42.216 -44.436  11.313  1.00  0.00     0.031 C 
HETATM   22  C   UNL     1     -40.808 -43.930  11.031  1.00  0.00     0.007 C 
HETATM   23  C   UNL     1     -39.746 -44.899  11.563  1.00  0.00     0.010 C 
HETATM   24  C   UNL     1     -39.654 -44.851  13.093  1.00  0.00     0.011 C 
HETATM   25  C   UNL     1     -40.033 -46.325  11.057  1.00  0.00     0.276 C 
ENDBRANCH  18  19
ENDBRANCH  17  18
ENDBRANCH   1  17
TORSDOF 6
ENDMDL
MODEL 8
REMARK VINA RESULT:      -6.2      2.176      2.841
REMARK  6 active torsions:
REMARK  status: ('A' for Active; 'I' for Inactive)
REMARK    1  A    between atoms: N_6  and  C_7 
REMARK    2  A    between atoms: C_7  and  C_8 
REMARK    3  A    between atoms: C_8  and  N_9 
REMARK       I    between atoms: N_9  and  C_10 
REMARK    4  A    between atoms: C_10  and  C_12 
REMARK    5  A    between atoms: C_12  and  N_13 
REMARK    6  A    between atoms: C_15  and  C_20 
ROOT
HETATM    1  N   UNL     1     -40.614 -50.371  13.518  1.00  0.00    -0.358 N 
HETATM    2  C   UNL     1     -40.741 -50.636  12.166  1.00  0.00     0.235 C 
HETATM    3  O   UNL     1     -41.241 -51.664  11.717  1.00  0.00    -0.272 OA
HETATM    4  H   UNL     1     -40.544 -49.394  13.781  1.00  0.00     0.162 HD
ENDROOT
BRANCH   2   5
HETATM    5  C   UNL     1     -40.179 -49.528  11.265  1.00  0.00     0.234 C 
BRANCH   5   6
HETATM    6  N   UNL     1     -41.034 -48.346  11.215  1.00  0.00    -0.315 N 
HETATM    7  C   UNL     1     -41.993 -48.225  10.222  1.00  0.00     0.110 A 
HETATM    8  C   UNL     1     -42.705 -47.094  10.058  1.00  0.00     0.063 A 
HETATM    9  C   UNL     1     -42.515 -46.007  11.007  1.00  0.00     0.023 A 
HETATM   10  C   UNL     1     -41.577 -46.086  11.959  1.00  0.00     0.075 A 
HETATM   11  C   UNL     1     -40.712 -47.291  12.066  1.00  0.00     0.247 A 
HETATM   12  O   UNL     1     -39.779 -47.309  12.864  1.00  0.00    -0.268 OA
BRANCH   8  13
HETATM   13  C   UNL     1     -43.647 -46.911   8.900  1.00  0.00     0.418 C 
HETATM   14  F   UNL     1     -43.155 -46.088   7.938  1.00  0.00    -0.166 F 
HETATM   15  F   UNL     1     -43.911 -48.098   8.293  1.00  0.00    -0.166 F 
HETATM   16  F   UNL     1     -44.839 -46.396   9.287  1.00  0.00    -0.166 F 
ENDBRANCH   8  13
ENDBRANCH   5   6
ENDBRANCH   2   5
BRANCH   1  17
HETATM   17  C   UNL     1     -41.113 -51.287  14.534  1.00  0.00     0.152 C 
BRANCH  17  18
HETATM   18  C   UNL     1     -42.450 -50.822  15.152  1.00  0.00     0.292 C 
BRANCH  18  19
HETATM   19  N   UNL     1     -43.636 -51.565  14.672  1.00  0.00     0.090 N 
HETATM   20  C   UNL     1     -43.304 -52.924  14.220  1.00  0.00     0.272 C 
HETATM   21  C   UNL     1     -44.547 -53.694  13.764  1.00  0.00     0.031 C 
HETATM   22  C   UNL     1     -45.322 -52.931  12.698  1.00  0.00     0.007 C 
HETATM   23  C   UNL     1     -45.610 -51.490  13.136  1.00  0.00     0.010 C 
HETATM   24  C   UNL     1     -46.691 -51.436  14.222  1.00  0.00     0.011 C 
HETATM   25  C   UNL     1     -44.308 -50.810  13.598  1.00  0.00     0.276 C 
ENDBRANCH  18  19
ENDBRANCH  17  18
ENDBRANCH   1  17
TORSDOF 6
ENDMDL
MODEL 9
REMARK VINA RESULT:      -6.0      2.761      7.267
REMARK  6 active torsions:
REMARK  status: ('A' for Active; 'I' for Inactive)
REMARK    1  A    between atoms: N_6  and  C_7 
REMARK    2  A    between atoms: C_7  and  C_8 
REMARK    3  A    between atoms: C_8  and  N_9 
REMARK       I    between atoms: N_9  and  C_10 
REMARK    4  A    between atoms: C_10  and  C_12 
REMARK    5  A    between atoms: C_12  and  N_13 
REMARK    6  A    between atoms: C_15  and  C_20 
ROOT
HETATM    1  N   UNL     1     -42.012 -50.517  11.771  1.00  0.00    -0.358 N 
HETATM    2  C   UNL     1     -41.455 -51.634  12.368  1.00  0.00     0.235 C 
HETATM    3  O   UNL     1     -40.428 -51.605  13.040  1.00  0.00    -0.272 OA
HETATM    4  H   UNL     1     -43.005 -50.563  11.568  1.00  0.00     0.162 HD
ENDROOT
BRANCH   2   5
HETATM    5  C   UNL     1     -42.231 -52.930  12.096  1.00  0.00     0.234 C 
BRANCH   5   6
HETATM    6  N   UNL     1     -43.182 -53.256  13.154  1.00  0.00    -0.315 N 
HETATM    7  C   UNL     1     -44.399 -52.597  13.221  1.00  0.00     0.110 A 
HETATM    8  C   UNL     1     -45.243 -52.768  14.256  1.00  0.00     0.063 A 
HETATM    9  C   UNL     1     -44.896 -53.737  15.284  1.00  0.00     0.023 A 
HETATM   10  C   UNL     1     -43.714 -54.368  15.260  1.00  0.00     0.075 A 
HETATM   11  C   UNL     1     -42.735 -54.091  14.176  1.00  0.00     0.247 A 
HETATM   12  O   UNL     1     -41.611 -54.583  14.222  1.00  0.00    -0.268 OA
BRANCH   8  13
HETATM   13  C   UNL     1     -46.498 -51.954  14.398  1.00  0.00     0.418 C 
HETATM   14  F   UNL     1     -47.576 -52.696  14.764  1.00  0.00    -0.166 F 
HETATM   15  F   UNL     1     -46.352 -50.993  15.350  1.00  0.00    -0.166 F 
HETATM   16  F   UNL     1     -46.829 -51.317  13.248  1.00  0.00    -0.166 F 
ENDBRANCH   8  13
ENDBRANCH   5   6
ENDBRANCH   2   5
BRANCH   1  17
HETATM   17  C   UNL     1     -41.440 -49.188  11.935  1.00  0.00     0.152 C 
BRANCH  17  18
HETATM   18  C   UNL     1     -42.514 -48.080  12.005  1.00  0.00     0.292 C 
BRANCH  18  19
HETATM   19  N   UNL     1     -42.782 -47.406  10.715  1.00  0.00     0.090 N 
HETATM   20  C   UNL     1     -42.704 -45.942  10.818  1.00  0.00     0.272 C 
HETATM   21  C   UNL     1     -42.943 -45.260   9.468  1.00  0.00     0.031 C 
HETATM   22  C   UNL     1     -44.260 -45.701   8.841  1.00  0.00     0.007 C 
HETATM   23  C   UNL     1     -44.376 -47.228   8.794  1.00  0.00     0.010 C 
HETATM   24  C   UNL     1     -43.455 -47.833   7.729  1.00  0.00     0.011 C 
HETATM   25  C   UNL     1     -44.095 -47.820  10.188  1.00  0.00     0.276 C 
ENDBRANCH  18  19
ENDBRANCH  17  18
ENDBRANCH   1  17
TORSDOF 6
ENDMDL
