MODEL 1
REMARK VINA RESULT:      -7.4      0.000      0.000
REMARK  5 active torsions:
REMARK  status: ('A' for Active; 'I' for Inactive)
REMARK    1  A    between atoms: C_12  and  O_20 
REMARK    2  A    between atoms: C_13  and  C_16 
REMARK    3  A    between atoms: C_14  and  O_15 
REMARK    4  A    between atoms: C_14  and  C_19 
REMARK    5  A    between atoms: O_15  and  C_16 
ROOT
HETATM    1  N   UNL     1     -42.548 -47.744  11.499  1.00  0.00    -0.292 N 
HETATM    2  C   UNL     1     -41.724 -48.175  10.498  1.00  0.00     0.231 A 
HETATM    3  C   UNL     1     -42.116 -48.282  12.774  1.00  0.00     0.263 C 
HETATM    4  N   UNL     1     -41.952 -48.190   9.238  1.00  0.00    -0.288 N 
ATOM      5  HN  UNL     1     -41.244 -48.498   8.571  1.00  0.00     0.172 HD
HETATM    6  C   UNL     1     -40.904 -49.130  12.354  1.00  0.00     0.212 C 
HETATM    7  O   UNL     1     -40.607 -48.764  10.998  1.00  0.00    -0.309 OA
HETATM    8  C   UNL     1     -43.835 -47.407  11.156  1.00  0.00     0.109 A 
HETATM    9  O   UNL     1     -43.099 -49.189  13.305  1.00  0.00    -0.353 OA
HETATM   10  C   UNL     1     -43.201 -47.772   8.824  1.00  0.00     0.255 A 
HETATM   11  C   UNL     1     -44.232 -47.438   9.876  1.00  0.00     0.022 A 
HETATM   12  C   UNL     1     -41.422 -50.575  12.462  1.00  0.00     0.183 C 
HETATM   13  C   UNL     1     -42.937 -50.386  12.527  1.00  0.00     0.180 C 
HETATM   14  O   UNL     1     -43.519 -47.724   7.641  1.00  0.00    -0.268 OA
HETATM   15  C   UNL     1     -45.634 -47.224   9.416  1.00  0.00     0.056 C 
ENDROOT
BRANCH  13  16
HETATM   16  C   UNL     1     -43.723 -51.567  13.083  1.00  0.00     0.213 C 
BRANCH  16  17
HETATM   17  O   UNL     1     -43.431 -52.759  12.337  1.00  0.00    -0.315 OA
BRANCH  17  18
HETATM   18  C   UNL     1     -43.816 -53.918  12.933  1.00  0.00     0.293 C 
HETATM   19  O   UNL     1     -44.832 -54.550  12.688  1.00  0.00    -0.259 OA
BRANCH  18  20
HETATM   20  C   UNL     1     -42.815 -54.333  13.942  1.00  0.00     0.039 A 
HETATM   21  C   UNL     1     -41.446 -54.103  13.756  1.00  0.00     0.017 A 
HETATM   22  C   UNL     1     -40.534 -54.517  14.728  1.00  0.00     0.001 A 
HETATM   23  C   UNL     1     -40.987 -55.159  15.881  1.00  0.00     0.000 A 
HETATM   24  C   UNL     1     -42.348 -55.407  16.059  1.00  0.00     0.001 A 
HETATM   25  C   UNL     1     -43.263 -55.004  15.086  1.00  0.00     0.017 A 
ENDBRANCH  18  20
ENDBRANCH  17  18
ENDBRANCH  16  17
ENDBRANCH  13  16
BRANCH  12  26
HETATM   26  O   UNL     1     -41.007 -51.409  11.390  1.00  0.00    -0.390 OA
HETATM   27  H   UNL     1     -41.548 -51.190  10.605  1.00  0.00     0.210 HD
ENDBRANCH  12  26
TORSDOF 5
ENDMDL
MODEL 2
REMARK VINA RESULT:      -7.1      2.283      3.694
REMARK  5 active torsions:
REMARK  status: ('A' for Active; 'I' for Inactive)
REMARK    1  A    between atoms: C_12  and  O_20 
REMARK    2  A    between atoms: C_13  and  C_16 
REMARK    3  A    between atoms: C_14  and  O_15 
REMARK    4  A    between atoms: C_14  and  C_19 
REMARK    5  A    between atoms: O_15  and  C_16 
ROOT
HETATM    1  N   UNL     1     -39.944 -49.387  13.021  1.00  0.00    -0.292 N 
HETATM    2  C   UNL     1     -39.776 -49.872  11.756  1.00  0.00     0.231 A 
HETATM    3  C   UNL     1     -39.368 -50.298  13.991  1.00  0.00     0.263 C 
HETATM    4  N   UNL     1     -40.407 -49.540  10.692  1.00  0.00    -0.288 N 
ATOM      5  HN  UNL     1     -40.170 -49.940   9.784  1.00  0.00     0.172 HD
HETATM    6  C   UNL     1     -38.848 -51.424  13.082  1.00  0.00     0.212 C 
HETATM    7  O   UNL     1     -38.912 -50.919  11.740  1.00  0.00    -0.309 OA
HETATM    8  C   UNL     1     -41.002 -48.538  13.238  1.00  0.00     0.109 A 
HETATM    9  O   UNL     1     -40.391 -50.870  14.825  1.00  0.00    -0.353 OA
HETATM   10  C   UNL     1     -41.424 -48.616  10.831  1.00  0.00     0.255 A 
HETATM   11  C   UNL     1     -41.789 -48.154  12.221  1.00  0.00     0.022 A 
HETATM   12  C   UNL     1     -39.852 -52.566  13.317  1.00  0.00     0.183 C 
HETATM   13  C   UNL     1     -41.024 -51.854  13.990  1.00  0.00     0.180 C 
HETATM   14  O   UNL     1     -42.078 -48.211   9.877  1.00  0.00    -0.268 OA
HETATM   15  C   UNL     1     -43.036 -47.350  12.370  1.00  0.00     0.056 C 
ENDROOT
BRANCH  13  16
HETATM   16  C   UNL     1     -41.988 -52.751  14.755  1.00  0.00     0.213 C 
BRANCH  16  17
HETATM   17  O   UNL     1     -42.568 -53.728  13.876  1.00  0.00    -0.315 OA
BRANCH  17  18
HETATM   18  C   UNL     1     -43.750 -54.249  14.297  1.00  0.00     0.293 C 
HETATM   19  O   UNL     1     -43.914 -55.351  14.797  1.00  0.00    -0.259 OA
BRANCH  18  20
HETATM   20  C   UNL     1     -44.846 -53.280  14.074  1.00  0.00     0.039 A 
HETATM   21  C   UNL     1     -45.538 -52.694  15.142  1.00  0.00     0.017 A 
HETATM   22  C   UNL     1     -46.570 -51.789  14.889  1.00  0.00     0.001 A 
HETATM   23  C   UNL     1     -46.912 -51.472  13.574  1.00  0.00     0.000 A 
HETATM   24  C   UNL     1     -46.239 -52.070  12.508  1.00  0.00     0.001 A 
HETATM   25  C   UNL     1     -45.212 -52.982  12.757  1.00  0.00     0.017 A 
ENDBRANCH  18  20
ENDBRANCH  17  18
ENDBRANCH  16  17
ENDBRANCH  13  16
BRANCH  12  26
HETATM   26  O   UNL     1     -40.221 -53.253  12.129  1.00  0.00    -0.390 OA
HETATM   27  H   UNL     1     -41.173 -53.094  11.968  1.00  0.00     0.210 HD
ENDBRANCH  12  26
TORSDOF 5
ENDMDL
MODEL 3
REMARK VINA RESULT:      -7.1      1.735      2.508
REMARK  5 active torsions:
REMARK  status: ('A' for Active; 'I' for Inactive)
REMARK    1  A    between atoms: C_12  and  O_20 
REMARK    2  A    between atoms: C_13  and  C_16 
REMARK    3  A    between atoms: C_14  and  O_15 
REMARK    4  A    between atoms: C_14  and  C_19 
REMARK    5  A    between atoms: O_15  and  C_16 
ROOT
HETATM    1  N   UNL     1     -42.243 -47.048  11.976  1.00  0.00    -0.292 N 
HETATM    2  C   UNL     1     -41.355 -46.406  11.161  1.00  0.00     0.231 A 
HETATM    3  C   UNL     1     -41.543 -47.712  13.059  1.00  0.00     0.263 C 
HETATM    4  N   UNL     1     -41.537 -45.998   9.960  1.00  0.00    -0.288 N 
ATOM      5  HN  UNL     1     -40.813 -45.489   9.454  1.00  0.00     0.172 HD
HETATM    6  C   UNL     1     -40.079 -47.372  12.731  1.00  0.00     0.212 C 
HETATM    7  O   UNL     1     -40.119 -46.353  11.721  1.00  0.00    -0.309 OA
HETATM    8  C   UNL     1     -43.438 -47.442  11.424  1.00  0.00     0.109 A 
HETATM    9  O   UNL     1     -41.675 -49.141  12.953  1.00  0.00    -0.353 OA
HETATM   10  C   UNL     1     -42.759 -46.282   9.382  1.00  0.00     0.255 A 
HETATM   11  C   UNL     1     -43.737 -47.136  10.153  1.00  0.00     0.022 A 
HETATM   12  C   UNL     1     -39.515 -48.698  12.191  1.00  0.00     0.183 C 
HETATM   13  C   UNL     1     -40.777 -49.505  11.892  1.00  0.00     0.180 C 
HETATM   14  O   UNL     1     -43.049 -45.920   8.247  1.00  0.00    -0.268 OA
HETATM   15  C   UNL     1     -44.940 -47.628   9.422  1.00  0.00     0.056 C 
ENDROOT
BRANCH  13  16
HETATM   16  C   UNL     1     -40.581 -51.011  11.770  1.00  0.00     0.213 C 
BRANCH  16  17
HETATM   17  O   UNL     1     -41.658 -51.710  12.414  1.00  0.00    -0.315 OA
BRANCH  17  18
HETATM   18  C   UNL     1     -41.385 -52.997  12.756  1.00  0.00     0.293 C 
HETATM   19  O   UNL     1     -40.291 -53.536  12.710  1.00  0.00    -0.259 OA
BRANCH  18  20
HETATM   20  C   UNL     1     -42.617 -53.679  13.211  1.00  0.00     0.039 A 
HETATM   21  C   UNL     1     -43.846 -53.483  12.566  1.00  0.00     0.017 A 
HETATM   22  C   UNL     1     -44.986 -54.142  13.031  1.00  0.00     0.001 A 
HETATM   23  C   UNL     1     -44.901 -54.990  14.135  1.00  0.00     0.000 A 
HETATM   24  C   UNL     1     -43.682 -55.170  14.791  1.00  0.00     0.001 A 
HETATM   25  C   UNL     1     -42.542 -54.507  14.336  1.00  0.00     0.017 A 
ENDBRANCH  18  20
ENDBRANCH  17  18
ENDBRANCH  16  17
ENDBRANCH  13  16
BRANCH  12  26
HETATM   26  O   UNL     1     -38.670 -48.539  11.061  1.00  0.00    -0.390 OA
HETATM   27  H   UNL     1     -38.972 -47.753  10.562  1.00  0.00     0.210 HD
ENDBRANCH  12  26
TORSDOF 5
ENDMDL
MODEL 4
REMARK VINA RESULT:      -7.0      2.703      4.448
REMARK  5 active torsions:
REMARK  status: ('A' for Active; 'I' for Inactive)
REMARK    1  A    between atoms: C_12  and  O_20 
REMARK    2  A    between atoms: C_13  and  C_16 
REMARK    3  A    between atoms: C_14  and  O_15 
REMARK    4  A    between atoms: C_14  and  C_19 
REMARK    5  A    between atoms: O_15  and  C_16 
ROOT
HETATM    1  N   UNL     1     -40.340 -50.980  14.235  1.00  0.00    -0.292 N 
HETATM    2  C   UNL     1     -39.550 -51.273  13.160  1.00  0.00     0.231 A 
HETATM    3  C   UNL     1     -40.202 -52.002  15.255  1.00  0.00     0.263 C 
HETATM    4  N   UNL     1     -39.636 -50.812  11.968  1.00  0.00    -0.288 N 
ATOM      5  HN  UNL     1     -38.963 -51.070  11.246  1.00  0.00     0.172 HD
HETATM    6  C   UNL     1     -39.210 -52.969  14.587  1.00  0.00     0.212 C 
HETATM    7  O   UNL     1     -38.684 -52.279  13.444  1.00  0.00    -0.309 OA
HETATM    8  C   UNL     1     -41.452 -50.205  14.011  1.00  0.00     0.109 A 
HETATM    9  O   UNL     1     -41.437 -52.720  15.428  1.00  0.00    -0.353 OA
HETATM   10  C   UNL     1     -40.684 -49.951  11.705  1.00  0.00     0.255 A 
HETATM   11  C   UNL     1     -41.702 -49.705  12.792  1.00  0.00     0.022 A 
HETATM   12  C   UNL     1     -40.091 -54.164  14.184  1.00  0.00     0.183 C 
HETATM   13  C   UNL     1     -41.504 -53.594  14.289  1.00  0.00     0.180 C 
HETATM   14  O   UNL     1     -40.848 -49.434  10.605  1.00  0.00    -0.268 OA
HETATM   15  C   UNL     1     -42.943 -48.971  12.413  1.00  0.00     0.056 C 
ENDROOT
BRANCH  13  16
HETATM   16  C   UNL     1     -42.623 -54.622  14.394  1.00  0.00     0.213 C 
BRANCH  16  17
HETATM   17  O   UNL     1     -43.719 -54.260  13.538  1.00  0.00    -0.315 OA
BRANCH  17  18
HETATM   18  C   UNL     1     -44.945 -54.642  13.981  1.00  0.00     0.293 C 
HETATM   19  O   UNL     1     -45.393 -55.777  13.969  1.00  0.00    -0.259 OA
BRANCH  18  20
HETATM   20  C   UNL     1     -45.688 -53.473  14.504  1.00  0.00     0.039 A 
HETATM   21  C   UNL     1     -46.046 -52.401  13.677  1.00  0.00     0.017 A 
HETATM   22  C   UNL     1     -46.741 -51.314  14.211  1.00  0.00     0.001 A 
HETATM   23  C   UNL     1     -47.075 -51.297  15.565  1.00  0.00     0.000 A 
HETATM   24  C   UNL     1     -46.700 -52.354  16.395  1.00  0.00     0.001 A 
HETATM   25  C   UNL     1     -45.998 -53.438  15.868  1.00  0.00     0.017 A 
ENDBRANCH  18  20
ENDBRANCH  17  18
ENDBRANCH  16  17
ENDBRANCH  13  16
BRANCH  12  26
HETATM   26  O   UNL     1     -39.790 -54.685  12.898  1.00  0.00    -0.390 OA
HETATM   27  H   UNL     1     -39.344 -53.984  12.381  1.00  0.00     0.210 HD
ENDBRANCH  12  26
TORSDOF 5
ENDMDL
MODEL 5
REMARK VINA RESULT:      -6.9      4.008      5.537
REMARK  5 active torsions:
REMARK  status: ('A' for Active; 'I' for Inactive)
REMARK    1  A    between atoms: C_12  and  O_20 
REMARK    2  A    between atoms: C_13  and  C_16 
REMARK    3  A    between atoms: C_14  and  O_15 
REMARK    4  A    between atoms: C_14  and  C_19 
REMARK    5  A    between atoms: O_15  and  C_16 
ROOT
HETATM    1  N   UNL     1     -39.860 -52.267  15.168  1.00  0.00    -0.292 N 
HETATM    2  C   UNL     1     -38.860 -52.344  14.241  1.00  0.00     0.231 A 
HETATM    3  C   UNL     1     -40.774 -53.383  15.018  1.00  0.00     0.263 C 
HETATM    4  N   UNL     1     -38.076 -51.412  13.845  1.00  0.00    -0.288 N 
ATOM      5  HN  UNL     1     -37.331 -51.591  13.172  1.00  0.00     0.172 HD
HETATM    6  C   UNL     1     -40.156 -54.126  13.822  1.00  0.00     0.212 C 
HETATM    7  O   UNL     1     -38.856 -53.551  13.619  1.00  0.00    -0.309 OA
HETATM    8  C   UNL     1     -40.177 -51.021  15.653  1.00  0.00     0.109 A 
HETATM    9  O   UNL     1     -42.074 -52.927  14.603  1.00  0.00    -0.353 OA
HETATM   10  C   UNL     1     -38.286 -50.153  14.372  1.00  0.00     0.255 A 
HETATM   11  C   UNL     1     -39.476 -49.942  15.276  1.00  0.00     0.022 A 
HETATM   12  C   UNL     1     -41.116 -53.803  12.664  1.00  0.00     0.183 C 
HETATM   13  C   UNL     1     -41.916 -52.620  13.208  1.00  0.00     0.180 C 
HETATM   14  O   UNL     1     -37.580 -49.193  14.081  1.00  0.00    -0.268 OA
HETATM   15  C   UNL     1     -39.822 -48.536  15.636  1.00  0.00     0.056 C 
ENDROOT
BRANCH  13  16
HETATM   16  C   UNL     1     -43.239 -52.342  12.507  1.00  0.00     0.213 C 
BRANCH  16  17
HETATM   17  O   UNL     1     -44.210 -53.344  12.852  1.00  0.00    -0.315 OA
BRANCH  17  18
HETATM   18  C   UNL     1     -45.498 -52.914  12.868  1.00  0.00     0.293 C 
HETATM   19  O   UNL     1     -46.217 -52.759  11.893  1.00  0.00    -0.259 OA
BRANCH  18  20
HETATM   20  C   UNL     1     -45.936 -52.656  14.259  1.00  0.00     0.039 A 
HETATM   21  C   UNL     1     -45.569 -53.503  15.313  1.00  0.00     0.017 A 
HETATM   22  C   UNL     1     -46.009 -53.227  16.609  1.00  0.00     0.001 A 
HETATM   23  C   UNL     1     -46.812 -52.113  16.851  1.00  0.00     0.000 A 
HETATM   24  C   UNL     1     -47.196 -51.280  15.799  1.00  0.00     0.001 A 
HETATM   25  C   UNL     1     -46.766 -51.556  14.501  1.00  0.00     0.017 A 
ENDBRANCH  18  20
ENDBRANCH  17  18
ENDBRANCH  16  17
ENDBRANCH  13  16
BRANCH  12  26
HETATM   26  O   UNL     1     -40.456 -53.518  11.440  1.00  0.00    -0.390 OA
HETATM   27  H   UNL     1     -39.492 -53.506  11.608  1.00  0.00     0.210 HD
ENDBRANCH  12  26
TORSDOF 5
ENDMDL
MODEL 6
REMARK VINA RESULT:      -6.5      4.421      7.022
REMARK  5 active torsions:
REMARK  status: ('A' for Active; 'I' for Inactive)
REMARK    1  A    between atoms: C_12  and  O_20 
REMARK    2  A    between atoms: C_13  and  C_16 
REMARK    3  A    between atoms: C_14  and  O_15 
REMARK    4  A    between atoms: C_14  and  C_19 
REMARK    5  A    between atoms: O_15  and  C_16 
ROOT
HETATM    1  N   UNL     1     -43.096 -54.409  13.835  1.00  0.00    -0.292 N 
HETATM    2  C   UNL     1     -43.772 -53.855  12.786  1.00  0.00     0.231 A 
HETATM    3  C   UNL     1     -43.948 -55.342  14.547  1.00  0.00     0.263 C 
HETATM    4  N   UNL     1     -43.491 -52.784  12.141  1.00  0.00    -0.288 N 
ATOM      5  HN  UNL     1     -44.045 -52.482  11.340  1.00  0.00     0.172 HD
HETATM    6  C   UNL     1     -45.259 -55.228  13.752  1.00  0.00     0.212 C 
HETATM    7  O   UNL     1     -44.941 -54.506  12.552  1.00  0.00    -0.309 OA
HETATM    8  C   UNL     1     -42.062 -53.683  14.375  1.00  0.00     0.109 A 
HETATM    9  O   UNL     1     -44.222 -54.870  15.878  1.00  0.00    -0.353 OA
HETATM   10  C   UNL     1     -42.400 -52.059  12.580  1.00  0.00     0.255 A 
HETATM   11  C   UNL     1     -41.697 -52.510  13.837  1.00  0.00     0.022 A 
HETATM   12  C   UNL     1     -46.175 -54.418  14.686  1.00  0.00     0.183 C 
HETATM   13  C   UNL     1     -45.192 -53.826  15.694  1.00  0.00     0.180 C 
HETATM   14  O   UNL     1     -42.027 -51.032  12.023  1.00  0.00    -0.268 OA
HETATM   15  C   UNL     1     -40.684 -51.585  14.424  1.00  0.00     0.056 C 
ENDROOT
BRANCH  13  16
HETATM   16  C   UNL     1     -45.803 -53.345  17.005  1.00  0.00     0.213 C 
BRANCH  16  17
HETATM   17  O   UNL     1     -46.897 -52.450  16.749  1.00  0.00    -0.315 OA
BRANCH  17  18
HETATM   18  C   UNL     1     -46.536 -51.185  16.409  1.00  0.00     0.293 C 
HETATM   19  O   UNL     1     -46.048 -50.837  15.345  1.00  0.00    -0.259 OA
BRANCH  18  20
HETATM   20  C   UNL     1     -46.824 -50.253  17.523  1.00  0.00     0.039 A 
HETATM   21  C   UNL     1     -48.106 -50.143  18.076  1.00  0.00     0.017 A 
HETATM   22  C   UNL     1     -48.337 -49.247  19.121  1.00  0.00     0.001 A 
HETATM   23  C   UNL     1     -47.293 -48.462  19.611  1.00  0.00     0.000 A 
HETATM   24  C   UNL     1     -46.020 -48.555  19.048  1.00  0.00     0.001 A 
HETATM   25  C   UNL     1     -45.786 -49.443  17.997  1.00  0.00     0.017 A 
ENDBRANCH  18  20
ENDBRANCH  17  18
ENDBRANCH  16  17
ENDBRANCH  13  16
BRANCH  12  26
HETATM   26  O   UNL     1     -46.948 -53.435  14.013  1.00  0.00    -0.390 OA
HETATM   27  H   UNL     1     -46.988 -53.674  13.065  1.00  0.00     0.210 HD
ENDBRANCH  12  26
TORSDOF 5
ENDMDL
MODEL 7
REMARK VINA RESULT:      -6.4      3.013      4.273
REMARK  5 active torsions:
REMARK  status: ('A' for Active; 'I' for Inactive)
REMARK    1  A    between atoms: C_12  and  O_20 
REMARK    2  A    between atoms: C_13  and  C_16 
REMARK    3  A    between atoms: C_14  and  O_15 
REMARK    4  A    between atoms: C_14  and  C_19 
REMARK    5  A    between atoms: O_15  and  C_16 
ROOT
HETATM    1  N   UNL     1     -40.154 -49.652  13.543  1.00  0.00    -0.292 N 
HETATM    2  C   UNL     1     -39.603 -49.774  12.300  1.00  0.00     0.231 A 
HETATM    3  C   UNL     1     -40.365 -50.961  14.132  1.00  0.00     0.263 C 
HETATM    4  N   UNL     1     -39.572 -48.904  11.360  1.00  0.00    -0.288 N 
ATOM      5  HN  UNL     1     -39.093 -49.087  10.479  1.00  0.00     0.172 HD
HETATM    6  C   UNL     1     -39.864 -51.885  13.009  1.00  0.00     0.212 C 
HETATM    7  O   UNL     1     -39.178 -51.043  12.070  1.00  0.00    -0.309 OA
HETATM    8  C   UNL     1     -40.892 -48.522  13.800  1.00  0.00     0.109 A 
HETATM    9  O   UNL     1     -41.769 -51.226  14.298  1.00  0.00    -0.353 OA
HETATM   10  C   UNL     1     -40.217 -47.706  11.597  1.00  0.00     0.255 A 
HETATM   11  C   UNL     1     -40.997 -47.552  12.880  1.00  0.00     0.022 A 
HETATM   12  C   UNL     1     -41.161 -52.469  12.420  1.00  0.00     0.183 C 
HETATM   13  C   UNL     1     -42.234 -51.534  12.974  1.00  0.00     0.180 C 
HETATM   14  O   UNL     1     -40.231 -46.795  10.777  1.00  0.00    -0.268 OA
HETATM   15  C   UNL     1     -41.878 -46.354  13.006  1.00  0.00     0.056 C 
ENDROOT
BRANCH  13  16
HETATM   16  C   UNL     1     -43.656 -52.081  12.955  1.00  0.00     0.213 C 
BRANCH  16  17
HETATM   17  O   UNL     1     -44.534 -51.221  13.700  1.00  0.00    -0.315 OA
BRANCH  17  18
HETATM   18  C   UNL     1     -45.730 -51.771  14.034  1.00  0.00     0.293 C 
HETATM   19  O   UNL     1     -46.369 -52.566  13.362  1.00  0.00    -0.259 OA
BRANCH  18  20
HETATM   20  C   UNL     1     -46.170 -51.277  15.358  1.00  0.00     0.039 A 
HETATM   21  C   UNL     1     -45.300 -50.585  16.210  1.00  0.00     0.017 A 
HETATM   22  C   UNL     1     -45.753 -50.141  17.453  1.00  0.00     0.001 A 
HETATM   23  C   UNL     1     -47.069 -50.389  17.846  1.00  0.00     0.000 A 
HETATM   24  C   UNL     1     -47.931 -51.097  17.008  1.00  0.00     0.001 A 
HETATM   25  C   UNL     1     -47.480 -51.550  15.767  1.00  0.00     0.017 A 
ENDBRANCH  18  20
ENDBRANCH  17  18
ENDBRANCH  16  17
ENDBRANCH  13  16
BRANCH  12  26
HETATM   26  O   UNL     1     -41.158 -52.542  11.002  1.00  0.00    -0.390 OA
HETATM   27  H   UNL     1     -41.670 -51.784  10.655  1.00  0.00     0.210 HD
ENDBRANCH  12  26
TORSDOF 5
ENDMDL
MODEL 8
REMARK VINA RESULT:      -6.4      2.388      3.503
REMARK  5 active torsions:
REMARK  status: ('A' for Active; 'I' for Inactive)
REMARK    1  A    between atoms: C_12  and  O_20 
REMARK    2  A    between atoms: C_13  and  C_16 
REMARK    3  A    between atoms: C_14  and  O_15 
REMARK    4  A    between atoms: C_14  and  C_19 
REMARK    5  A    between atoms: O_15  and  C_16 
ROOT
HETATM    1  N   UNL     1     -39.719 -48.442  13.579  1.00  0.00    -0.292 N 
HETATM    2  C   UNL     1     -39.145 -48.664  12.360  1.00  0.00     0.231 A 
HETATM    3  C   UNL     1     -38.878 -48.969  14.636  1.00  0.00     0.263 C 
HETATM    4  N   UNL     1     -39.705 -48.647  11.208  1.00  0.00    -0.288 N 
ATOM      5  HN  UNL     1     -39.168 -48.787  10.352  1.00  0.00     0.172 HD
HETATM    6  C   UNL     1     -37.712 -49.567  13.830  1.00  0.00     0.212 C 
HETATM    7  O   UNL     1     -37.858 -49.077  12.488  1.00  0.00    -0.309 OA
HETATM    8  C   UNL     1     -41.086 -48.316  13.621  1.00  0.00     0.109 A 
HETATM    9  O   UNL     1     -39.527 -50.063  15.309  1.00  0.00    -0.353 OA
HETATM   10  C   UNL     1     -41.068 -48.429  11.179  1.00  0.00     0.255 A 
HETATM   11  C   UNL     1     -41.809 -48.342  12.491  1.00  0.00     0.022 A 
HETATM   12  C   UNL     1     -37.955 -51.084  13.920  1.00  0.00     0.183 C 
HETATM   13  C   UNL     1     -39.404 -51.167  14.397  1.00  0.00     0.180 C 
HETATM   14  O   UNL     1     -41.701 -48.369  10.131  1.00  0.00    -0.268 OA
HETATM   15  C   UNL     1     -43.300 -48.350  12.437  1.00  0.00     0.056 C 
ENDROOT
BRANCH  13  16
HETATM   16  C   UNL     1     -39.818 -52.497  15.014  1.00  0.00     0.213 C 
BRANCH  16  17
HETATM   17  O   UNL     1     -39.870 -53.522  14.008  1.00  0.00    -0.315 OA
BRANCH  17  18
HETATM   18  C   UNL     1     -40.766 -53.303  13.011  1.00  0.00     0.293 C 
HETATM   19  O   UNL     1     -40.535 -52.761  11.942  1.00  0.00    -0.259 OA
BRANCH  18  20
HETATM   20  C   UNL     1     -42.096 -53.829  13.394  1.00  0.00     0.039 A 
HETATM   21  C   UNL     1     -43.254 -53.481  12.685  1.00  0.00     0.017 A 
HETATM   22  C   UNL     1     -44.490 -53.994  13.083  1.00  0.00     0.001 A 
HETATM   23  C   UNL     1     -44.571 -54.847  14.183  1.00  0.00     0.000 A 
HETATM   24  C   UNL     1     -43.422 -55.177  14.903  1.00  0.00     0.001 A 
HETATM   25  C   UNL     1     -42.186 -54.660  14.515  1.00  0.00     0.017 A 
ENDBRANCH  18  20
ENDBRANCH  17  18
ENDBRANCH  16  17
ENDBRANCH  13  16
BRANCH  12  26
HETATM   26  O   UNL     1     -37.727 -51.770  12.697  1.00  0.00    -0.390 OA
HETATM   27  H   UNL     1     -36.796 -51.621  12.432  1.00  0.00     0.210 HD
ENDBRANCH  12  26
TORSDOF 5
ENDMDL
MODEL 9
REMARK VINA RESULT:      -6.4      2.969      4.920
REMARK  5 active torsions:
REMARK  status: ('A' for Active; 'I' for Inactive)
REMARK    1  A    between atoms: C_12  and  O_20 
REMARK    2  A    between atoms: C_13  and  C_16 
REMARK    3  A    between atoms: C_14  and  O_15 
REMARK    4  A    between atoms: C_14  and  C_19 
REMARK    5  A    between atoms: O_15  and  C_16 
ROOT
HETATM    1  N   UNL     1     -38.615 -48.914  12.517  1.00  0.00    -0.292 N 
HETATM    2  C   UNL     1     -39.686 -48.073  12.415  1.00  0.00     0.231 A 
HETATM    3  C   UNL     1     -38.795 -50.066  11.654  1.00  0.00     0.263 C 
HETATM    4  N   UNL     1     -40.047 -47.151  13.228  1.00  0.00    -0.288 N 
ATOM      5  HN  UNL     1     -40.846 -46.549  13.032  1.00  0.00     0.172 HD
HETATM    6  C   UNL     1     -40.174 -49.775  11.039  1.00  0.00     0.212 C 
HETATM    7  O   UNL     1     -40.483 -48.412  11.369  1.00  0.00    -0.309 OA
HETATM    8  C   UNL     1     -37.896 -48.884  13.687  1.00  0.00     0.109 A 
HETATM    9  O   UNL     1     -38.927 -51.270  12.431  1.00  0.00    -0.353 OA
HETATM   10  C   UNL     1     -39.302 -47.010  14.383  1.00  0.00     0.255 A 
HETATM   11  C   UNL     1     -38.203 -48.008  14.655  1.00  0.00     0.022 A 
HETATM   12  C   UNL     1     -41.104 -50.767  11.759  1.00  0.00     0.183 C 
HETATM   13  C   UNL     1     -40.264 -51.212  12.955  1.00  0.00     0.180 C 
HETATM   14  O   UNL     1     -39.544 -46.146  15.219  1.00  0.00    -0.268 OA
HETATM   15  C   UNL     1     -37.577 -47.985  16.009  1.00  0.00     0.056 C 
ENDROOT
BRANCH  13  16
HETATM   16  C   UNL     1     -40.699 -52.512  13.619  1.00  0.00     0.213 C 
BRANCH  16  17
HETATM   17  O   UNL     1     -41.788 -53.105  12.893  1.00  0.00    -0.315 OA
BRANCH  17  18
HETATM   18  C   UNL     1     -42.735 -53.701  13.663  1.00  0.00     0.293 C 
HETATM   19  O   UNL     1     -42.598 -54.732  14.303  1.00  0.00    -0.259 OA
BRANCH  18  20
HETATM   20  C   UNL     1     -43.989 -52.915  13.634  1.00  0.00     0.039 A 
HETATM   21  C   UNL     1     -44.301 -51.993  14.641  1.00  0.00     0.017 A 
HETATM   22  C   UNL     1     -45.498 -51.277  14.580  1.00  0.00     0.001 A 
HETATM   23  C   UNL     1     -46.380 -51.482  13.518  1.00  0.00     0.000 A 
HETATM   24  C   UNL     1     -46.080 -52.415  12.525  1.00  0.00     0.001 A 
HETATM   25  C   UNL     1     -44.890 -53.140  12.587  1.00  0.00     0.017 A 
ENDBRANCH  18  20
ENDBRANCH  17  18
ENDBRANCH  16  17
ENDBRANCH  13  16
BRANCH  12  26
HETATM   26  O   UNL     1     -42.356 -50.208  12.130  1.00  0.00    -0.390 OA
HETATM   27  H   UNL     1     -42.865 -50.031  11.313  1.00  0.00     0.210 HD
ENDBRANCH  12  26
TORSDOF 5
ENDMDL
