MODEL 1
REMARK VINA RESULT:      -6.0      0.000      0.000
REMARK  4 active torsions:
REMARK  status: ('A' for Active; 'I' for Inactive)
REMARK    1  A    between atoms: C_2  and  C_3 
REMARK    2  A    between atoms: C_2  and  C_14 
REMARK    3  A    between atoms: C_3  and  N_4 
REMARK    4  A    between atoms: N_4  and  C_5 
ROOT
HETATM    1  C   UNL     1     -42.242 -50.959  12.454  1.00  0.00     0.279 C 
ENDROOT
BRANCH   1   2
HETATM    2  C   UNL     1     -43.562 -50.971  13.271  1.00  0.00     0.047 C 
HETATM    3  C   UNL     1     -43.374 -50.533  14.729  1.00  0.00     0.017 C 
BRANCH   2   4
HETATM    4  C   UNL     1     -44.237 -52.321  13.190  1.00  0.00     0.003 A 
HETATM    5  C   UNL     1     -43.736 -53.623  13.501  1.00  0.00     0.038 A 
HETATM    6  C   UNL     1     -42.410 -54.053  14.006  1.00  0.00     0.071 C 
HETATM    7  N   UNL     1     -44.656 -54.569  13.273  1.00  0.00    -0.265 N 
HETATM    8  O   UNL     1     -45.777 -53.909  12.826  1.00  0.00    -0.242 OA
ATOM      9  HN  UNL     1     -44.547 -55.575  13.404  1.00  0.00     0.194 HD
HETATM   10  C   UNL     1     -45.534 -52.575  12.781  1.00  0.00     0.081 A 
HETATM   11  C   UNL     1     -46.657 -51.735  12.323  1.00  0.00     0.079 C 
ENDBRANCH   2   4
ENDBRANCH   1   2
BRANCH   1  12
HETATM   12  N   UNL     1     -42.081 -49.787  11.576  1.00  0.00     0.091 N 
HETATM   13  H   UNL     1     -42.562 -48.986  11.985  1.00  0.00     0.316 HD
BRANCH  12  14
HETATM   14  C   UNL     1     -40.662 -49.445  11.366  1.00  0.00     0.256 C 
HETATM   15  C   UNL     1     -39.672 -50.424  11.993  1.00  0.00     0.076 C 
HETATM   16  C   UNL     1     -38.389 -49.604  12.167  1.00  0.00     0.057 C 
HETATM   17  C   UNL     1     -37.785 -49.791  13.563  1.00  0.00     0.045 C 
HETATM   18  C   UNL     1     -37.335 -49.959  11.117  1.00  0.00     0.045 C 
HETATM   19  O   UNL     1     -38.743 -48.217  12.005  1.00  0.00    -0.368 OA
HETATM   20  C   UNL     1     -40.183 -48.095  11.951  1.00  0.00     0.085 C 
HETATM   21  C   UNL     1     -40.542 -46.911  11.054  1.00  0.00     0.048 C 
HETATM   22  C   UNL     1     -40.675 -47.807  13.377  1.00  0.00     0.048 C 
ENDBRANCH  12  14
ENDBRANCH   1  12
TORSDOF 4
ENDMDL
MODEL 2
REMARK VINA RESULT:      -5.9      0.637      1.867
REMARK  4 active torsions:
REMARK  status: ('A' for Active; 'I' for Inactive)
REMARK    1  A    between atoms: C_2  and  C_3 
REMARK    2  A    between atoms: C_2  and  C_14 
REMARK    3  A    between atoms: C_3  and  N_4 
REMARK    4  A    between atoms: N_4  and  C_5 
ROOT
HETATM    1  C   UNL     1     -42.167 -51.388  12.476  1.00  0.00     0.279 C 
ENDROOT
BRANCH   1   2
HETATM    2  C   UNL     1     -43.205 -51.351  13.630  1.00  0.00     0.047 C 
HETATM    3  C   UNL     1     -42.566 -51.174  15.013  1.00  0.00     0.017 C 
BRANCH   2   4
HETATM    4  C   UNL     1     -44.099 -52.569  13.595  1.00  0.00     0.003 A 
HETATM    5  C   UNL     1     -45.493 -52.682  13.298  1.00  0.00     0.038 A 
HETATM    6  C   UNL     1     -46.488 -51.648  12.925  1.00  0.00     0.071 C 
HETATM    7  N   UNL     1     -45.914 -53.949  13.397  1.00  0.00    -0.265 N 
HETATM    8  O   UNL     1     -44.809 -54.691  13.742  1.00  0.00    -0.242 OA
ATOM      9  HN  UNL     1     -46.862 -54.294  13.246  1.00  0.00     0.194 HD
HETATM   10  C   UNL     1     -43.729 -53.877  13.856  1.00  0.00     0.081 A 
HETATM   11  C   UNL     1     -42.462 -54.540  14.218  1.00  0.00     0.079 C 
ENDBRANCH   2   4
ENDBRANCH   1   2
BRANCH   1  12
HETATM   12  N   UNL     1     -42.099 -50.151  11.679  1.00  0.00     0.091 N 
HETATM   13  H   UNL     1     -42.607 -49.408  12.160  1.00  0.00     0.316 HD
BRANCH  12  14
HETATM   14  C   UNL     1     -40.709 -49.718  11.448  1.00  0.00     0.256 C 
HETATM   15  C   UNL     1     -39.650 -50.604  12.100  1.00  0.00     0.076 C 
HETATM   16  C   UNL     1     -38.427 -49.691  12.238  1.00  0.00     0.057 C 
HETATM   17  C   UNL     1     -37.805 -49.789  13.634  1.00  0.00     0.045 C 
HETATM   18  C   UNL     1     -37.355 -50.008  11.193  1.00  0.00     0.045 C 
HETATM   19  O   UNL     1     -38.877 -48.339  12.031  1.00  0.00    -0.368 OA
HETATM   20  C   UNL     1     -40.323 -48.320  11.984  1.00  0.00     0.085 C 
HETATM   21  C   UNL     1     -40.768 -47.194  11.050  1.00  0.00     0.048 C 
HETATM   22  C   UNL     1     -40.827 -48.018  13.403  1.00  0.00     0.048 C 
ENDBRANCH  12  14
ENDBRANCH   1  12
TORSDOF 4
ENDMDL
MODEL 3
REMARK VINA RESULT:      -5.8      1.984      6.292
REMARK  4 active torsions:
REMARK  status: ('A' for Active; 'I' for Inactive)
REMARK    1  A    between atoms: C_2  and  C_3 
REMARK    2  A    between atoms: C_2  and  C_14 
REMARK    3  A    between atoms: C_3  and  N_4 
REMARK    4  A    between atoms: N_4  and  C_5 
ROOT
HETATM    1  C   UNL     1     -42.806 -49.665  12.727  1.00  0.00     0.279 C 
ENDROOT
BRANCH   1   2
HETATM    2  C   UNL     1     -41.729 -50.082  13.763  1.00  0.00     0.047 C 
HETATM    3  C   UNL     1     -41.487 -49.021  14.844  1.00  0.00     0.017 C 
BRANCH   2   4
HETATM    4  C   UNL     1     -40.437 -50.467  13.079  1.00  0.00     0.003 A 
HETATM    5  C   UNL     1     -39.583 -49.702  12.224  1.00  0.00     0.038 A 
HETATM    6  C   UNL     1     -39.691 -48.301  11.754  1.00  0.00     0.071 C 
HETATM    7  N   UNL     1     -38.536 -50.424  11.807  1.00  0.00    -0.265 N 
HETATM    8  O   UNL     1     -38.673 -51.664  12.386  1.00  0.00    -0.242 OA
ATOM      9  HN  UNL     1     -37.788 -50.118  11.184  1.00  0.00     0.194 HD
HETATM   10  C   UNL     1     -39.797 -51.691  13.146  1.00  0.00     0.081 A 
HETATM   11  C   UNL     1     -40.071 -52.964  13.840  1.00  0.00     0.079 C 
ENDBRANCH   2   4
ENDBRANCH   1   2
BRANCH   1  12
HETATM   12  N   UNL     1     -43.975 -50.561  12.669  1.00  0.00     0.091 N 
HETATM   13  H   UNL     1     -44.054 -50.957  11.732  1.00  0.00     0.316 HD
BRANCH  12  14
HETATM   14  C   UNL     1     -43.881 -51.655  13.653  1.00  0.00     0.256 C 
HETATM   15  C   UNL     1     -43.887 -53.057  13.048  1.00  0.00     0.076 C 
HETATM   16  C   UNL     1     -44.370 -53.958  14.189  1.00  0.00     0.057 C 
HETATM   17  C   UNL     1     -45.456 -54.931  13.718  1.00  0.00     0.045 C 
HETATM   18  C   UNL     1     -43.224 -54.756  14.814  1.00  0.00     0.045 C 
HETATM   19  O   UNL     1     -44.932 -53.102  15.202  1.00  0.00    -0.368 OA
HETATM   20  C   UNL     1     -45.027 -51.753  14.687  1.00  0.00     0.085 C 
HETATM   21  C   UNL     1     -44.852 -50.773  15.846  1.00  0.00     0.048 C 
HETATM   22  C   UNL     1     -46.435 -51.582  14.098  1.00  0.00     0.048 C 
ENDBRANCH  12  14
ENDBRANCH   1  12
TORSDOF 4
ENDMDL
MODEL 4
REMARK VINA RESULT:      -5.6      2.615      6.497
REMARK  4 active torsions:
REMARK  status: ('A' for Active; 'I' for Inactive)
REMARK    1  A    between atoms: C_2  and  C_3 
REMARK    2  A    between atoms: C_2  and  C_14 
REMARK    3  A    between atoms: C_3  and  N_4 
REMARK    4  A    between atoms: N_4  and  C_5 
ROOT
HETATM    1  C   UNL     1     -41.680 -50.534  15.390  1.00  0.00     0.279 C 
ENDROOT
BRANCH   1   2
HETATM    2  C   UNL     1     -40.334 -51.005  14.777  1.00  0.00     0.047 C 
HETATM    3  C   UNL     1     -39.328 -49.865  14.577  1.00  0.00     0.017 C 
BRANCH   2   4
HETATM    4  C   UNL     1     -40.560 -51.764  13.490  1.00  0.00     0.003 A 
HETATM    5  C   UNL     1     -41.112 -51.325  12.245  1.00  0.00     0.038 A 
HETATM    6  C   UNL     1     -41.620 -49.996  11.829  1.00  0.00     0.071 C 
HETATM    7  N   UNL     1     -41.157 -52.321  11.352  1.00  0.00    -0.265 N 
HETATM    8  O   UNL     1     -40.626 -53.422  11.982  1.00  0.00    -0.242 OA
ATOM      9  HN  UNL     1     -41.513 -52.273  10.397  1.00  0.00     0.194 HD
HETATM   10  C   UNL     1     -40.266 -53.094  13.249  1.00  0.00     0.081 A 
HETATM   11  C   UNL     1     -39.671 -54.182  14.048  1.00  0.00     0.079 C 
ENDBRANCH   2   4
ENDBRANCH   1   2
BRANCH   1  12
HETATM   12  N   UNL     1     -42.503 -51.616  15.958  1.00  0.00     0.091 N 
HETATM   13  H   UNL     1     -42.858 -51.330  16.870  1.00  0.00     0.316 HD
BRANCH  12  14
HETATM   14  C   UNL     1     -43.637 -51.964  15.082  1.00  0.00     0.256 C 
HETATM   15  C   UNL     1     -44.836 -51.023  15.188  1.00  0.00     0.076 C 
HETATM   16  C   UNL     1     -46.019 -51.865  14.700  1.00  0.00     0.057 C 
HETATM   17  C   UNL     1     -47.223 -51.743  15.639  1.00  0.00     0.045 C 
HETATM   18  C   UNL     1     -46.453 -51.477  13.284  1.00  0.00     0.045 C 
HETATM   19  O   UNL     1     -45.590 -53.239  14.682  1.00  0.00    -0.368 OA
HETATM   20  C   UNL     1     -44.296 -53.342  15.322  1.00  0.00     0.085 C 
HETATM   21  C   UNL     1     -43.516 -54.484  14.670  1.00  0.00     0.048 C 
HETATM   22  C   UNL     1     -44.539 -53.686  16.800  1.00  0.00     0.048 C 
ENDBRANCH  12  14
ENDBRANCH   1  12
TORSDOF 4
ENDMDL
MODEL 5
REMARK VINA RESULT:      -5.6      2.497      6.764
REMARK  4 active torsions:
REMARK  status: ('A' for Active; 'I' for Inactive)
REMARK    1  A    between atoms: C_2  and  C_3 
REMARK    2  A    between atoms: C_2  and  C_14 
REMARK    3  A    between atoms: C_3  and  N_4 
REMARK    4  A    between atoms: N_4  and  C_5 
ROOT
HETATM    1  C   UNL     1     -43.089 -49.281  12.789  1.00  0.00     0.279 C 
ENDROOT
BRANCH   1   2
HETATM    2  C   UNL     1     -42.288 -48.864  11.526  1.00  0.00     0.047 C 
HETATM    3  C   UNL     1     -40.777 -49.082  11.669  1.00  0.00     0.017 C 
BRANCH   2   4
HETATM    4  C   UNL     1     -42.598 -47.439  11.131  1.00  0.00     0.003 A 
HETATM    5  C   UNL     1     -42.486 -46.228  11.884  1.00  0.00     0.038 A 
HETATM    6  C   UNL     1     -42.024 -45.994  13.273  1.00  0.00     0.071 C 
HETATM    7  N   UNL     1     -42.884 -45.169  11.169  1.00  0.00    -0.265 N 
HETATM    8  O   UNL     1     -43.247 -45.657   9.936  1.00  0.00    -0.242 OA
ATOM      9  HN  UNL     1     -42.911 -44.196  11.476  1.00  0.00     0.194 HD
HETATM   10  C   UNL     1     -43.075 -47.002   9.908  1.00  0.00     0.081 A 
HETATM   11  C   UNL     1     -43.420 -47.666   8.637  1.00  0.00     0.079 C 
ENDBRANCH   2   4
ENDBRANCH   1   2
BRANCH   1  12
HETATM   12  N   UNL     1     -44.056 -50.369  12.565  1.00  0.00     0.091 N 
HETATM   13  H   UNL     1     -43.956 -50.723  11.614  1.00  0.00     0.316 HD
BRANCH  12  14
HETATM   14  C   UNL     1     -43.870 -51.478  13.518  1.00  0.00     0.256 C 
HETATM   15  C   UNL     1     -43.858 -52.868  12.884  1.00  0.00     0.076 C 
HETATM   16  C   UNL     1     -44.246 -53.808  14.029  1.00  0.00     0.057 C 
HETATM   17  C   UNL     1     -45.319 -54.812  13.596  1.00  0.00     0.045 C 
HETATM   18  C   UNL     1     -43.039 -54.575  14.575  1.00  0.00     0.045 C 
HETATM   19  O   UNL     1     -44.782 -52.994  15.089  1.00  0.00    -0.368 OA
HETATM   20  C   UNL     1     -44.953 -51.640  14.610  1.00  0.00     0.085 C 
HETATM   21  C   UNL     1     -44.751 -50.677  15.779  1.00  0.00     0.048 C 
HETATM   22  C   UNL     1     -46.397 -51.509  14.101  1.00  0.00     0.048 C 
ENDBRANCH  12  14
ENDBRANCH   1  12
TORSDOF 4
ENDMDL
MODEL 6
REMARK VINA RESULT:      -5.5      1.864      6.362
REMARK  4 active torsions:
REMARK  status: ('A' for Active; 'I' for Inactive)
REMARK    1  A    between atoms: C_2  and  C_3 
REMARK    2  A    between atoms: C_2  and  C_14 
REMARK    3  A    between atoms: C_3  and  N_4 
REMARK    4  A    between atoms: N_4  and  C_5 
ROOT
HETATM    1  C   UNL     1     -42.180 -50.057  14.759  1.00  0.00     0.279 C 
ENDROOT
BRANCH   1   2
HETATM    2  C   UNL     1     -40.947 -49.282  14.222  1.00  0.00     0.047 C 
HETATM    3  C   UNL     1     -40.887 -47.828  14.708  1.00  0.00     0.017 C 
BRANCH   2   4
HETATM    4  C   UNL     1     -40.873 -49.355  12.714  1.00  0.00     0.003 A 
HETATM    5  C   UNL     1     -39.879 -49.937  11.867  1.00  0.00     0.038 A 
HETATM    6  C   UNL     1     -38.625 -50.654  12.200  1.00  0.00     0.071 C 
HETATM    7  N   UNL     1     -40.181 -49.770  10.573  1.00  0.00    -0.265 N 
HETATM    8  O   UNL     1     -41.378 -49.094  10.546  1.00  0.00    -0.242 OA
ATOM      9  HN  UNL     1     -39.633 -50.082   9.771  1.00  0.00     0.194 HD
HETATM   10  C   UNL     1     -41.794 -48.851  11.814  1.00  0.00     0.081 A 
HETATM   11  C   UNL     1     -43.077 -48.133  11.940  1.00  0.00     0.079 C 
ENDBRANCH   2   4
ENDBRANCH   1   2
BRANCH   1  12
HETATM   12  N   UNL     1     -42.168 -51.500  14.464  1.00  0.00     0.091 N 
HETATM   13  H   UNL     1     -41.972 -52.020  15.319  1.00  0.00     0.316 HD
BRANCH  12  14
HETATM   14  C   UNL     1     -43.450 -51.960  13.899  1.00  0.00     0.256 C 
HETATM   15  C   UNL     1     -44.580 -50.934  13.966  1.00  0.00     0.076 C 
HETATM   16  C   UNL     1     -45.858 -51.776  13.900  1.00  0.00     0.057 C 
HETATM   17  C   UNL     1     -46.871 -51.348  14.965  1.00  0.00     0.045 C 
HETATM   18  C   UNL     1     -46.522 -51.702  12.523  1.00  0.00     0.045 C 
HETATM   19  O   UNL     1     -45.483 -53.144  14.149  1.00  0.00    -0.368 OA
HETATM   20  C   UNL     1     -44.100 -53.190  14.574  1.00  0.00     0.085 C 
HETATM   21  C   UNL     1     -43.486 -54.507  14.102  1.00  0.00     0.048 C 
HETATM   22  C   UNL     1     -44.089 -53.157  16.109  1.00  0.00     0.048 C 
ENDBRANCH  12  14
ENDBRANCH   1  12
TORSDOF 4
ENDMDL
MODEL 7
REMARK VINA RESULT:      -5.5      1.898      6.921
REMARK  4 active torsions:
REMARK  status: ('A' for Active; 'I' for Inactive)
REMARK    1  A    between atoms: C_2  and  C_3 
REMARK    2  A    between atoms: C_2  and  C_14 
REMARK    3  A    between atoms: C_3  and  N_4 
REMARK    4  A    between atoms: N_4  and  C_5 
ROOT
HETATM    1  C   UNL     1     -41.048 -51.697  14.275  1.00  0.00     0.279 C 
ENDROOT
BRANCH   1   2
HETATM    2  C   UNL     1     -41.204 -51.470  12.748  1.00  0.00     0.047 C 
HETATM    3  C   UNL     1     -40.985 -52.743  11.921  1.00  0.00     0.017 C 
BRANCH   2   4
HETATM    4  C   UNL     1     -40.307 -50.350  12.272  1.00  0.00     0.003 A 
HETATM    5  C   UNL     1     -40.628 -49.151  11.561  1.00  0.00     0.038 A 
HETATM    6  C   UNL     1     -41.931 -48.631  11.083  1.00  0.00     0.071 C 
HETATM    7  N   UNL     1     -39.533 -48.424  11.310  1.00  0.00    -0.265 N 
HETATM    8  O   UNL     1     -38.480 -49.118  11.859  1.00  0.00    -0.242 OA
ATOM      9  HN  UNL     1     -39.487 -47.535  10.811  1.00  0.00     0.194 HD
HETATM   10  C   UNL     1     -38.937 -50.259  12.435  1.00  0.00     0.081 A 
HETATM   11  C   UNL     1     -37.914 -51.107  13.075  1.00  0.00     0.079 C 
ENDBRANCH   2   4
ENDBRANCH   1   2
BRANCH   1  12
HETATM   12  N   UNL     1     -42.270 -51.441  15.057  1.00  0.00     0.091 N 
HETATM   13  H   UNL     1     -42.344 -50.443  15.254  1.00  0.00     0.316 HD
BRANCH  12  14
HETATM   14  C   UNL     1     -43.483 -51.888  14.349  1.00  0.00     0.256 C 
HETATM   15  C   UNL     1     -44.646 -50.899  14.391  1.00  0.00     0.076 C 
HETATM   16  C   UNL     1     -45.887 -51.765  14.151  1.00  0.00     0.057 C 
HETATM   17  C   UNL     1     -47.001 -51.443  15.152  1.00  0.00     0.045 C 
HETATM   18  C   UNL     1     -46.432 -51.603  12.730  1.00  0.00     0.045 C 
HETATM   19  O   UNL     1     -45.492 -53.138  14.332  1.00  0.00    -0.368 OA
HETATM   20  C   UNL     1     -44.151 -53.181  14.872  1.00  0.00     0.085 C 
HETATM   21  C   UNL     1     -43.457 -54.443  14.362  1.00  0.00     0.048 C 
HETATM   22  C   UNL     1     -44.272 -53.263  16.401  1.00  0.00     0.048 C 
ENDBRANCH  12  14
ENDBRANCH   1  12
TORSDOF 4
ENDMDL
MODEL 8
REMARK VINA RESULT:      -5.4      2.854      6.596
REMARK  4 active torsions:
REMARK  status: ('A' for Active; 'I' for Inactive)
REMARK    1  A    between atoms: C_2  and  C_3 
REMARK    2  A    between atoms: C_2  and  C_14 
REMARK    3  A    between atoms: C_3  and  N_4 
REMARK    4  A    between atoms: N_4  and  C_5 
ROOT
HETATM    1  C   UNL     1     -42.665 -50.984  13.797  1.00  0.00     0.279 C 
ENDROOT
BRANCH   1   2
HETATM    2  C   UNL     1     -41.380 -51.575  13.156  1.00  0.00     0.047 C 
HETATM    3  C   UNL     1     -41.658 -52.391  11.888  1.00  0.00     0.017 C 
BRANCH   2   4
HETATM    4  C   UNL     1     -40.593 -52.382  14.162  1.00  0.00     0.003 A 
HETATM    5  C   UNL     1     -40.954 -53.566  14.880  1.00  0.00     0.038 A 
HETATM    6  C   UNL     1     -42.200 -54.369  14.854  1.00  0.00     0.071 C 
HETATM    7  N   UNL     1     -39.971 -53.961  15.698  1.00  0.00    -0.265 N 
HETATM    8  O   UNL     1     -38.946 -53.060  15.524  1.00  0.00    -0.242 OA
ATOM      9  HN  UNL     1     -39.980 -54.766  16.324  1.00  0.00     0.194 HD
HETATM   10  C   UNL     1     -39.310 -52.126  14.610  1.00  0.00     0.081 A 
HETATM   11  C   UNL     1     -38.300 -51.092  14.314  1.00  0.00     0.079 C 
ENDBRANCH   2   4
ENDBRANCH   1   2
BRANCH   1  12
HETATM   12  N   UNL     1     -43.815 -50.892  12.881  1.00  0.00     0.091 N 
HETATM   13  H   UNL     1     -43.701 -51.565  12.124  1.00  0.00     0.316 HD
BRANCH  12  14
HETATM   14  C   UNL     1     -45.092 -51.149  13.572  1.00  0.00     0.256 C 
HETATM   15  C   UNL     1     -44.957 -51.500  15.052  1.00  0.00     0.076 C 
HETATM   16  C   UNL     1     -46.242 -52.269  15.377  1.00  0.00     0.057 C 
HETATM   17  C   UNL     1     -45.949 -53.549  16.165  1.00  0.00     0.045 C 
HETATM   18  C   UNL     1     -47.237 -51.415  16.166  1.00  0.00     0.045 C 
HETATM   19  O   UNL     1     -46.851 -52.633  14.123  1.00  0.00    -0.368 OA
HETATM   20  C   UNL     1     -45.936 -52.333  13.044  1.00  0.00     0.085 C 
HETATM   21  C   UNL     1     -46.747 -51.964  11.802  1.00  0.00     0.048 C 
HETATM   22  C   UNL     1     -45.133 -53.610  12.751  1.00  0.00     0.048 C 
ENDBRANCH  12  14
ENDBRANCH   1  12
TORSDOF 4
ENDMDL
MODEL 9
REMARK VINA RESULT:      -5.4      4.447      6.252
REMARK  4 active torsions:
REMARK  status: ('A' for Active; 'I' for Inactive)
REMARK    1  A    between atoms: C_2  and  C_3 
REMARK    2  A    between atoms: C_2  and  C_14 
REMARK    3  A    between atoms: C_3  and  N_4 
REMARK    4  A    between atoms: N_4  and  C_5 
ROOT
HETATM    1  C   UNL     1     -41.089 -45.937  12.451  1.00  0.00     0.279 C 
ENDROOT
BRANCH   1   2
HETATM    2  C   UNL     1     -41.016 -45.924  10.901  1.00  0.00     0.047 C 
HETATM    3  C   UNL     1     -39.795 -45.171  10.359  1.00  0.00     0.017 C 
BRANCH   2   4
HETATM    4  C   UNL     1     -42.297 -45.389  10.302  1.00  0.00     0.003 A 
HETATM    5  C   UNL     1     -43.258 -46.030   9.458  1.00  0.00     0.038 A 
HETATM    6  C   UNL     1     -43.304 -47.410   8.921  1.00  0.00     0.071 C 
HETATM    7  N   UNL     1     -44.251 -45.195   9.127  1.00  0.00    -0.265 N 
HETATM    8  O   UNL     1     -43.972 -44.004   9.755  1.00  0.00    -0.242 OA
ATOM      9  HN  UNL     1     -45.052 -45.401   8.531  1.00  0.00     0.194 HD
HETATM   10  C   UNL     1     -42.816 -44.117  10.456  1.00  0.00     0.081 A 
HETATM   11  C   UNL     1     -42.392 -42.910  11.192  1.00  0.00     0.079 C 
ENDBRANCH   2   4
ENDBRANCH   1   2
BRANCH   1  12
HETATM   12  N   UNL     1     -40.977 -47.277  13.055  1.00  0.00     0.091 N 
HETATM   13  H   UNL     1     -41.711 -47.879  12.684  1.00  0.00     0.316 HD
BRANCH  12  14
HETATM   14  C   UNL     1     -39.664 -47.893  12.793  1.00  0.00     0.256 C 
HETATM   15  C   UNL     1     -39.727 -49.297  12.196  1.00  0.00     0.076 C 
HETATM   16  C   UNL     1     -38.378 -49.924  12.562  1.00  0.00     0.057 C 
HETATM   17  C   UNL     1     -38.547 -51.336  13.130  1.00  0.00     0.045 C 
HETATM   18  C   UNL     1     -37.428 -49.979  11.363  1.00  0.00     0.045 C 
HETATM   19  O   UNL     1     -37.780 -49.092  13.575  1.00  0.00    -0.368 OA
HETATM   20  C   UNL     1     -38.748 -48.113  14.019  1.00  0.00     0.085 C 
HETATM   21  C   UNL     1     -38.006 -46.841  14.429  1.00  0.00     0.048 C 
HETATM   22  C   UNL     1     -39.458 -48.693  15.252  1.00  0.00     0.048 C 
ENDBRANCH  12  14
ENDBRANCH   1  12
TORSDOF 4
ENDMDL
