MODEL 1
REMARK VINA RESULT:      -6.8      0.000      0.000
REMARK  6 active torsions:
REMARK  status: ('A' for Active; 'I' for Inactive)
REMARK    1  A    between atoms: CA_2  and  C_3 
REMARK    2  A    between atoms: CA_2  and  N_5 
REMARK    3  A    between atoms: C_3  and  O_4 
REMARK       I    between atoms: N_5  and  C_8 
REMARK       I    between atoms: C_8  and  N_10 
REMARK    4  A    between atoms: N_10  and  C_11 
REMARK    5  A    between atoms: C_11  and  C_12 
REMARK    6  A    between atoms: C_15  and  N_19 
ROOT
HETATM    1  C   UNK A   0     -40.355 -51.426  12.549  1.00  0.00    -0.025 A 
HETATM    2  C   UNK A   0     -40.370 -51.545  13.933  1.00  0.00     0.014 A 
HETATM    3  C   UNK A   0     -41.151 -52.535  14.540  1.00  0.00     0.049 A 
HETATM    4  C   UNK A   0     -41.928 -53.402  13.769  1.00  0.00     0.103 A 
HETATM    5  N   UNK A   0     -41.930 -53.270  12.424  1.00  0.00    -0.352 N 
ATOM      6  HN  UNK A   0     -42.505 -53.885  11.847  1.00  0.00     0.166 HD
HETATM    7  C   UNK A   0     -41.161 -52.312  11.848  1.00  0.00     0.098 A 
ENDROOT
BRANCH   1   8
HETATM    8  C   UNK A   0     -39.505 -50.411  11.845  1.00  0.00     0.164 C 
BRANCH   8   9
HETATM    9  N   UNK A   0     -40.156 -49.809  10.704  1.00  0.00    -0.339 N 
HETATM   10  C   UNK A   0     -41.100 -48.842  10.910  1.00  0.00     0.316 C 
ATOM     11  N   ALA A   1     -41.749 -48.470   9.764  1.00  0.00    -0.337 N 
HETATM   12  O   UNK A   0     -41.358 -48.372  12.010  1.00  0.00    -0.247 OA
ATOM     13  H   ALA A   1     -41.356 -48.726   8.871  1.00  0.00     0.164 HD
HETATM   14  H   UNK A   0     -40.115 -50.270   9.810  1.00  0.00     0.164 HD
BRANCH  11  15
ATOM     15  CA  ALA A   1     -42.770 -47.422   9.766  1.00  0.00     0.105 C 
ATOM     16  CB  ALA A   1     -42.123 -46.044   9.916  1.00  0.00     0.034 C 
BRANCH  15  17
ATOM     17  C   ALA A   1     -43.628 -47.510   8.493  1.00  0.00     0.189 C 
BRANCH  17  18
ATOM     18  O   ALA A   1     -42.974 -48.268   7.472  1.00  0.00    -0.399 OA
ATOM     19  H   ALA A   1     -42.198 -48.691   7.880  1.00  0.00     0.209 HD
ENDBRANCH  17  18
ENDBRANCH  15  17
ENDBRANCH  11  15
ENDBRANCH   8   9
ENDBRANCH   1   8
BRANCH   4  20
HETATM   20  N   UNK A   0     -42.745 -54.351  14.348  1.00  0.00    -0.362 N 
HETATM   21  C   UNK A   0     -44.159 -54.524  13.991  1.00  0.00     0.156 C 
HETATM   22  C   UNK A   0     -45.078 -54.128  15.172  1.00  0.00     0.136 C 
HETATM   23  C   UNK A   0     -46.529 -54.485  14.870  1.00  0.00     0.041 C 
HETATM   24  O   UNK A   0     -44.712 -54.822  16.377  1.00  0.00    -0.378 OA
HETATM   25  C   UNK A   0     -43.354 -54.508  16.751  1.00  0.00     0.136 C 
HETATM   26  C   UNK A   0     -43.067 -55.250  18.050  1.00  0.00     0.041 C 
HETATM   27  C   UNK A   0     -42.370 -54.939  15.644  1.00  0.00     0.156 C 
ENDBRANCH   4  20
TORSDOF 6
ENDMDL
MODEL 2
REMARK VINA RESULT:      -6.4      1.991      2.743
REMARK  6 active torsions:
REMARK  status: ('A' for Active; 'I' for Inactive)
REMARK    1  A    between atoms: CA_2  and  C_3 
REMARK    2  A    between atoms: CA_2  and  N_5 
REMARK    3  A    between atoms: C_3  and  O_4 
REMARK       I    between atoms: N_5  and  C_8 
REMARK       I    between atoms: C_8  and  N_10 
REMARK    4  A    between atoms: N_10  and  C_11 
REMARK    5  A    between atoms: C_11  and  C_12 
REMARK    6  A    between atoms: C_15  and  N_19 
ROOT
HETATM    1  C   UNK A   0     -40.070 -49.250  12.372  1.00  0.00    -0.025 A 
HETATM    2  C   UNK A   0     -39.986 -49.631  13.705  1.00  0.00     0.014 A 
HETATM    3  C   UNK A   0     -40.052 -50.987  14.048  1.00  0.00     0.049 A 
HETATM    4  C   UNK A   0     -40.213 -51.964  13.064  1.00  0.00     0.103 A 
HETATM    5  N   UNK A   0     -40.318 -51.590  11.770  1.00  0.00    -0.352 N 
ATOM      6  HN  UNK A   0     -40.452 -52.291  11.041  1.00  0.00     0.166 HD
HETATM    7  C   UNK A   0     -40.243 -50.274  11.450  1.00  0.00     0.098 A 
ENDROOT
BRANCH   1   8
HETATM    8  C   UNK A   0     -39.964 -47.817  11.944  1.00  0.00     0.164 C 
BRANCH   8   9
HETATM    9  N   UNK A   0     -40.568 -47.555  10.658  1.00  0.00    -0.339 N 
HETATM   10  C   UNK A   0     -41.931 -47.507  10.560  1.00  0.00     0.316 C 
ATOM     11  N   ALA A   1     -42.375 -47.411   9.269  1.00  0.00    -0.337 N 
HETATM   12  O   UNK A   0     -42.681 -47.568  11.526  1.00  0.00    -0.247 OA
ATOM     13  H   ALA A   1     -41.725 -47.150   8.544  1.00  0.00     0.164 HD
HETATM   14  H   UNK A   0     -40.022 -47.672   9.821  1.00  0.00     0.164 HD
BRANCH  11  15
ATOM     15  CA  ALA A   1     -43.800 -47.308   8.954  1.00  0.00     0.105 C 
ATOM     16  CB  ALA A   1     -44.225 -45.843   8.858  1.00  0.00     0.034 C 
BRANCH  15  17
ATOM     17  C   ALA A   1     -44.117 -48.077   7.661  1.00  0.00     0.189 C 
BRANCH  17  18
ATOM     18  O   ALA A   1     -45.508 -48.394   7.567  1.00  0.00    -0.399 OA
ATOM     19  H   ALA A   1     -45.575 -49.289   7.191  1.00  0.00     0.209 HD
ENDBRANCH  17  18
ENDBRANCH  15  17
ENDBRANCH  11  15
ENDBRANCH   8   9
ENDBRANCH   1   8
BRANCH   4  20
HETATM   20  N   UNK A   0     -40.332 -53.301  13.384  1.00  0.00    -0.362 N 
HETATM   21  C   UNK A   0     -41.624 -53.982  13.540  1.00  0.00     0.156 C 
HETATM   22  C   UNK A   0     -41.853 -54.401  15.011  1.00  0.00     0.136 C 
HETATM   23  C   UNK A   0     -43.100 -55.268  15.139  1.00  0.00     0.041 C 
HETATM   24  O   UNK A   0     -40.747 -55.170  15.516  1.00  0.00    -0.378 OA
HETATM   25  C   UNK A   0     -39.528 -54.401  15.461  1.00  0.00     0.136 C 
HETATM   26  C   UNK A   0     -38.424 -55.272  16.047  1.00  0.00     0.041 C 
HETATM   27  C   UNK A   0     -39.198 -54.003  14.008  1.00  0.00     0.156 C 
ENDBRANCH   4  20
TORSDOF 6
ENDMDL
MODEL 3
REMARK VINA RESULT:      -6.4      3.293      8.587
REMARK  6 active torsions:
REMARK  status: ('A' for Active; 'I' for Inactive)
REMARK    1  A    between atoms: CA_2  and  C_3 
REMARK    2  A    between atoms: CA_2  and  N_5 
REMARK    3  A    between atoms: C_3  and  O_4 
REMARK       I    between atoms: N_5  and  C_8 
REMARK       I    between atoms: C_8  and  N_10 
REMARK    4  A    between atoms: N_10  and  C_11 
REMARK    5  A    between atoms: C_11  and  C_12 
REMARK    6  A    between atoms: C_15  and  N_19 
ROOT
HETATM    1  C   UNK A   0     -38.679 -48.367  13.223  1.00  0.00    -0.025 A 
HETATM    2  C   UNK A   0     -38.959 -47.093  13.701  1.00  0.00     0.014 A 
HETATM    3  C   UNK A   0     -39.622 -46.172  12.882  1.00  0.00     0.049 A 
HETATM    4  C   UNK A   0     -39.998 -46.514  11.582  1.00  0.00     0.103 A 
HETATM    5  N   UNK A   0     -39.703 -47.746  11.111  1.00  0.00    -0.352 N 
ATOM      6  HN  UNK A   0     -39.957 -48.006  10.157  1.00  0.00     0.166 HD
HETATM    7  C   UNK A   0     -39.069 -48.633  11.917  1.00  0.00     0.098 A 
ENDROOT
BRANCH   1   8
HETATM    8  C   UNK A   0     -38.007 -49.407  14.070  1.00  0.00     0.164 C 
BRANCH   8   9
HETATM    9  N   UNK A   0     -38.915 -50.410  14.575  1.00  0.00    -0.339 N 
HETATM   10  C   UNK A   0     -38.922 -51.652  14.003  1.00  0.00     0.316 C 
ATOM     11  N   ALA A   1     -39.931 -52.453  14.465  1.00  0.00    -0.337 N 
HETATM   12  O   UNK A   0     -38.122 -52.005  13.146  1.00  0.00    -0.247 OA
ATOM     13  H   ALA A   1     -40.417 -52.193  15.309  1.00  0.00     0.164 HD
HETATM   14  H   UNK A   0     -39.699 -50.129  15.142  1.00  0.00     0.164 HD
BRANCH  11  15
ATOM     15  CA  ALA A   1     -40.087 -53.833  14.004  1.00  0.00     0.105 C 
ATOM     16  CB  ALA A   1     -40.514 -54.739  15.159  1.00  0.00     0.034 C 
BRANCH  15  17
ATOM     17  C   ALA A   1     -41.083 -53.896  12.835  1.00  0.00     0.189 C 
BRANCH  17  18
ATOM     18  O   ALA A   1     -40.495 -53.426  11.620  1.00  0.00    -0.399 OA
ATOM     19  H   ALA A   1     -39.537 -53.346  11.776  1.00  0.00     0.209 HD
ENDBRANCH  17  18
ENDBRANCH  15  17
ENDBRANCH  11  15
ENDBRANCH   8   9
ENDBRANCH   1   8
BRANCH   4  20
HETATM   20  N   UNK A   0     -40.606 -45.605  10.741  1.00  0.00    -0.362 N 
HETATM   21  C   UNK A   0     -40.627 -44.159  10.994  1.00  0.00     0.156 C 
HETATM   22  C   UNK A   0     -42.064 -43.674  11.299  1.00  0.00     0.136 C 
HETATM   23  C   UNK A   0     -42.115 -42.152  11.376  1.00  0.00     0.041 C 
HETATM   24  O   UNK A   0     -42.984 -44.078  10.271  1.00  0.00    -0.378 OA
HETATM   25  C   UNK A   0     -43.019 -45.516  10.159  1.00  0.00     0.136 C 
HETATM   26  C   UNK A   0     -44.042 -45.854   9.082  1.00  0.00     0.041 C 
HETATM   27  C   UNK A   0     -41.628 -46.069   9.788  1.00  0.00     0.156 C 
ENDBRANCH   4  20
TORSDOF 6
ENDMDL
MODEL 4
REMARK VINA RESULT:      -6.2      1.353      1.514
REMARK  6 active torsions:
REMARK  status: ('A' for Active; 'I' for Inactive)
REMARK    1  A    between atoms: CA_2  and  C_3 
REMARK    2  A    between atoms: CA_2  and  N_5 
REMARK    3  A    between atoms: C_3  and  O_4 
REMARK       I    between atoms: N_5  and  C_8 
REMARK       I    between atoms: C_8  and  N_10 
REMARK    4  A    between atoms: N_10  and  C_11 
REMARK    5  A    between atoms: C_11  and  C_12 
REMARK    6  A    between atoms: C_15  and  N_19 
ROOT
HETATM    1  C   UNK A   0     -39.445 -51.240  12.753  1.00  0.00    -0.025 A 
HETATM    2  C   UNK A   0     -39.089 -51.959  13.887  1.00  0.00     0.014 A 
HETATM    3  C   UNK A   0     -39.899 -53.012  14.328  1.00  0.00     0.049 A 
HETATM    4  C   UNK A   0     -41.072 -53.343  13.647  1.00  0.00     0.103 A 
HETATM    5  N   UNK A   0     -41.429 -52.628  12.557  1.00  0.00    -0.352 N 
ATOM      6  HN  UNK A   0     -42.291 -52.847  12.058  1.00  0.00     0.166 HD
HETATM    7  C   UNK A   0     -40.630 -51.617  12.135  1.00  0.00     0.098 A 
ENDROOT
BRANCH   1   8
HETATM    8  C   UNK A   0     -38.594 -50.130  12.212  1.00  0.00     0.164 C 
BRANCH   8   9
HETATM    9  N   UNK A   0     -39.276 -49.303  11.244  1.00  0.00    -0.339 N 
HETATM   10  C   UNK A   0     -39.696 -48.056  11.613  1.00  0.00     0.316 C 
ATOM     11  N   ALA A   1     -40.463 -47.442  10.660  1.00  0.00    -0.337 N 
HETATM   12  O   UNK A   0     -39.436 -47.547  12.696  1.00  0.00    -0.247 OA
ATOM     13  H   ALA A   1     -40.465 -47.808   9.720  1.00  0.00     0.164 HD
HETATM   14  H   UNK A   0     -39.666 -49.726  10.418  1.00  0.00     0.164 HD
BRANCH  11  15
ATOM     15  CA  ALA A   1     -40.980 -46.085  10.847  1.00  0.00     0.105 C 
ATOM     16  CB  ALA A   1     -40.011 -45.057  10.263  1.00  0.00     0.034 C 
BRANCH  15  17
ATOM     17  C   ALA A   1     -42.382 -45.958  10.230  1.00  0.00     0.189 C 
BRANCH  17  18
ATOM     18  O   ALA A   1     -42.328 -45.959   8.802  1.00  0.00    -0.399 OA
ATOM     19  H   ALA A   1     -41.399 -45.814   8.549  1.00  0.00     0.209 HD
ENDBRANCH  17  18
ENDBRANCH  15  17
ENDBRANCH  11  15
ENDBRANCH   8   9
ENDBRANCH   1   8
BRANCH   4  20
HETATM   20  N   UNK A   0     -41.912 -54.343  14.093  1.00  0.00    -0.362 N 
HETATM   21  C   UNK A   0     -43.248 -54.585  13.533  1.00  0.00     0.156 C 
HETATM   22  C   UNK A   0     -44.347 -54.256  14.571  1.00  0.00     0.136 C 
HETATM   23  C   UNK A   0     -45.718 -54.683  14.058  1.00  0.00     0.041 C 
HETATM   24  O   UNK A   0     -44.123 -54.947  15.811  1.00  0.00    -0.378 OA
HETATM   25  C   UNK A   0     -42.853 -54.569  16.381  1.00  0.00     0.136 C 
HETATM   26  C   UNK A   0     -42.718 -55.313  17.703  1.00  0.00     0.041 C 
HETATM   27  C   UNK A   0     -41.697 -54.929  15.426  1.00  0.00     0.156 C 
ENDBRANCH   4  20
TORSDOF 6
ENDMDL
MODEL 5
REMARK VINA RESULT:      -6.1      2.521      3.044
REMARK  6 active torsions:
REMARK  status: ('A' for Active; 'I' for Inactive)
REMARK    1  A    between atoms: CA_2  and  C_3 
REMARK    2  A    between atoms: CA_2  and  N_5 
REMARK    3  A    between atoms: C_3  and  O_4 
REMARK       I    between atoms: N_5  and  C_8 
REMARK       I    between atoms: C_8  and  N_10 
REMARK    4  A    between atoms: N_10  and  C_11 
REMARK    5  A    between atoms: C_11  and  C_12 
REMARK    6  A    between atoms: C_15  and  N_19 
ROOT
HETATM    1  C   UNK A   0     -41.057 -50.103  12.835  1.00  0.00    -0.025 A 
HETATM    2  C   UNK A   0     -42.127 -49.332  13.272  1.00  0.00     0.014 A 
HETATM    3  C   UNK A   0     -43.387 -49.919  13.439  1.00  0.00     0.049 A 
HETATM    4  C   UNK A   0     -43.585 -51.273  13.161  1.00  0.00     0.103 A 
HETATM    5  N   UNK A   0     -42.549 -52.016  12.714  1.00  0.00    -0.352 N 
ATOM      6  HN  UNK A   0     -42.682 -53.003  12.490  1.00  0.00     0.166 HD
HETATM    7  C   UNK A   0     -41.332 -51.437  12.565  1.00  0.00     0.098 A 
ENDROOT
BRANCH   1   8
HETATM    8  C   UNK A   0     -39.678 -49.537  12.677  1.00  0.00     0.164 C 
BRANCH   8   9
HETATM    9  N   UNK A   0     -39.542 -48.667  11.532  1.00  0.00    -0.339 N 
HETATM   10  C   UNK A   0     -39.682 -47.317  11.701  1.00  0.00     0.316 C 
ATOM     11  N   ALA A   1     -39.689 -46.624  10.520  1.00  0.00    -0.337 N 
HETATM   12  O   UNK A   0     -39.813 -46.783  12.794  1.00  0.00    -0.247 OA
ATOM     13  H   ALA A   1     -39.366 -47.081   9.681  1.00  0.00     0.164 HD
HETATM   14  H   UNK A   0     -39.612 -49.053  10.605  1.00  0.00     0.164 HD
BRANCH  11  15
ATOM     15  CA  ALA A   1     -39.790 -45.165  10.488  1.00  0.00     0.105 C 
ATOM     16  CB  ALA A   1     -39.013 -44.599   9.299  1.00  0.00     0.034 C 
BRANCH  15  17
ATOM     17  C   ALA A   1     -41.266 -44.733  10.459  1.00  0.00     0.189 C 
BRANCH  17  18
ATOM     18  O   ALA A   1     -42.000 -45.445   9.460  1.00  0.00    -0.399 OA
ATOM     19  H   ALA A   1     -42.383 -44.783   8.858  1.00  0.00     0.209 HD
ENDBRANCH  17  18
ENDBRANCH  15  17
ENDBRANCH  11  15
ENDBRANCH   8   9
ENDBRANCH   1   8
BRANCH   4  20
HETATM   20  N   UNK A   0     -44.830 -51.860  13.269  1.00  0.00    -0.362 N 
HETATM   21  C   UNK A   0     -45.918 -51.301  14.081  1.00  0.00     0.156 C 
HETATM   22  C   UNK A   0     -46.231 -52.216  15.289  1.00  0.00     0.136 C 
HETATM   23  C   UNK A   0     -47.479 -51.736  16.021  1.00  0.00     0.041 C 
HETATM   24  O   UNK A   0     -46.479 -53.570  14.871  1.00  0.00    -0.378 OA
HETATM   25  C   UNK A   0     -45.325 -54.111  14.195  1.00  0.00     0.136 C 
HETATM   26  C   UNK A   0     -45.659 -55.551  13.826  1.00  0.00     0.041 C 
HETATM   27  C   UNK A   0     -44.991 -53.285  12.937  1.00  0.00     0.156 C 
ENDBRANCH   4  20
TORSDOF 6
ENDMDL
MODEL 6
REMARK VINA RESULT:      -6.0      1.882      2.798
REMARK  6 active torsions:
REMARK  status: ('A' for Active; 'I' for Inactive)
REMARK    1  A    between atoms: CA_2  and  C_3 
REMARK    2  A    between atoms: CA_2  and  N_5 
REMARK    3  A    between atoms: C_3  and  O_4 
REMARK       I    between atoms: N_5  and  C_8 
REMARK       I    between atoms: C_8  and  N_10 
REMARK    4  A    between atoms: N_10  and  C_11 
REMARK    5  A    between atoms: C_11  and  C_12 
REMARK    6  A    between atoms: C_15  and  N_19 
ROOT
HETATM    1  C   UNK A   0     -39.737 -50.819  12.753  1.00  0.00    -0.025 A 
HETATM    2  C   UNK A   0     -40.847 -51.378  12.131  1.00  0.00     0.014 A 
HETATM    3  C   UNK A   0     -41.779 -52.099  12.886  1.00  0.00     0.049 A 
HETATM    4  C   UNK A   0     -41.602 -52.275  14.259  1.00  0.00     0.103 A 
HETATM    5  N   UNK A   0     -40.509 -51.752  14.858  1.00  0.00    -0.352 N 
ATOM      6  HN  UNK A   0     -40.357 -51.886  15.858  1.00  0.00     0.166 HD
HETATM    7  C   UNK A   0     -39.619 -51.047  14.117  1.00  0.00     0.098 A 
ENDROOT
BRANCH   1   8
HETATM    8  C   UNK A   0     -38.729 -50.003  12.001  1.00  0.00     0.164 C 
BRANCH   8   9
HETATM    9  N   UNK A   0     -39.323 -49.056  11.086  1.00  0.00    -0.339 N 
HETATM   10  C   UNK A   0     -39.756 -47.851  11.565  1.00  0.00     0.316 C 
ATOM     11  N   ALA A   1     -40.439 -47.115  10.633  1.00  0.00    -0.337 N 
HETATM   12  O   UNK A   0     -39.574 -47.475  12.715  1.00  0.00    -0.247 OA
ATOM     13  H   ALA A   1     -40.373 -47.371   9.660  1.00  0.00     0.164 HD
HETATM   14  H   UNK A   0     -39.653 -49.373  10.189  1.00  0.00     0.164 HD
BRANCH  11  15
ATOM     15  CA  ALA A   1     -40.952 -45.779  10.937  1.00  0.00     0.105 C 
ATOM     16  CB  ALA A   1     -40.006 -44.706  10.396  1.00  0.00     0.034 C 
BRANCH  15  17
ATOM     17  C   ALA A   1     -42.375 -45.615  10.381  1.00  0.00     0.189 C 
BRANCH  17  18
ATOM     18  O   ALA A   1     -42.983 -44.407  10.845  1.00  0.00    -0.399 OA
ATOM     19  H   ALA A   1     -43.909 -44.616  11.062  1.00  0.00     0.209 HD
ENDBRANCH  17  18
ENDBRANCH  15  17
ENDBRANCH  11  15
ENDBRANCH   8   9
ENDBRANCH   1   8
BRANCH   4  20
HETATM   20  N   UNK A   0     -42.481 -53.026  15.013  1.00  0.00    -0.362 N 
HETATM   21  C   UNK A   0     -42.054 -53.925  16.093  1.00  0.00     0.156 C 
HETATM   22  C   UNK A   0     -42.318 -55.402  15.717  1.00  0.00     0.136 C 
HETATM   23  C   UNK A   0     -42.051 -56.319  16.906  1.00  0.00     0.041 C 
HETATM   24  O   UNK A   0     -43.685 -55.607  15.322  1.00  0.00    -0.378 OA
HETATM   25  C   UNK A   0     -44.008 -54.796  14.174  1.00  0.00     0.136 C 
HETATM   26  C   UNK A   0     -45.453 -55.104  13.802  1.00  0.00     0.041 C 
HETATM   27  C   UNK A   0     -43.832 -53.298  14.496  1.00  0.00     0.156 C 
ENDBRANCH   4  20
TORSDOF 6
ENDMDL
MODEL 7
REMARK VINA RESULT:      -5.9      4.019      9.528
REMARK  6 active torsions:
REMARK  status: ('A' for Active; 'I' for Inactive)
REMARK    1  A    between atoms: CA_2  and  C_3 
REMARK    2  A    between atoms: CA_2  and  N_5 
REMARK    3  A    between atoms: C_3  and  O_4 
REMARK       I    between atoms: N_5  and  C_8 
REMARK       I    between atoms: C_8  and  N_10 
REMARK    4  A    between atoms: N_10  and  C_11 
REMARK    5  A    between atoms: C_11  and  C_12 
REMARK    6  A    between atoms: C_15  and  N_19 
ROOT
HETATM    1  C   UNK A   0     -41.855 -47.679  11.785  1.00  0.00    -0.025 A 
HETATM    2  C   UNK A   0     -40.713 -47.104  11.243  1.00  0.00     0.014 A 
HETATM    3  C   UNK A   0     -40.642 -45.715  11.081  1.00  0.00     0.049 A 
HETATM    4  C   UNK A   0     -41.712 -44.899  11.449  1.00  0.00     0.103 A 
HETATM    5  N   UNK A   0     -42.832 -45.463  11.955  1.00  0.00    -0.352 N 
ATOM      6  HN  UNK A   0     -43.629 -44.881  12.213  1.00  0.00     0.166 HD
HETATM    7  C   UNK A   0     -42.884 -46.808  12.115  1.00  0.00     0.098 A 
ENDROOT
BRANCH   1   8
HETATM    8  C   UNK A   0     -41.970 -49.156  12.018  1.00  0.00     0.164 C 
BRANCH   8   9
HETATM    9  N   UNK A   0     -43.334 -49.613  12.152  1.00  0.00    -0.339 N 
HETATM   10  C   UNK A   0     -43.637 -50.526  13.123  1.00  0.00     0.316 C 
ATOM     11  N   ALA A   1     -44.922 -50.992  13.042  1.00  0.00    -0.337 N 
HETATM   12  O   UNK A   0     -42.836 -50.910  13.965  1.00  0.00    -0.247 OA
ATOM     13  H   ALA A   1     -45.591 -50.493  12.476  1.00  0.00     0.164 HD
HETATM   14  H   UNK A   0     -43.981 -49.473  11.394  1.00  0.00     0.164 HD
BRANCH  11  15
ATOM     15  CA  ALA A   1     -45.454 -51.949  14.013  1.00  0.00     0.105 C 
ATOM     16  CB  ALA A   1     -46.666 -51.361  14.737  1.00  0.00     0.034 C 
BRANCH  15  17
ATOM     17  C   ALA A   1     -45.796 -53.278  13.319  1.00  0.00     0.189 C 
BRANCH  17  18
ATOM     18  O   ALA A   1     -46.226 -53.070  11.972  1.00  0.00    -0.399 OA
ATOM     19  H   ALA A   1     -45.487 -53.324  11.391  1.00  0.00     0.209 HD
ENDBRANCH  17  18
ENDBRANCH  15  17
ENDBRANCH  11  15
ENDBRANCH   8   9
ENDBRANCH   1   8
BRANCH   4  20
HETATM   20  N   UNK A   0     -41.684 -43.533  11.251  1.00  0.00    -0.362 N 
HETATM   21  C   UNK A   0     -40.535 -42.690  11.606  1.00  0.00     0.156 C 
HETATM   22  C   UNK A   0     -40.889 -41.738  12.773  1.00  0.00     0.136 C 
HETATM   23  C   UNK A   0     -39.764 -40.738  13.015  1.00  0.00     0.041 C 
HETATM   24  O   UNK A   0     -42.078 -40.980  12.490  1.00  0.00    -0.378 OA
HETATM   25  C   UNK A   0     -43.202 -41.859  12.282  1.00  0.00     0.136 C 
HETATM   26  C   UNK A   0     -44.418 -40.976  12.030  1.00  0.00     0.041 C 
HETATM   27  C   UNK A   0     -42.948 -42.797  11.085  1.00  0.00     0.156 C 
ENDBRANCH   4  20
TORSDOF 6
ENDMDL
MODEL 8
REMARK VINA RESULT:      -5.7      2.345      2.865
REMARK  6 active torsions:
REMARK  status: ('A' for Active; 'I' for Inactive)
REMARK    1  A    between atoms: CA_2  and  C_3 
REMARK    2  A    between atoms: CA_2  and  N_5 
REMARK    3  A    between atoms: C_3  and  O_4 
REMARK       I    between atoms: N_5  and  C_8 
REMARK       I    between atoms: C_8  and  N_10 
REMARK    4  A    between atoms: N_10  and  C_11 
REMARK    5  A    between atoms: C_11  and  C_12 
REMARK    6  A    between atoms: C_15  and  N_19 
ROOT
HETATM    1  C   UNK A   0     -40.251 -50.029  12.331  1.00  0.00    -0.025 A 
HETATM    2  C   UNK A   0     -41.620 -50.179  12.154  1.00  0.00     0.014 A 
HETATM    3  C   UNK A   0     -42.237 -51.392  12.483  1.00  0.00     0.049 A 
HETATM    4  C   UNK A   0     -41.488 -52.461  12.978  1.00  0.00     0.103 A 
HETATM    5  N   UNK A   0     -40.152 -52.321  13.127  1.00  0.00    -0.352 N 
ATOM      6  HN  UNK A   0     -39.589 -53.099  13.472  1.00  0.00     0.166 HD
HETATM    7  C   UNK A   0     -39.569 -51.138  12.814  1.00  0.00     0.098 A 
ENDROOT
BRANCH   1   8
HETATM    8  C   UNK A   0     -39.545 -48.740  12.034  1.00  0.00     0.164 C 
BRANCH   8   9
HETATM    9  N   UNK A   0     -40.170 -47.589  12.643  1.00  0.00    -0.339 N 
HETATM   10  C   UNK A   0     -40.632 -46.581  11.843  1.00  0.00     0.316 C 
ATOM     11  N   ALA A   1     -41.055 -45.486  12.548  1.00  0.00    -0.337 N 
HETATM   12  O   UNK A   0     -40.646 -46.640  10.621  1.00  0.00    -0.247 OA
ATOM     13  H   ALA A   1     -41.221 -45.573  13.538  1.00  0.00     0.164 HD
HETATM   14  H   UNK A   0     -40.028 -47.409  13.624  1.00  0.00     0.164 HD
BRANCH  11  15
ATOM     15  CA  ALA A   1     -41.621 -44.315  11.877  1.00  0.00     0.105 C 
ATOM     16  CB  ALA A   1     -42.638 -43.618  12.782  1.00  0.00     0.034 C 
BRANCH  15  17
ATOM     17  C   ALA A   1     -40.500 -43.356  11.441  1.00  0.00     0.189 C 
BRANCH  17  18
ATOM     18  O   ALA A   1     -40.133 -43.568  10.076  1.00  0.00    -0.399 OA
ATOM     19  H   ALA A   1     -40.299 -44.506   9.875  1.00  0.00     0.209 HD
ENDBRANCH  17  18
ENDBRANCH  15  17
ENDBRANCH  11  15
ENDBRANCH   8   9
ENDBRANCH   1   8
BRANCH   4  20
HETATM   20  N   UNK A   0     -42.067 -53.682  13.260  1.00  0.00    -0.362 N 
HETATM   21  C   UNK A   0     -43.469 -53.999  12.962  1.00  0.00     0.156 C 
HETATM   22  C   UNK A   0     -44.282 -54.179  14.266  1.00  0.00     0.136 C 
HETATM   23  C   UNK A   0     -45.686 -54.690  13.961  1.00  0.00     0.041 C 
HETATM   24  O   UNK A   0     -43.663 -55.136  15.142  1.00  0.00    -0.378 OA
HETATM   25  C   UNK A   0     -42.335 -54.706  15.507  1.00  0.00     0.136 C 
HETATM   26  C   UNK A   0     -41.774 -55.752  16.462  1.00  0.00     0.041 C 
HETATM   27  C   UNK A   0     -41.443 -54.568  14.257  1.00  0.00     0.156 C 
ENDBRANCH   4  20
TORSDOF 6
ENDMDL
MODEL 9
REMARK VINA RESULT:      -5.6      5.939     10.815
REMARK  6 active torsions:
REMARK  status: ('A' for Active; 'I' for Inactive)
REMARK    1  A    between atoms: CA_2  and  C_3 
REMARK    2  A    between atoms: CA_2  and  N_5 
REMARK    3  A    between atoms: C_3  and  O_4 
REMARK       I    between atoms: N_5  and  C_8 
REMARK       I    between atoms: C_8  and  N_10 
REMARK    4  A    between atoms: N_10  and  C_11 
REMARK    5  A    between atoms: C_11  and  C_12 
REMARK    6  A    between atoms: C_15  and  N_19 
ROOT
HETATM    1  C   UNK A   0     -47.679 -51.965  18.643  1.00  0.00    -0.025 A 
HETATM    2  C   UNK A   0     -48.219 -51.166  17.643  1.00  0.00     0.014 A 
HETATM    3  C   UNK A   0     -47.612 -51.123  16.382  1.00  0.00     0.049 A 
HETATM    4  C   UNK A   0     -46.460 -51.868  16.119  1.00  0.00     0.103 A 
HETATM    5  N   UNK A   0     -45.924 -52.626  17.101  1.00  0.00    -0.352 N 
ATOM      6  HN  UNK A   0     -45.073 -53.162  16.929  1.00  0.00     0.166 HD
HETATM    7  C   UNK A   0     -46.527 -52.666  18.315  1.00  0.00     0.098 A 
ENDROOT
BRANCH   1   8
HETATM    8  C   UNK A   0     -48.311 -52.081  19.998  1.00  0.00     0.164 C 
BRANCH   8   9
HETATM    9  N   UNK A   0     -48.735 -53.423  20.322  1.00  0.00    -0.339 N 
HETATM   10  C   UNK A   0     -50.063 -53.738  20.246  1.00  0.00     0.316 C 
ATOM     11  N   ALA A   1     -50.349 -54.987  20.729  1.00  0.00    -0.337 N 
HETATM   12  O   UNK A   0     -50.916 -52.973  19.815  1.00  0.00    -0.247 OA
ATOM     13  H   ALA A   1     -49.597 -55.644  20.868  1.00  0.00     0.164 HD
HETATM   14  H   UNK A   0     -48.119 -54.026  20.843  1.00  0.00     0.164 HD
BRANCH  11  15
ATOM     15  CA  ALA A   1     -51.709 -55.527  20.701  1.00  0.00     0.105 C 
ATOM     16  CB  ALA A   1     -51.685 -57.025  20.399  1.00  0.00     0.034 C 
BRANCH  15  17
ATOM     17  C   ALA A   1     -52.429 -55.227  22.026  1.00  0.00     0.189 C 
BRANCH  17  18
ATOM     18  O   ALA A   1     -53.837 -55.075  21.834  1.00  0.00    -0.399 OA
ATOM     19  H   ALA A   1     -54.069 -54.171  22.112  1.00  0.00     0.209 HD
ENDBRANCH  17  18
ENDBRANCH  15  17
ENDBRANCH  11  15
ENDBRANCH   8   9
ENDBRANCH   1   8
BRANCH   4  20
HETATM   20  N   UNK A   0     -45.816 -51.800  14.900  1.00  0.00    -0.362 N 
HETATM   21  C   UNK A   0     -46.437 -51.249  13.689  1.00  0.00     0.156 C 
HETATM   22  C   UNK A   0     -46.671 -52.359  12.636  1.00  0.00     0.136 C 
HETATM   23  C   UNK A   0     -47.138 -51.759  11.314  1.00  0.00     0.041 C 
HETATM   24  O   UNK A   0     -45.462 -53.089  12.367  1.00  0.00    -0.378 OA
HETATM   25  C   UNK A   0     -44.971 -53.719  13.568  1.00  0.00     0.136 C 
HETATM   26  C   UNK A   0     -43.720 -54.498  13.184  1.00  0.00     0.041 C 
HETATM   27  C   UNK A   0     -44.652 -52.663  14.646  1.00  0.00     0.156 C 
ENDBRANCH   4  20
TORSDOF 6
ENDMDL
