MODEL 1
REMARK VINA RESULT:      -6.8      0.000      0.000
REMARK  6 active torsions:
REMARK  status: ('A' for Active; 'I' for Inactive)
REMARK    1  A    between atoms: O_2  and  C_3 
REMARK    2  A    between atoms: C_3  and  C_4 
REMARK    3  A    between atoms: C_4  and  N_5 
REMARK    4  A    between atoms: C_8  and  C_13 
REMARK       I    between atoms: C_13  and  N_15 
REMARK    5  A    between atoms: N_15  and  C_16 
REMARK    6  A    between atoms: C_16  and  C_22 
ROOT
HETATM    1  C   UNL     1     -42.882 -49.794  12.780  1.00  0.00     0.270 C 
HETATM    2  O   UNL     1     -41.960 -50.051  13.540  1.00  0.00    -0.266 OA
HETATM    3  N   UNL     1     -43.978 -50.610  12.592  1.00  0.00    -0.338 N 
HETATM    4  H   UNL     1     -44.567 -50.392  11.792  1.00  0.00     0.164 HD
ENDROOT
BRANCH   1   5
HETATM    5  C   UNL     1     -42.881 -48.471  12.012  1.00  0.00     0.116 A 
HETATM    6  N   UNL     1     -43.142 -48.445  10.738  1.00  0.00    -0.290 N 
HETATM    7  N   UNL     1     -43.086 -47.189  10.120  1.00  0.00    -0.255 N 
ATOM      8  HN  UNL     1     -43.374 -49.291  10.219  1.00  0.00     0.187 HD
HETATM    9  C   UNL     1     -42.704 -46.014  10.768  1.00  0.00     0.262 A 
HETATM   10  C   UNL     1     -42.481 -46.117  12.221  1.00  0.00     0.078 A 
HETATM   11  O   UNL     1     -42.544 -44.920  10.233  1.00  0.00    -0.267 OA
HETATM   12  C   UNL     1     -42.569 -47.292  12.842  1.00  0.00     0.042 A 
BRANCH   7  13
HETATM   13  C   UNL     1     -43.367 -47.130   8.685  1.00  0.00     0.178 C 
BRANCH  13  14
HETATM   14  C   UNL     1     -44.691 -47.792   8.301  1.00  0.00     0.189 C 
BRANCH  14  15
HETATM   15  O   UNL     1     -45.597 -47.798   9.408  1.00  0.00    -0.394 OA
HETATM   16  C   UNL     1     -46.803 -47.115   9.095  1.00  0.00     0.201 C 
ENDBRANCH  14  15
ENDBRANCH  13  14
ENDBRANCH   7  13
ENDBRANCH   1   5
BRANCH   3  17
HETATM   17  C   UNL     1     -44.104 -51.926  13.296  1.00  0.00     0.131 C 
HETATM   18  C   UNL     1     -45.533 -52.477  13.044  1.00  0.00     0.040 C 
HETATM   19  C   UNL     1     -46.639 -51.599  13.638  1.00  0.00     0.003 C 
HETATM   20  C   UNL     1     -46.426 -51.320  15.123  1.00  0.00     0.000 C 
HETATM   21  C   UNL     1     -45.024 -50.799  15.413  1.00  0.00     0.003 C 
HETATM   22  C   UNL     1     -43.959 -51.730  14.833  1.00  0.00     0.040 C 
BRANCH  17  23
HETATM   23  C   UNL     1     -43.044 -52.987  12.806  1.00  0.00     0.412 C 
HETATM   24  F   UNL     1     -42.481 -52.633  11.625  1.00  0.00    -0.168 F 
HETATM   25  F   UNL     1     -42.044 -53.175  13.695  1.00  0.00    -0.168 F 
HETATM   26  F   UNL     1     -43.615 -54.201  12.600  1.00  0.00    -0.168 F 
ENDBRANCH  17  23
ENDBRANCH   3  17
TORSDOF 6
ENDMDL
MODEL 2
REMARK VINA RESULT:      -6.2      1.158      1.444
REMARK  6 active torsions:
REMARK  status: ('A' for Active; 'I' for Inactive)
REMARK    1  A    between atoms: O_2  and  C_3 
REMARK    2  A    between atoms: C_3  and  C_4 
REMARK    3  A    between atoms: C_4  and  N_5 
REMARK    4  A    between atoms: C_8  and  C_13 
REMARK       I    between atoms: C_13  and  N_15 
REMARK    5  A    between atoms: N_15  and  C_16 
REMARK    6  A    between atoms: C_16  and  C_22 
ROOT
HETATM    1  C   UNL     1     -42.463 -50.445  13.063  1.00  0.00     0.270 C 
HETATM    2  O   UNL     1     -41.780 -50.838  13.995  1.00  0.00    -0.266 OA
HETATM    3  N   UNL     1     -43.611 -51.074  12.627  1.00  0.00    -0.338 N 
HETATM    4  H   UNL     1     -43.972 -50.776  11.725  1.00  0.00     0.164 HD
ENDROOT
BRANCH   1   5
HETATM    5  C   UNL     1     -42.083 -49.151  12.340  1.00  0.00     0.116 A 
HETATM    6  N   UNL     1     -42.872 -48.638  11.442  1.00  0.00    -0.290 N 
HETATM    7  N   UNL     1     -42.420 -47.470  10.815  1.00  0.00    -0.255 N 
ATOM      8  HN  UNL     1     -43.770 -49.063  11.209  1.00  0.00     0.187 HD
HETATM    9  C   UNL     1     -41.173 -46.890  11.046  1.00  0.00     0.262 A 
HETATM   10  C   UNL     1     -40.362 -47.498  12.116  1.00  0.00     0.078 A 
HETATM   11  O   UNL     1     -40.706 -45.929  10.439  1.00  0.00    -0.267 OA
HETATM   12  C   UNL     1     -40.787 -48.585  12.758  1.00  0.00     0.042 A 
BRANCH   7  13
HETATM   13  C   UNL     1     -43.285 -46.874   9.796  1.00  0.00     0.178 C 
BRANCH  13  14
HETATM   14  C   UNL     1     -43.411 -47.728   8.534  1.00  0.00     0.189 C 
BRANCH  14  15
HETATM   15  O   UNL     1     -44.784 -47.894   8.166  1.00  0.00    -0.394 OA
HETATM   16  C   UNL     1     -45.654 -47.470   9.206  1.00  0.00     0.201 C 
ENDBRANCH  14  15
ENDBRANCH  13  14
ENDBRANCH   7  13
ENDBRANCH   1   5
BRANCH   3  17
HETATM   17  C   UNL     1     -44.097 -52.341  13.262  1.00  0.00     0.131 C 
HETATM   18  C   UNL     1     -45.478 -52.694  12.646  1.00  0.00     0.040 C 
HETATM   19  C   UNL     1     -46.563 -51.656  12.946  1.00  0.00     0.003 C 
HETATM   20  C   UNL     1     -46.699 -51.371  14.439  1.00  0.00     0.000 C 
HETATM   21  C   UNL     1     -45.359 -51.043  15.084  1.00  0.00     0.003 C 
HETATM   22  C   UNL     1     -44.323 -52.128  14.786  1.00  0.00     0.040 C 
BRANCH  17  23
HETATM   23  C   UNL     1     -43.108 -53.551  13.048  1.00  0.00     0.412 C 
HETATM   24  F   UNL     1     -42.421 -53.852  14.177  1.00  0.00    -0.168 F 
HETATM   25  F   UNL     1     -43.740 -54.676  12.643  1.00  0.00    -0.168 F 
HETATM   26  F   UNL     1     -42.173 -53.270  12.106  1.00  0.00    -0.168 F 
ENDBRANCH  17  23
ENDBRANCH   3  17
TORSDOF 6
ENDMDL
MODEL 3
REMARK VINA RESULT:      -6.0      2.347      3.137
REMARK  6 active torsions:
REMARK  status: ('A' for Active; 'I' for Inactive)
REMARK    1  A    between atoms: O_2  and  C_3 
REMARK    2  A    between atoms: C_3  and  C_4 
REMARK    3  A    between atoms: C_4  and  N_5 
REMARK    4  A    between atoms: C_8  and  C_13 
REMARK       I    between atoms: C_13  and  N_15 
REMARK    5  A    between atoms: N_15  and  C_16 
REMARK    6  A    between atoms: C_16  and  C_22 
ROOT
HETATM    1  C   UNL     1     -42.879 -52.269  12.749  1.00  0.00     0.270 C 
HETATM    2  O   UNL     1     -43.213 -53.083  11.901  1.00  0.00    -0.266 OA
HETATM    3  N   UNL     1     -43.397 -52.228  14.027  1.00  0.00    -0.338 N 
HETATM    4  H   UNL     1     -43.196 -51.390  14.566  1.00  0.00     0.164 HD
ENDROOT
BRANCH   1   5
HETATM    5  C   UNL     1     -41.784 -51.250  12.428  1.00  0.00     0.116 A 
HETATM    6  N   UNL     1     -42.065 -50.163  11.770  1.00  0.00    -0.290 N 
HETATM    7  N   UNL     1     -40.988 -49.308  11.500  1.00  0.00    -0.255 N 
ATOM      8  HN  UNL     1     -43.015 -49.945  11.470  1.00  0.00     0.187 HD
HETATM    9  C   UNL     1     -39.662 -49.592  11.825  1.00  0.00     0.262 A 
HETATM   10  C   UNL     1     -39.435 -50.814  12.618  1.00  0.00     0.078 A 
HETATM   11  O   UNL     1     -38.686 -48.916  11.510  1.00  0.00    -0.267 OA
HETATM   12  C   UNL     1     -40.447 -51.623  12.926  1.00  0.00     0.042 A 
BRANCH   7  13
HETATM   13  C   UNL     1     -41.273 -48.081  10.755  1.00  0.00     0.178 C 
BRANCH  13  14
HETATM   14  C   UNL     1     -42.758 -47.893  10.442  1.00  0.00     0.189 C 
BRANCH  14  15
HETATM   15  O   UNL     1     -42.974 -47.818   9.030  1.00  0.00    -0.394 OA
HETATM   16  C   UNL     1     -44.320 -47.475   8.729  1.00  0.00     0.201 C 
ENDBRANCH  14  15
ENDBRANCH  13  14
ENDBRANCH   7  13
ENDBRANCH   1   5
BRANCH   3  17
HETATM   17  C   UNL     1     -44.464 -53.182  14.469  1.00  0.00     0.131 C 
HETATM   18  C   UNL     1     -45.562 -53.225  13.372  1.00  0.00     0.040 C 
HETATM   19  C   UNL     1     -46.281 -51.887  13.177  1.00  0.00     0.003 C 
HETATM   20  C   UNL     1     -46.846 -51.333  14.481  1.00  0.00     0.000 C 
HETATM   21  C   UNL     1     -45.801 -51.298  15.589  1.00  0.00     0.003 C 
HETATM   22  C   UNL     1     -45.143 -52.666  15.770  1.00  0.00     0.040 C 
BRANCH  17  23
HETATM   23  C   UNL     1     -43.917 -54.642  14.713  1.00  0.00     0.412 C 
HETATM   24  F   UNL     1     -42.663 -54.803  14.225  1.00  0.00    -0.168 F 
HETATM   25  F   UNL     1     -43.891 -54.977  16.022  1.00  0.00    -0.168 F 
HETATM   26  F   UNL     1     -44.684 -55.571  14.089  1.00  0.00    -0.168 F 
ENDBRANCH  17  23
ENDBRANCH   3  17
TORSDOF 6
ENDMDL
MODEL 4
REMARK VINA RESULT:      -5.9      2.059      2.872
REMARK  6 active torsions:
REMARK  status: ('A' for Active; 'I' for Inactive)
REMARK    1  A    between atoms: O_2  and  C_3 
REMARK    2  A    between atoms: C_3  and  C_4 
REMARK    3  A    between atoms: C_4  and  N_5 
REMARK    4  A    between atoms: C_8  and  C_13 
REMARK       I    between atoms: C_13  and  N_15 
REMARK    5  A    between atoms: N_15  and  C_16 
REMARK    6  A    between atoms: C_16  and  C_22 
ROOT
HETATM    1  C   UNL     1     -43.639 -49.994  13.536  1.00  0.00     0.270 C 
HETATM    2  O   UNL     1     -43.967 -49.712  14.678  1.00  0.00    -0.266 OA
HETATM    3  N   UNL     1     -43.988 -51.167  12.899  1.00  0.00    -0.338 N 
HETATM    4  H   UNL     1     -43.489 -51.376  12.038  1.00  0.00     0.164 HD
ENDROOT
BRANCH   1   5
HETATM    5  C   UNL     1     -42.836 -48.987  12.709  1.00  0.00     0.116 A 
HETATM    6  N   UNL     1     -43.403 -48.316  11.751  1.00  0.00    -0.290 N 
HETATM    7  N   UNL     1     -42.574 -47.443  11.033  1.00  0.00    -0.255 N 
ATOM      8  HN  UNL     1     -44.394 -48.419  11.534  1.00  0.00     0.187 HD
HETATM    9  C   UNL     1     -41.201 -47.318  11.242  1.00  0.00     0.262 A 
HETATM   10  C   UNL     1     -40.646 -48.069  12.381  1.00  0.00     0.078 A 
HETATM   11  O   UNL     1     -40.432 -46.642  10.563  1.00  0.00    -0.267 OA
HETATM   12  C   UNL     1     -41.420 -48.874  13.107  1.00  0.00     0.042 A 
BRANCH   7  13
HETATM   13  C   UNL     1     -43.184 -46.679   9.943  1.00  0.00     0.178 C 
BRANCH  13  14
HETATM   14  C   UNL     1     -44.158 -47.500   9.099  1.00  0.00     0.189 C 
BRANCH  14  15
HETATM   15  O   UNL     1     -45.479 -47.445   9.647  1.00  0.00    -0.394 OA
HETATM   16  C   UNL     1     -46.404 -48.166   8.845  1.00  0.00     0.201 C 
ENDBRANCH  14  15
ENDBRANCH  13  14
ENDBRANCH   7  13
ENDBRANCH   1   5
BRANCH   3  17
HETATM   17  C   UNL     1     -44.786 -52.227  13.595  1.00  0.00     0.131 C 
HETATM   18  C   UNL     1     -44.199 -52.419  15.020  1.00  0.00     0.040 C 
HETATM   19  C   UNL     1     -42.759 -52.940  15.022  1.00  0.00     0.003 C 
HETATM   20  C   UNL     1     -42.600 -54.215  14.199  1.00  0.00     0.000 C 
HETATM   21  C   UNL     1     -43.185 -54.071  12.801  1.00  0.00     0.003 C 
HETATM   22  C   UNL     1     -44.634 -53.588  12.856  1.00  0.00     0.040 C 
BRANCH  17  23
HETATM   23  C   UNL     1     -46.317 -51.865  13.709  1.00  0.00     0.412 C 
HETATM   24  F   UNL     1     -46.769 -51.217  12.608  1.00  0.00    -0.168 F 
HETATM   25  F   UNL     1     -47.098 -52.953  13.891  1.00  0.00    -0.168 F 
HETATM   26  F   UNL     1     -46.556 -51.035  14.755  1.00  0.00    -0.168 F 
ENDBRANCH  17  23
ENDBRANCH   3  17
TORSDOF 6
ENDMDL
MODEL 5
REMARK VINA RESULT:      -5.9      2.797      4.216
REMARK  6 active torsions:
REMARK  status: ('A' for Active; 'I' for Inactive)
REMARK    1  A    between atoms: O_2  and  C_3 
REMARK    2  A    between atoms: C_3  and  C_4 
REMARK    3  A    between atoms: C_4  and  N_5 
REMARK    4  A    between atoms: C_8  and  C_13 
REMARK       I    between atoms: C_13  and  N_15 
REMARK    5  A    between atoms: N_15  and  C_16 
REMARK    6  A    between atoms: C_16  and  C_22 
ROOT
HETATM    1  C   UNL     1     -42.747 -51.839  13.603  1.00  0.00     0.270 C 
HETATM    2  O   UNL     1     -42.122 -52.561  14.364  1.00  0.00    -0.266 OA
HETATM    3  N   UNL     1     -44.105 -51.942  13.381  1.00  0.00    -0.338 N 
HETATM    4  H   UNL     1     -44.469 -51.431  12.582  1.00  0.00     0.164 HD
ENDROOT
BRANCH   1   5
HETATM    5  C   UNL     1     -42.025 -50.706  12.871  1.00  0.00     0.116 A 
HETATM    6  N   UNL     1     -40.772 -50.824  12.542  1.00  0.00    -0.290 N 
HETATM    7  N   UNL     1     -40.193 -49.720  11.903  1.00  0.00    -0.255 N 
ATOM      8  HN  UNL     1     -40.241 -51.673  12.738  1.00  0.00     0.187 HD
HETATM    9  C   UNL     1     -40.853 -48.512  11.676  1.00  0.00     0.262 A 
HETATM   10  C   UNL     1     -42.285 -48.478  12.026  1.00  0.00     0.078 A 
HETATM   11  O   UNL     1     -40.345 -47.493  11.215  1.00  0.00    -0.267 OA
HETATM   12  C   UNL     1     -42.871 -49.530  12.596  1.00  0.00     0.042 A 
BRANCH   7  13
HETATM   13  C   UNL     1     -38.782 -49.821  11.527  1.00  0.00     0.178 C 
BRANCH  13  14
HETATM   14  C   UNL     1     -37.855 -50.072  12.717  1.00  0.00     0.189 C 
BRANCH  14  15
HETATM   15  O   UNL     1     -38.358 -49.435  13.896  1.00  0.00    -0.394 OA
HETATM   16  C   UNL     1     -37.692 -48.204  14.145  1.00  0.00     0.201 C 
ENDBRANCH  14  15
ENDBRANCH  13  14
ENDBRANCH   7  13
ENDBRANCH   1   5
BRANCH   3  17
HETATM   17  C   UNL     1     -44.928 -53.001  14.049  1.00  0.00     0.131 C 
HETATM   18  C   UNL     1     -46.427 -52.679  13.800  1.00  0.00     0.040 C 
HETATM   19  C   UNL     1     -46.881 -51.362  14.436  1.00  0.00     0.003 C 
HETATM   20  C   UNL     1     -46.557 -51.290  15.925  1.00  0.00     0.000 C 
HETATM   21  C   UNL     1     -45.098 -51.623  16.210  1.00  0.00     0.003 C 
HETATM   22  C   UNL     1     -44.707 -52.964  15.589  1.00  0.00     0.040 C 
BRANCH  17  23
HETATM   23  C   UNL     1     -44.613 -54.450  13.513  1.00  0.00     0.412 C 
HETATM   24  F   UNL     1     -43.678 -55.079  14.268  1.00  0.00    -0.168 F 
HETATM   25  F   UNL     1     -45.707 -55.242  13.476  1.00  0.00    -0.168 F 
HETATM   26  F   UNL     1     -44.114 -54.417  12.252  1.00  0.00    -0.168 F 
ENDBRANCH  17  23
ENDBRANCH   3  17
TORSDOF 6
ENDMDL
MODEL 6
REMARK VINA RESULT:      -5.6      2.750      3.925
REMARK  6 active torsions:
REMARK  status: ('A' for Active; 'I' for Inactive)
REMARK    1  A    between atoms: O_2  and  C_3 
REMARK    2  A    between atoms: C_3  and  C_4 
REMARK    3  A    between atoms: C_4  and  N_5 
REMARK    4  A    between atoms: C_8  and  C_13 
REMARK       I    between atoms: C_13  and  N_15 
REMARK    5  A    between atoms: N_15  and  C_16 
REMARK    6  A    between atoms: C_16  and  C_22 
ROOT
HETATM    1  C   UNL     1     -43.160 -52.207  12.899  1.00  0.00     0.270 C 
HETATM    2  O   UNL     1     -43.635 -52.974  12.076  1.00  0.00    -0.266 OA
HETATM    3  N   UNL     1     -43.583 -52.123  14.210  1.00  0.00    -0.338 N 
HETATM    4  H   UNL     1     -43.260 -51.314  14.735  1.00  0.00     0.164 HD
ENDROOT
BRANCH   1   5
HETATM    5  C   UNL     1     -41.989 -51.305  12.506  1.00  0.00     0.116 A 
HETATM    6  N   UNL     1     -42.195 -50.203  11.848  1.00  0.00    -0.290 N 
HETATM    7  N   UNL     1     -41.055 -49.463  11.507  1.00  0.00    -0.255 N 
ATOM      8  HN  UNL     1     -43.133 -49.894  11.594  1.00  0.00     0.187 HD
HETATM    9  C   UNL     1     -39.748 -49.875  11.767  1.00  0.00     0.262 A 
HETATM   10  C   UNL     1     -39.601 -51.105  12.565  1.00  0.00     0.078 A 
HETATM   11  O   UNL     1     -38.728 -49.303  11.391  1.00  0.00    -0.267 OA
HETATM   12  C   UNL     1     -40.670 -51.806  12.938  1.00  0.00     0.042 A 
BRANCH   7  13
HETATM   13  C   UNL     1     -41.256 -48.220  10.760  1.00  0.00     0.178 C 
BRANCH  13  14
HETATM   14  C   UNL     1     -42.720 -47.958  10.405  1.00  0.00     0.189 C 
BRANCH  14  15
HETATM   15  O   UNL     1     -42.820 -47.052   9.301  1.00  0.00    -0.394 OA
HETATM   16  C   UNL     1     -43.994 -47.295   8.537  1.00  0.00     0.201 C 
ENDBRANCH  14  15
ENDBRANCH  13  14
ENDBRANCH   7  13
ENDBRANCH   1   5
BRANCH   3  17
HETATM   17  C   UNL     1     -44.713 -52.963  14.723  1.00  0.00     0.131 C 
HETATM   18  C   UNL     1     -44.730 -52.860  16.272  1.00  0.00     0.040 C 
HETATM   19  C   UNL     1     -43.474 -53.433  16.935  1.00  0.00     0.003 C 
HETATM   20  C   UNL     1     -43.185 -54.865  16.496  1.00  0.00     0.000 C 
HETATM   21  C   UNL     1     -43.183 -55.010  14.980  1.00  0.00     0.003 C 
HETATM   22  C   UNL     1     -44.473 -54.460  14.372  1.00  0.00     0.040 C 
BRANCH  17  23
HETATM   23  C   UNL     1     -46.115 -52.515  14.157  1.00  0.00     0.412 C 
HETATM   24  F   UNL     1     -47.133 -52.888  14.970  1.00  0.00    -0.168 F 
HETATM   25  F   UNL     1     -46.204 -51.179  13.979  1.00  0.00    -0.168 F 
HETATM   26  F   UNL     1     -46.372 -53.086  12.953  1.00  0.00    -0.168 F 
ENDBRANCH  17  23
ENDBRANCH   3  17
TORSDOF 6
ENDMDL
MODEL 7
REMARK VINA RESULT:      -5.5      3.206      6.663
REMARK  6 active torsions:
REMARK  status: ('A' for Active; 'I' for Inactive)
REMARK    1  A    between atoms: O_2  and  C_3 
REMARK    2  A    between atoms: C_3  and  C_4 
REMARK    3  A    between atoms: C_4  and  N_5 
REMARK    4  A    between atoms: C_8  and  C_13 
REMARK       I    between atoms: C_13  and  N_15 
REMARK    5  A    between atoms: N_15  and  C_16 
REMARK    6  A    between atoms: C_16  and  C_22 
ROOT
HETATM    1  C   UNL     1     -42.173 -49.203  11.969  1.00  0.00     0.270 C 
HETATM    2  O   UNL     1     -43.356 -49.053  12.234  1.00  0.00    -0.266 OA
HETATM    3  N   UNL     1     -41.387 -48.240  11.372  1.00  0.00    -0.338 N 
HETATM    4  H   UNL     1     -40.486 -48.551  11.017  1.00  0.00     0.164 HD
ENDROOT
BRANCH   1   5
HETATM    5  C   UNL     1     -41.472 -50.507  12.354  1.00  0.00     0.116 A 
HETATM    6  N   UNL     1     -42.155 -51.602  12.519  1.00  0.00    -0.290 N 
HETATM    7  N   UNL     1     -41.425 -52.735  12.902  1.00  0.00    -0.255 N 
ATOM      8  HN  UNL     1     -43.164 -51.633  12.377  1.00  0.00     0.187 HD
HETATM    9  C   UNL     1     -40.057 -52.728  13.177  1.00  0.00     0.262 A 
HETATM   10  C   UNL     1     -39.347 -51.465  12.912  1.00  0.00     0.078 A 
HETATM   11  O   UNL     1     -39.410 -53.677  13.614  1.00  0.00    -0.267 OA
HETATM   12  C   UNL     1     -40.010 -50.383  12.507  1.00  0.00     0.042 A 
BRANCH   7  13
HETATM   13  C   UNL     1     -42.168 -53.980  13.102  1.00  0.00     0.178 C 
BRANCH  13  14
HETATM   14  C   UNL     1     -43.636 -53.756  13.464  1.00  0.00     0.189 C 
BRANCH  14  15
HETATM   15  O   UNL     1     -44.430 -53.581  12.286  1.00  0.00    -0.394 OA
HETATM   16  C   UNL     1     -45.631 -52.876  12.569  1.00  0.00     0.201 C 
ENDBRANCH  14  15
ENDBRANCH  13  14
ENDBRANCH   7  13
ENDBRANCH   1   5
BRANCH   3  17
HETATM   17  C   UNL     1     -41.951 -46.915  10.959  1.00  0.00     0.131 C 
HETATM   18  C   UNL     1     -40.770 -45.979  10.583  1.00  0.00     0.040 C 
HETATM   19  C   UNL     1     -39.841 -45.667  11.760  1.00  0.00     0.003 C 
HETATM   20  C   UNL     1     -40.595 -45.120  12.969  1.00  0.00     0.000 C 
HETATM   21  C   UNL     1     -41.777 -46.001  13.353  1.00  0.00     0.003 C 
HETATM   22  C   UNL     1     -42.693 -46.249  12.155  1.00  0.00     0.040 C 
BRANCH  17  23
HETATM   23  C   UNL     1     -42.937 -47.024   9.733  1.00  0.00     0.412 C 
HETATM   24  F   UNL     1     -44.228 -47.149  10.128  1.00  0.00    -0.168 F 
HETATM   25  F   UNL     1     -42.865 -45.956   8.908  1.00  0.00    -0.168 F 
HETATM   26  F   UNL     1     -42.670 -48.118   8.976  1.00  0.00    -0.168 F 
ENDBRANCH  17  23
ENDBRANCH   3  17
TORSDOF 6
ENDMDL
MODEL 8
REMARK VINA RESULT:      -5.5      1.976      3.668
REMARK  6 active torsions:
REMARK  status: ('A' for Active; 'I' for Inactive)
REMARK    1  A    between atoms: O_2  and  C_3 
REMARK    2  A    between atoms: C_3  and  C_4 
REMARK    3  A    between atoms: C_4  and  N_5 
REMARK    4  A    between atoms: C_8  and  C_13 
REMARK       I    between atoms: C_13  and  N_15 
REMARK    5  A    between atoms: N_15  and  C_16 
REMARK    6  A    between atoms: C_16  and  C_22 
ROOT
HETATM    1  C   UNL     1     -42.808 -50.076  13.424  1.00  0.00     0.270 C 
HETATM    2  O   UNL     1     -42.093 -50.585  14.273  1.00  0.00    -0.266 OA
HETATM    3  N   UNL     1     -43.919 -50.688  12.882  1.00  0.00    -0.338 N 
HETATM    4  H   UNL     1     -44.306 -50.257  12.046  1.00  0.00     0.164 HD
ENDROOT
BRANCH   1   5
HETATM    5  C   UNL     1     -42.516 -48.653  12.944  1.00  0.00     0.116 A 
HETATM    6  N   UNL     1     -41.716 -47.879  13.616  1.00  0.00    -0.290 N 
HETATM    7  N   UNL     1     -41.538 -46.584  13.111  1.00  0.00    -0.255 N 
ATOM      8  HN  UNL     1     -41.244 -48.197  14.463  1.00  0.00     0.187 HD
HETATM    9  C   UNL     1     -42.212 -46.078  12.001  1.00  0.00     0.262 A 
HETATM   10  C   UNL     1     -43.056 -47.033  11.262  1.00  0.00     0.078 A 
HETATM   11  O   UNL     1     -42.158 -44.919  11.596  1.00  0.00    -0.267 OA
HETATM   12  C   UNL     1     -43.210 -48.283  11.696  1.00  0.00     0.042 A 
BRANCH   7  13
HETATM   13  C   UNL     1     -40.648 -45.689  13.852  1.00  0.00     0.178 C 
BRANCH  13  14
HETATM   14  C   UNL     1     -39.165 -45.982  13.621  1.00  0.00     0.189 C 
BRANCH  14  15
HETATM   15  O   UNL     1     -38.889 -47.375  13.793  1.00  0.00    -0.394 OA
HETATM   16  C   UNL     1     -37.625 -47.582  14.408  1.00  0.00     0.201 C 
ENDBRANCH  14  15
ENDBRANCH  13  14
ENDBRANCH   7  13
ENDBRANCH   1   5
BRANCH   3  17
HETATM   17  C   UNL     1     -44.320 -52.076  13.279  1.00  0.00     0.131 C 
HETATM   18  C   UNL     1     -45.732 -52.359  12.699  1.00  0.00     0.040 C 
HETATM   19  C   UNL     1     -46.822 -51.449  13.275  1.00  0.00     0.003 C 
HETATM   20  C   UNL     1     -46.853 -51.473  14.800  1.00  0.00     0.000 C 
HETATM   21  C   UNL     1     -45.479 -51.222  15.406  1.00  0.00     0.003 C 
HETATM   22  C   UNL     1     -44.438 -52.180  14.827  1.00  0.00     0.040 C 
BRANCH  17  23
HETATM   23  C   UNL     1     -43.315 -53.176  12.760  1.00  0.00     0.412 C 
HETATM   24  F   UNL     1     -43.960 -54.280  12.311  1.00  0.00    -0.168 F 
HETATM   25  F   UNL     1     -42.525 -52.729  11.758  1.00  0.00    -0.168 F 
HETATM   26  F   UNL     1     -42.488 -53.601  13.748  1.00  0.00    -0.168 F 
ENDBRANCH  17  23
ENDBRANCH   3  17
TORSDOF 6
ENDMDL
MODEL 9
REMARK VINA RESULT:      -5.5      3.685      7.054
REMARK  6 active torsions:
REMARK  status: ('A' for Active; 'I' for Inactive)
REMARK    1  A    between atoms: O_2  and  C_3 
REMARK    2  A    between atoms: C_3  and  C_4 
REMARK    3  A    between atoms: C_4  and  N_5 
REMARK    4  A    between atoms: C_8  and  C_13 
REMARK       I    between atoms: C_13  and  N_15 
REMARK    5  A    between atoms: N_15  and  C_16 
REMARK    6  A    between atoms: C_16  and  C_22 
ROOT
HETATM    1  C   UNL     1     -42.189 -49.136  12.078  1.00  0.00     0.270 C 
HETATM    2  O   UNL     1     -43.380 -49.006  12.313  1.00  0.00    -0.266 OA
HETATM    3  N   UNL     1     -41.413 -48.172  11.467  1.00  0.00    -0.338 N 
HETATM    4  H   UNL     1     -40.498 -48.473  11.141  1.00  0.00     0.164 HD
ENDROOT
BRANCH   1   5
HETATM    5  C   UNL     1     -41.466 -50.410  12.519  1.00  0.00     0.116 A 
HETATM    6  N   UNL     1     -40.281 -50.347  13.052  1.00  0.00    -0.290 N 
HETATM    7  N   UNL     1     -39.690 -51.571  13.393  1.00  0.00    -0.255 N 
ATOM      8  HN  UNL     1     -39.809 -49.457  13.213  1.00  0.00     0.187 HD
HETATM    9  C   UNL     1     -40.261 -52.816  13.129  1.00  0.00     0.262 A 
HETATM   10  C   UNL     1     -41.627 -52.800  12.576  1.00  0.00     0.078 A 
HETATM   11  O   UNL     1     -39.725 -53.905  13.320  1.00  0.00    -0.267 OA
HETATM   12  C   UNL     1     -42.229 -51.649  12.282  1.00  0.00     0.042 A 
BRANCH   7  13
HETATM   13  C   UNL     1     -38.354 -51.531  13.988  1.00  0.00     0.178 C 
BRANCH  13  14
HETATM   14  C   UNL     1     -37.255 -51.176  12.987  1.00  0.00     0.189 C 
BRANCH  14  15
HETATM   15  O   UNL     1     -37.501 -49.897  12.393  1.00  0.00    -0.394 OA
HETATM   16  C   UNL     1     -37.306 -49.932  10.986  1.00  0.00     0.201 C 
ENDBRANCH  14  15
ENDBRANCH  13  14
ENDBRANCH   7  13
ENDBRANCH   1   5
BRANCH   3  17
HETATM   17  C   UNL     1     -42.000 -46.875  11.001  1.00  0.00     0.131 C 
HETATM   18  C   UNL     1     -40.835 -45.940  10.577  1.00  0.00     0.040 C 
HETATM   19  C   UNL     1     -39.903 -45.563  11.732  1.00  0.00     0.003 C 
HETATM   20  C   UNL     1     -40.658 -44.975  12.921  1.00  0.00     0.000 C 
HETATM   21  C   UNL     1     -41.824 -45.855  13.352  1.00  0.00     0.003 C 
HETATM   22  C   UNL     1     -42.743 -46.169  12.171  1.00  0.00     0.040 C 
BRANCH  17  23
HETATM   23  C   UNL     1     -42.992 -47.052   9.787  1.00  0.00     0.412 C 
HETATM   24  F   UNL     1     -43.006 -45.964   8.980  1.00  0.00    -0.168 F 
HETATM   25  F   UNL     1     -42.693 -48.125   9.021  1.00  0.00    -0.168 F 
HETATM   26  F   UNL     1     -44.270 -47.221  10.210  1.00  0.00    -0.168 F 
ENDBRANCH  17  23
ENDBRANCH   3  17
TORSDOF 6
ENDMDL
