MODEL 1
REMARK VINA RESULT:      -5.8      0.000      0.000
REMARK  4 active torsions:
REMARK  status: ('A' for Active; 'I' for Inactive)
REMARK    1  A    between atoms: C_4  and  C_8 
REMARK       I    between atoms: C_8  and  N_10 
REMARK    2  A    between atoms: N_10  and  C_11 
REMARK    3  A    between atoms: C_11  and  C_12 
REMARK    4  A    between atoms: C_12  and  C_13 
ROOT
HETATM    1  C   UNL     1     -42.263 -49.137  11.806  1.00  0.00     0.223 C 
HETATM    2  O   UNL     1     -42.839 -48.671  12.786  1.00  0.00    -0.273 OA
HETATM    3  N   UNL     1     -41.906 -50.470  11.747  1.00  0.00    -0.360 N 
HETATM    4  H   UNL     1     -41.457 -50.848  10.921  1.00  0.00     0.162 HD
ENDROOT
BRANCH   3   5
HETATM    5  C   UNL     1     -42.292 -51.351  12.837  1.00  0.00     0.127 C 
BRANCH   5   6
HETATM    6  C   UNL     1     -43.090 -52.575  12.391  1.00  0.00     0.059 C 
BRANCH   6   7
HETATM    7  C   UNL     1     -44.452 -52.598  13.030  1.00  0.00    -0.041 A 
HETATM    8  C   UNL     1     -45.079 -51.424  13.458  1.00  0.00     0.010 A 
HETATM    9  C   UNL     1     -46.316 -51.494  14.092  1.00  0.00     0.018 A 
HETATM   10  C   UNL     1     -46.889 -52.741  14.282  1.00  0.00     0.087 A 
HETATM   11  N   UNL     1     -46.314 -53.897  13.885  1.00  0.00    -0.375 N 
HETATM   12  C   UNL     1     -45.111 -53.799  13.276  1.00  0.00     0.094 A 
ATOM     13  HN  UNL     1     -46.765 -54.799  14.038  1.00  0.00     0.164 HD
ENDBRANCH   6   7
ENDBRANCH   5   6
ENDBRANCH   3   5
BRANCH   1  14
HETATM   14  C   UNL     1     -41.839 -48.288  10.621  1.00  0.00     0.104 C 
HETATM   15  C   UNL     1     -40.891 -47.181  11.070  1.00  0.00     0.139 C 
HETATM   16  N   UNL     1     -41.366 -45.977  10.444  1.00  0.00    -0.356 N 
HETATM   17  C   UNL     1     -40.896 -44.677  10.868  1.00  0.00     0.152 C 
HETATM   18  C   UNL     1     -42.588 -46.137   9.826  1.00  0.00     0.220 C 
HETATM   19  C   UNL     1     -43.008 -47.577   9.938  1.00  0.00     0.118 C 
HETATM   20  O   UNL     1     -43.258 -45.257   9.306  1.00  0.00    -0.273 OA
ENDBRANCH   1  14
TORSDOF 4
ENDMDL
MODEL 2
REMARK VINA RESULT:      -5.7      2.502      7.445
REMARK  4 active torsions:
REMARK  status: ('A' for Active; 'I' for Inactive)
REMARK    1  A    between atoms: C_4  and  C_8 
REMARK       I    between atoms: C_8  and  N_10 
REMARK    2  A    between atoms: N_10  and  C_11 
REMARK    3  A    between atoms: C_11  and  C_12 
REMARK    4  A    between atoms: C_12  and  C_13 
ROOT
HETATM    1  C   UNL     1     -42.304 -51.746  13.054  1.00  0.00     0.223 C 
HETATM    2  O   UNL     1     -42.032 -51.278  14.157  1.00  0.00    -0.273 OA
HETATM    3  N   UNL     1     -42.314 -50.957  11.920  1.00  0.00    -0.360 N 
HETATM    4  H   UNL     1     -42.512 -51.360  11.012  1.00  0.00     0.162 HD
ENDROOT
BRANCH   3   5
HETATM    5  C   UNL     1     -41.918 -49.562  12.030  1.00  0.00     0.127 C 
BRANCH   5   6
HETATM    6  C   UNL     1     -43.091 -48.591  12.152  1.00  0.00     0.059 C 
BRANCH   6   7
HETATM    7  C   UNL     1     -43.248 -47.769  10.903  1.00  0.00    -0.041 A 
HETATM    8  C   UNL     1     -44.469 -47.688  10.229  1.00  0.00     0.010 A 
HETATM    9  C   UNL     1     -44.559 -46.958   9.047  1.00  0.00     0.018 A 
HETATM   10  C   UNL     1     -43.418 -46.332   8.572  1.00  0.00     0.087 A 
HETATM   11  N   UNL     1     -42.220 -46.388   9.193  1.00  0.00    -0.375 N 
HETATM   12  C   UNL     1     -42.162 -47.107  10.336  1.00  0.00     0.094 A 
ATOM     13  HN  UNL     1     -41.400 -45.912   8.817  1.00  0.00     0.164 HD
ENDBRANCH   6   7
ENDBRANCH   5   6
ENDBRANCH   3   5
BRANCH   1  14
HETATM   14  C   UNL     1     -42.712 -53.194  12.852  1.00  0.00     0.104 C 
HETATM   15  C   UNL     1     -44.232 -53.323  12.838  1.00  0.00     0.139 C 
HETATM   16  N   UNL     1     -44.541 -54.435  13.696  1.00  0.00    -0.356 N 
HETATM   17  C   UNL     1     -45.891 -54.671  14.157  1.00  0.00     0.152 C 
HETATM   18  C   UNL     1     -43.447 -54.896  14.397  1.00  0.00     0.220 C 
HETATM   19  C   UNL     1     -42.231 -54.119  13.970  1.00  0.00     0.118 C 
HETATM   20  O   UNL     1     -43.450 -55.760  15.260  1.00  0.00    -0.273 OA
ENDBRANCH   1  14
TORSDOF 4
ENDMDL
MODEL 3
REMARK VINA RESULT:      -5.7      3.032      7.007
REMARK  4 active torsions:
REMARK  status: ('A' for Active; 'I' for Inactive)
REMARK    1  A    between atoms: C_4  and  C_8 
REMARK       I    between atoms: C_8  and  N_10 
REMARK    2  A    between atoms: N_10  and  C_11 
REMARK    3  A    between atoms: C_11  and  C_12 
REMARK    4  A    between atoms: C_12  and  C_13 
ROOT
HETATM    1  C   UNL     1     -42.815 -53.467  12.776  1.00  0.00     0.223 C 
HETATM    2  O   UNL     1     -42.039 -53.950  13.596  1.00  0.00    -0.273 OA
HETATM    3  N   UNL     1     -42.400 -52.519  11.862  1.00  0.00    -0.360 N 
HETATM    4  H   UNL     1     -43.043 -52.150  11.172  1.00  0.00     0.162 HD
ENDROOT
BRANCH   3   5
HETATM    5  C   UNL     1     -40.995 -52.145  11.826  1.00  0.00     0.127 C 
BRANCH   5   6
HETATM    6  C   UNL     1     -40.688 -50.818  12.516  1.00  0.00     0.059 C 
BRANCH   6   7
HETATM    7  C   UNL     1     -41.409 -49.679  11.849  1.00  0.00    -0.041 A 
HETATM    8  C   UNL     1     -42.520 -49.071  12.438  1.00  0.00     0.010 A 
HETATM    9  C   UNL     1     -43.191 -48.055  11.763  1.00  0.00     0.018 A 
HETATM   10  C   UNL     1     -42.728 -47.679  10.512  1.00  0.00     0.087 A 
HETATM   11  N   UNL     1     -41.660 -48.243   9.909  1.00  0.00    -0.375 N 
HETATM   12  C   UNL     1     -41.031 -49.229  10.586  1.00  0.00     0.094 A 
ATOM     13  HN  UNL     1     -41.343 -47.940   8.988  1.00  0.00     0.164 HD
ENDBRANCH   6   7
ENDBRANCH   5   6
ENDBRANCH   3   5
BRANCH   1  14
HETATM   14  C   UNL     1     -44.292 -53.817  12.737  1.00  0.00     0.104 C 
HETATM   15  C   UNL     1     -45.140 -52.577  13.005  1.00  0.00     0.139 C 
HETATM   16  N   UNL     1     -46.130 -52.976  13.968  1.00  0.00    -0.356 N 
HETATM   17  C   UNL     1     -46.921 -51.996  14.678  1.00  0.00     0.152 C 
HETATM   18  C   UNL     1     -45.900 -54.233  14.487  1.00  0.00     0.220 C 
HETATM   19  C   UNL     1     -44.702 -54.833  13.804  1.00  0.00     0.118 C 
HETATM   20  O   UNL     1     -46.527 -54.771  15.387  1.00  0.00    -0.273 OA
ENDBRANCH   1  14
TORSDOF 4
ENDMDL
MODEL 4
REMARK VINA RESULT:      -5.5      5.219      6.120
REMARK  4 active torsions:
REMARK  status: ('A' for Active; 'I' for Inactive)
REMARK    1  A    between atoms: C_4  and  C_8 
REMARK       I    between atoms: C_8  and  N_10 
REMARK    2  A    between atoms: N_10  and  C_11 
REMARK    3  A    between atoms: C_11  and  C_12 
REMARK    4  A    between atoms: C_12  and  C_13 
ROOT
HETATM    1  C   UNL     1     -43.939 -54.332  14.138  1.00  0.00     0.223 C 
HETATM    2  O   UNL     1     -44.807 -54.950  14.750  1.00  0.00    -0.273 OA
HETATM    3  N   UNL     1     -44.264 -53.409  13.163  1.00  0.00    -0.360 N 
HETATM    4  H   UNL     1     -43.539 -52.885  12.686  1.00  0.00     0.162 HD
ENDROOT
BRANCH   3   5
HETATM    5  C   UNL     1     -45.665 -53.111  12.914  1.00  0.00     0.127 C 
BRANCH   5   6
HETATM    6  C   UNL     1     -46.043 -51.652  13.163  1.00  0.00     0.059 C 
BRANCH   6   7
HETATM    7  C   UNL     1     -46.096 -51.349  14.635  1.00  0.00    -0.041 A 
HETATM    8  C   UNL     1     -47.259 -51.553  15.382  1.00  0.00     0.010 A 
HETATM    9  C   UNL     1     -47.283 -51.210  16.731  1.00  0.00     0.018 A 
HETATM   10  C   UNL     1     -46.137 -50.668  17.292  1.00  0.00     0.087 A 
HETATM   11  N   UNL     1     -44.996 -50.454  16.604  1.00  0.00    -0.375 N 
HETATM   12  C   UNL     1     -45.004 -50.793  15.295  1.00  0.00     0.094 A 
ATOM     13  HN  UNL     1     -44.169 -50.056  17.049  1.00  0.00     0.164 HD
ENDBRANCH   6   7
ENDBRANCH   5   6
ENDBRANCH   3   5
BRANCH   1  14
HETATM   14  C   UNL     1     -42.455 -54.571  14.350  1.00  0.00     0.104 C 
HETATM   15  C   UNL     1     -41.939 -53.726  15.511  1.00  0.00     0.139 C 
HETATM   16  N   UNL     1     -40.721 -53.120  15.046  1.00  0.00    -0.356 N 
HETATM   17  C   UNL     1     -40.108 -52.025  15.765  1.00  0.00     0.152 C 
HETATM   18  C   UNL     1     -40.505 -53.309  13.697  1.00  0.00     0.220 C 
HETATM   19  C   UNL     1     -41.600 -54.179  13.144  1.00  0.00     0.118 C 
HETATM   20  O   UNL     1     -39.605 -52.821  13.032  1.00  0.00    -0.273 OA
ENDBRANCH   1  14
TORSDOF 4
ENDMDL
MODEL 5
REMARK VINA RESULT:      -5.4      4.044      7.171
REMARK  4 active torsions:
REMARK  status: ('A' for Active; 'I' for Inactive)
REMARK    1  A    between atoms: C_4  and  C_8 
REMARK       I    between atoms: C_8  and  N_10 
REMARK    2  A    between atoms: N_10  and  C_11 
REMARK    3  A    between atoms: C_11  and  C_12 
REMARK    4  A    between atoms: C_12  and  C_13 
ROOT
HETATM    1  C   UNL     1     -43.610 -54.857  14.925  1.00  0.00     0.223 C 
HETATM    2  O   UNL     1     -43.162 -55.920  15.349  1.00  0.00    -0.273 OA
HETATM    3  N   UNL     1     -42.819 -53.730  14.827  1.00  0.00    -0.360 N 
HETATM    4  H   UNL     1     -43.193 -52.868  14.448  1.00  0.00     0.162 HD
ENDROOT
BRANCH   3   5
HETATM    5  C   UNL     1     -41.407 -53.829  15.161  1.00  0.00     0.127 C 
BRANCH   5   6
HETATM    6  C   UNL     1     -40.496 -54.024  13.951  1.00  0.00     0.059 C 
BRANCH   6   7
HETATM    7  C   UNL     1     -40.368 -52.753  13.157  1.00  0.00    -0.041 A 
HETATM    8  C   UNL     1     -39.601 -51.678  13.616  1.00  0.00     0.010 A 
HETATM    9  C   UNL     1     -39.552 -50.500  12.876  1.00  0.00     0.018 A 
HETATM   10  C   UNL     1     -40.276 -50.432  11.697  1.00  0.00     0.087 A 
HETATM   11  N   UNL     1     -41.029 -51.447  11.222  1.00  0.00    -0.375 N 
HETATM   12  C   UNL     1     -41.061 -52.577  11.963  1.00  0.00     0.094 A 
ATOM     13  HN  UNL     1     -41.548 -51.365  10.347  1.00  0.00     0.164 HD
ENDBRANCH   6   7
ENDBRANCH   5   6
ENDBRANCH   3   5
BRANCH   1  14
HETATM   14  C   UNL     1     -45.068 -54.675  14.540  1.00  0.00     0.104 C 
HETATM   15  C   UNL     1     -45.184 -53.812  13.288  1.00  0.00     0.139 C 
HETATM   16  N   UNL     1     -46.211 -52.845  13.569  1.00  0.00    -0.356 N 
HETATM   17  C   UNL     1     -46.392 -51.681  12.731  1.00  0.00     0.152 C 
HETATM   18  C   UNL     1     -46.615 -52.857  14.887  1.00  0.00     0.220 C 
HETATM   19  C   UNL     1     -45.891 -53.960  15.611  1.00  0.00     0.118 C 
HETATM   20  O   UNL     1     -47.397 -52.080  15.412  1.00  0.00    -0.273 OA
ENDBRANCH   1  14
TORSDOF 4
ENDMDL
MODEL 6
REMARK VINA RESULT:      -5.2      3.753      7.536
REMARK  4 active torsions:
REMARK  status: ('A' for Active; 'I' for Inactive)
REMARK    1  A    between atoms: C_4  and  C_8 
REMARK       I    between atoms: C_8  and  N_10 
REMARK    2  A    between atoms: N_10  and  C_11 
REMARK    3  A    between atoms: C_11  and  C_12 
REMARK    4  A    between atoms: C_12  and  C_13 
ROOT
HETATM    1  C   UNL     1     -42.927 -53.054  12.800  1.00  0.00     0.223 C 
HETATM    2  O   UNL     1     -42.282 -53.255  13.826  1.00  0.00    -0.273 OA
HETATM    3  N   UNL     1     -42.349 -52.475  11.687  1.00  0.00    -0.360 N 
HETATM    4  H   UNL     1     -42.885 -52.341  10.838  1.00  0.00     0.162 HD
ENDROOT
BRANCH   3   5
HETATM    5  C   UNL     1     -40.927 -52.173  11.710  1.00  0.00     0.127 C 
BRANCH   5   6
HETATM    6  C   UNL     1     -40.611 -50.680  11.778  1.00  0.00     0.059 C 
BRANCH   6   7
HETATM    7  C   UNL     1     -39.499 -50.405  12.752  1.00  0.00    -0.041 A 
HETATM    8  C   UNL     1     -39.203 -51.287  13.795  1.00  0.00     0.010 A 
HETATM    9  C   UNL     1     -38.199 -50.969  14.705  1.00  0.00     0.018 A 
HETATM   10  C   UNL     1     -37.521 -49.772  14.545  1.00  0.00     0.087 A 
HETATM   11  N   UNL     1     -37.778 -48.893  13.553  1.00  0.00    -0.375 N 
HETATM   12  C   UNL     1     -38.760 -49.226  12.686  1.00  0.00     0.094 A 
ATOM     13  HN  UNL     1     -37.256 -48.021  13.462  1.00  0.00     0.164 HD
ENDBRANCH   6   7
ENDBRANCH   5   6
ENDBRANCH   3   5
BRANCH   1  14
HETATM   14  C   UNL     1     -44.411 -53.356  12.690  1.00  0.00     0.104 C 
HETATM   15  C   UNL     1     -45.233 -52.213  13.276  1.00  0.00     0.139 C 
HETATM   16  N   UNL     1     -46.224 -52.830  14.116  1.00  0.00    -0.356 N 
HETATM   17  C   UNL     1     -46.992 -52.051  15.062  1.00  0.00     0.152 C 
HETATM   18  C   UNL     1     -46.015 -54.181  14.292  1.00  0.00     0.220 C 
HETATM   19  C   UNL     1     -44.833 -54.605  13.464  1.00  0.00     0.118 C 
HETATM   20  O   UNL     1     -46.646 -54.922  15.031  1.00  0.00    -0.273 OA
ENDBRANCH   1  14
TORSDOF 4
ENDMDL
MODEL 7
REMARK VINA RESULT:      -5.1      3.634      4.397
REMARK  4 active torsions:
REMARK  status: ('A' for Active; 'I' for Inactive)
REMARK    1  A    between atoms: C_4  and  C_8 
REMARK       I    between atoms: C_8  and  N_10 
REMARK    2  A    between atoms: N_10  and  C_11 
REMARK    3  A    between atoms: C_11  and  C_12 
REMARK    4  A    between atoms: C_12  and  C_13 
ROOT
HETATM    1  C   UNL     1     -42.813 -52.061  12.566  1.00  0.00     0.223 C 
HETATM    2  O   UNL     1     -43.264 -51.201  13.319  1.00  0.00    -0.273 OA
HETATM    3  N   UNL     1     -43.605 -53.083  12.083  1.00  0.00    -0.360 N 
HETATM    4  H   UNL     1     -43.228 -53.769  11.439  1.00  0.00     0.162 HD
ENDROOT
BRANCH   3   5
HETATM    5  C   UNL     1     -45.021 -53.093  12.414  1.00  0.00     0.127 C 
BRANCH   5   6
HETATM    6  C   UNL     1     -45.386 -54.044  13.552  1.00  0.00     0.059 C 
BRANCH   6   7
HETATM    7  C   UNL     1     -45.968 -53.295  14.719  1.00  0.00    -0.041 A 
HETATM    8  C   UNL     1     -46.633 -52.078  14.550  1.00  0.00     0.010 A 
HETATM    9  C   UNL     1     -47.111 -51.391  15.663  1.00  0.00     0.018 A 
HETATM   10  C   UNL     1     -46.905 -51.945  16.916  1.00  0.00     0.087 A 
HETATM   11  N   UNL     1     -46.266 -53.116  17.121  1.00  0.00    -0.375 N 
HETATM   12  C   UNL     1     -45.809 -53.759  16.023  1.00  0.00     0.094 A 
ATOM     13  HN  UNL     1     -46.134 -53.498  18.058  1.00  0.00     0.164 HD
ENDBRANCH   6   7
ENDBRANCH   5   6
ENDBRANCH   3   5
BRANCH   1  14
HETATM   14  C   UNL     1     -41.351 -52.112  12.159  1.00  0.00     0.104 C 
HETATM   15  C   UNL     1     -40.483 -52.524  13.343  1.00  0.00     0.139 C 
HETATM   16  N   UNL     1     -39.376 -51.606  13.360  1.00  0.00    -0.356 N 
HETATM   17  C   UNL     1     -38.506 -51.504  14.510  1.00  0.00     0.152 C 
HETATM   18  C   UNL     1     -39.531 -50.560  12.476  1.00  0.00     0.220 C 
HETATM   19  C   UNL     1     -40.803 -50.760  11.699  1.00  0.00     0.118 C 
HETATM   20  O   UNL     1     -38.792 -49.594  12.358  1.00  0.00    -0.273 OA
ENDBRANCH   1  14
TORSDOF 4
ENDMDL
MODEL 8
REMARK VINA RESULT:      -5.0      3.545      4.602
REMARK  4 active torsions:
REMARK  status: ('A' for Active; 'I' for Inactive)
REMARK    1  A    between atoms: C_4  and  C_8 
REMARK       I    between atoms: C_8  and  N_10 
REMARK    2  A    between atoms: N_10  and  C_11 
REMARK    3  A    between atoms: C_11  and  C_12 
REMARK    4  A    between atoms: C_12  and  C_13 
ROOT
HETATM    1  C   UNL     1     -41.276 -54.092  13.965  1.00  0.00     0.223 C 
HETATM    2  O   UNL     1     -40.805 -54.646  14.955  1.00  0.00    -0.273 OA
HETATM    3  N   UNL     1     -42.607 -54.236  13.624  1.00  0.00    -0.360 N 
HETATM    4  H   UNL     1     -42.990 -53.750  12.821  1.00  0.00     0.162 HD
ENDROOT
BRANCH   3   5
HETATM    5  C   UNL     1     -43.480 -54.998  14.502  1.00  0.00     0.127 C 
BRANCH   5   6
HETATM    6  C   UNL     1     -44.925 -55.086  14.016  1.00  0.00     0.059 C 
BRANCH   6   7
HETATM    7  C   UNL     1     -45.604 -53.746  14.085  1.00  0.00    -0.041 A 
HETATM    8  C   UNL     1     -46.158 -53.267  15.276  1.00  0.00     0.010 A 
HETATM    9  C   UNL     1     -46.824 -52.045  15.286  1.00  0.00     0.018 A 
HETATM   10  C   UNL     1     -46.918 -51.338  14.098  1.00  0.00     0.087 A 
HETATM   11  N   UNL     1     -46.398 -51.767  12.928  1.00  0.00    -0.375 N 
HETATM   12  C   UNL     1     -45.760 -52.959  12.948  1.00  0.00     0.094 A 
ATOM     13  HN  UNL     1     -46.482 -51.219  12.072  1.00  0.00     0.164 HD
ENDBRANCH   6   7
ENDBRANCH   5   6
ENDBRANCH   3   5
BRANCH   1  14
HETATM   14  C   UNL     1     -40.436 -53.266  13.006  1.00  0.00     0.104 C 
HETATM   15  C   UNL     1     -39.561 -52.283  13.777  1.00  0.00     0.139 C 
HETATM   16  N   UNL     1     -39.705 -51.018  13.108  1.00  0.00    -0.356 N 
HETATM   17  C   UNL     1     -39.257 -49.790  13.726  1.00  0.00     0.152 C 
HETATM   18  C   UNL     1     -40.697 -51.025  12.150  1.00  0.00     0.220 C 
HETATM   19  C   UNL     1     -41.272 -52.412  12.052  1.00  0.00     0.118 C 
HETATM   20  O   UNL     1     -41.091 -50.064  11.508  1.00  0.00    -0.273 OA
ENDBRANCH   1  14
TORSDOF 4
ENDMDL
MODEL 9
REMARK VINA RESULT:      -4.9      2.716      7.453
REMARK  4 active torsions:
REMARK  status: ('A' for Active; 'I' for Inactive)
REMARK    1  A    between atoms: C_4  and  C_8 
REMARK       I    between atoms: C_8  and  N_10 
REMARK    2  A    between atoms: N_10  and  C_11 
REMARK    3  A    between atoms: C_11  and  C_12 
REMARK    4  A    between atoms: C_12  and  C_13 
ROOT
HETATM    1  C   UNL     1     -41.572 -51.869  13.622  1.00  0.00     0.223 C 
HETATM    2  O   UNL     1     -42.361 -51.053  14.093  1.00  0.00    -0.273 OA
HETATM    3  N   UNL     1     -40.286 -51.508  13.272  1.00  0.00    -0.360 N 
HETATM    4  H   UNL     1     -39.636 -52.197  12.912  1.00  0.00     0.162 HD
ENDROOT
BRANCH   3   5
HETATM    5  C   UNL     1     -39.838 -50.152  13.542  1.00  0.00     0.127 C 
BRANCH   5   6
HETATM    6  C   UNL     1     -39.157 -49.475  12.353  1.00  0.00     0.059 C 
BRANCH   6   7
HETATM    7  C   UNL     1     -40.127 -48.614  11.591  1.00  0.00    -0.041 A 
HETATM    8  C   UNL     1     -39.998 -47.223  11.555  1.00  0.00     0.010 A 
HETATM    9  C   UNL     1     -40.947 -46.459  10.882  1.00  0.00     0.018 A 
HETATM   10  C   UNL     1     -42.001 -47.113  10.264  1.00  0.00     0.087 A 
HETATM   11  N   UNL     1     -42.160 -48.453  10.277  1.00  0.00    -0.375 N 
HETATM   12  C   UNL     1     -41.226 -49.170  10.942  1.00  0.00     0.094 A 
ATOM     13  HN  UNL     1     -42.947 -48.904   9.809  1.00  0.00     0.164 HD
ENDBRANCH   6   7
ENDBRANCH   5   6
ENDBRANCH   3   5
BRANCH   1  14
HETATM   14  C   UNL     1     -41.956 -53.308  13.326  1.00  0.00     0.104 C 
HETATM   15  C   UNL     1     -43.433 -53.400  12.955  1.00  0.00     0.139 C 
HETATM   16  N   UNL     1     -43.963 -54.502  13.713  1.00  0.00    -0.356 N 
HETATM   17  C   UNL     1     -45.389 -54.703  13.843  1.00  0.00     0.152 C 
HETATM   18  C   UNL     1     -43.075 -54.986  14.650  1.00  0.00     0.220 C 
HETATM   19  C   UNL     1     -41.775 -54.241  14.524  1.00  0.00     0.118 C 
HETATM   20  O   UNL     1     -43.303 -55.847  15.486  1.00  0.00    -0.273 OA
ENDBRANCH   1  14
TORSDOF 4
ENDMDL
