MODEL 1
REMARK VINA RESULT:      -5.6      0.000      0.000
REMARK  4 active torsions:
REMARK  status: ('A' for Active; 'I' for Inactive)
REMARK    1  A    between atoms: C_2  and  C_4 
REMARK    2  A    between atoms: C_4  and  N_5 
REMARK       I    between atoms: N_5  and  C_6 
REMARK    3  A    between atoms: C_6  and  C_8 
REMARK    4  A    between atoms: C_8  and  N_9 
ROOT
HETATM    1  N   UNL     1     -44.313 -47.524   9.076  1.00  0.00    -0.301 N 
HETATM    2  C   UNL     1     -45.607 -47.634   9.544  1.00  0.00     0.102 C 
HETATM    3  C   UNL     1     -46.555 -48.262   8.844  1.00  0.00     0.092 C 
HETATM    4  C   UNL     1     -46.199 -48.863   7.549  1.00  0.00     0.250 C 
HETATM    5  O   UNL     1     -46.997 -49.560   6.933  1.00  0.00    -0.268 OA
HETATM    6  N   UNL     1     -44.936 -48.599   7.099  1.00  0.00    -0.275 N 
HETATM    7  C   UNL     1     -43.950 -47.970   7.813  1.00  0.00     0.329 C 
HETATM    8  O   UNL     1     -42.819 -47.837   7.345  1.00  0.00    -0.246 OA
HETATM    9  H   UNL     1     -44.677 -48.992   6.210  1.00  0.00     0.173 HD
ENDROOT
BRANCH   1  10
HETATM   10  C   UNL     1     -43.286 -46.923   9.924  1.00  0.00     0.235 C 
BRANCH  10  11
HETATM   11  C   UNL     1     -42.609 -47.960  10.817  1.00  0.00     0.235 C 
HETATM   12  N   UNL     1     -41.439 -48.478  10.307  1.00  0.00    -0.359 N 
HETATM   13  H   UNL     1     -41.078 -48.107   9.433  1.00  0.00     0.162 HD
HETATM   14  O   UNL     1     -43.060 -48.259  11.921  1.00  0.00    -0.272 OA
BRANCH  12  15
HETATM   15  C   UNL     1     -40.674 -49.498  10.999  1.00  0.00     0.126 C 
BRANCH  15  16
HETATM   16  C   UNL     1     -39.477 -48.916  11.770  1.00  0.00    -0.005 C 
HETATM   17  C   UNL     1     -39.777 -48.791  13.265  1.00  0.00     0.011 C 
HETATM   18  C   UNL     1     -38.240 -49.793  11.563  1.00  0.00     0.011 C 
ENDBRANCH  15  16
ENDBRANCH  12  15
ENDBRANCH  10  11
ENDBRANCH   1  10
TORSDOF 4
ENDMDL
MODEL 2
REMARK VINA RESULT:      -5.4      6.540      8.319
REMARK  4 active torsions:
REMARK  status: ('A' for Active; 'I' for Inactive)
REMARK    1  A    between atoms: C_2  and  C_4 
REMARK    2  A    between atoms: C_4  and  N_5 
REMARK       I    between atoms: N_5  and  C_6 
REMARK    3  A    between atoms: C_6  and  C_8 
REMARK    4  A    between atoms: C_8  and  N_9 
ROOT
HETATM    1  N   UNL     1     -43.224 -54.216  13.515  1.00  0.00    -0.301 N 
HETATM    2  C   UNL     1     -41.863 -54.223  13.746  1.00  0.00     0.102 C 
HETATM    3  C   UNL     1     -41.038 -53.394  13.102  1.00  0.00     0.092 C 
HETATM    4  C   UNL     1     -41.604 -52.442  12.133  1.00  0.00     0.250 C 
HETATM    5  O   UNL     1     -40.909 -51.576  11.615  1.00  0.00    -0.268 OA
HETATM    6  N   UNL     1     -42.936 -52.587  11.867  1.00  0.00    -0.275 N 
HETATM    7  C   UNL     1     -43.797 -53.422  12.531  1.00  0.00     0.329 C 
HETATM    8  O   UNL     1     -44.998 -53.435  12.262  1.00  0.00    -0.246 OA
HETATM    9  H   UNL     1     -43.340 -51.953  11.199  1.00  0.00     0.173 HD
ENDROOT
BRANCH   1  10
HETATM   10  C   UNL     1     -44.098 -55.065  14.321  1.00  0.00     0.235 C 
BRANCH  10  11
HETATM   11  C   UNL     1     -44.520 -54.378  15.616  1.00  0.00     0.235 C 
HETATM   12  N   UNL     1     -45.543 -53.465  15.474  1.00  0.00    -0.359 N 
HETATM   13  H   UNL     1     -45.980 -53.357  14.563  1.00  0.00     0.162 HD
HETATM   14  O   UNL     1     -44.011 -54.664  16.698  1.00  0.00    -0.272 OA
BRANCH  12  15
HETATM   15  C   UNL     1     -46.055 -52.691  16.589  1.00  0.00     0.126 C 
BRANCH  15  16
HETATM   16  C   UNL     1     -46.680 -51.358  16.144  1.00  0.00    -0.005 C 
HETATM   17  C   UNL     1     -46.872 -51.304  14.627  1.00  0.00     0.011 C 
HETATM   18  C   UNL     1     -48.026 -51.148  16.842  1.00  0.00     0.011 C 
ENDBRANCH  15  16
ENDBRANCH  12  15
ENDBRANCH  10  11
ENDBRANCH   1  10
TORSDOF 4
ENDMDL
MODEL 3
REMARK VINA RESULT:      -5.0      5.830      6.738
REMARK  4 active torsions:
REMARK  status: ('A' for Active; 'I' for Inactive)
REMARK    1  A    between atoms: C_2  and  C_4 
REMARK    2  A    between atoms: C_4  and  N_5 
REMARK       I    between atoms: N_5  and  C_6 
REMARK    3  A    between atoms: C_6  and  C_8 
REMARK    4  A    between atoms: C_8  and  N_9 
ROOT
HETATM    1  N   UNL     1     -45.337 -53.238  13.352  1.00  0.00    -0.301 N 
HETATM    2  C   UNL     1     -45.713 -51.910  13.363  1.00  0.00     0.102 C 
HETATM    3  C   UNL     1     -46.570 -51.431  14.269  1.00  0.00     0.092 C 
HETATM    4  C   UNL     1     -47.110 -52.346  15.286  1.00  0.00     0.250 C 
HETATM    5  O   UNL     1     -47.794 -51.930  16.214  1.00  0.00    -0.268 OA
HETATM    6  N   UNL     1     -46.791 -53.665  15.127  1.00  0.00    -0.275 N 
HETATM    7  C   UNL     1     -45.902 -54.167  14.213  1.00  0.00     0.329 C 
HETATM    8  O   UNL     1     -45.629 -55.368  14.191  1.00  0.00    -0.246 OA
HETATM    9  H   UNL     1     -47.160 -54.309  15.806  1.00  0.00     0.173 HD
ENDROOT
BRANCH   1  10
HETATM   10  C   UNL     1     -44.315 -53.691  12.410  1.00  0.00     0.235 C 
BRANCH  10  11
HETATM   11  C   UNL     1     -42.935 -53.145  12.764  1.00  0.00     0.235 C 
HETATM   12  N   UNL     1     -42.317 -52.447  11.749  1.00  0.00    -0.359 N 
HETATM   13  H   UNL     1     -42.825 -52.290  10.883  1.00  0.00     0.162 HD
HETATM   14  O   UNL     1     -42.450 -53.283  13.886  1.00  0.00    -0.272 OA
BRANCH  12  15
HETATM   15  C   UNL     1     -40.989 -51.882  11.890  1.00  0.00     0.126 C 
BRANCH  15  16
HETATM   16  C   UNL     1     -41.016 -50.363  12.127  1.00  0.00    -0.005 C 
HETATM   17  C   UNL     1     -40.948 -50.024  13.618  1.00  0.00     0.011 C 
HETATM   18  C   UNL     1     -39.851 -49.694  11.392  1.00  0.00     0.011 C 
ENDBRANCH  15  16
ENDBRANCH  12  15
ENDBRANCH  10  11
ENDBRANCH   1  10
TORSDOF 4
ENDMDL
MODEL 4
REMARK VINA RESULT:      -5.0      5.359      6.373
REMARK  4 active torsions:
REMARK  status: ('A' for Active; 'I' for Inactive)
REMARK    1  A    between atoms: C_2  and  C_4 
REMARK    2  A    between atoms: C_4  and  N_5 
REMARK       I    between atoms: N_5  and  C_6 
REMARK    3  A    between atoms: C_6  and  C_8 
REMARK    4  A    between atoms: C_8  and  N_9 
ROOT
HETATM    1  N   UNL     1     -41.416 -53.533  13.387  1.00  0.00    -0.301 N 
HETATM    2  C   UNL     1     -42.293 -54.239  14.185  1.00  0.00     0.102 C 
HETATM    3  C   UNL     1     -43.597 -54.309  13.904  1.00  0.00     0.092 C 
HETATM    4  C   UNL     1     -44.100 -53.623  12.703  1.00  0.00     0.250 C 
HETATM    5  O   UNL     1     -45.259 -53.764  12.332  1.00  0.00    -0.268 OA
HETATM    6  N   UNL     1     -43.195 -52.842  12.043  1.00  0.00    -0.275 N 
HETATM    7  C   UNL     1     -41.853 -52.774  12.310  1.00  0.00     0.329 C 
HETATM    8  O   UNL     1     -41.103 -52.089  11.614  1.00  0.00    -0.246 OA
HETATM    9  H   UNL     1     -43.522 -52.356  11.225  1.00  0.00     0.173 HD
ENDROOT
BRANCH   1  10
HETATM   10  C   UNL     1     -39.983 -53.575  13.674  1.00  0.00     0.235 C 
BRANCH  10  11
HETATM   11  C   UNL     1     -39.477 -52.249  14.234  1.00  0.00     0.235 C 
HETATM   12  N   UNL     1     -38.577 -51.591  13.424  1.00  0.00    -0.359 N 
HETATM   13  H   UNL     1     -38.363 -51.982  12.511  1.00  0.00     0.162 HD
HETATM   14  O   UNL     1     -39.889 -51.795  15.300  1.00  0.00    -0.272 OA
BRANCH  12  15
HETATM   15  C   UNL     1     -37.964 -50.333  13.804  1.00  0.00     0.126 C 
BRANCH  15  16
HETATM   16  C   UNL     1     -37.873 -49.342  12.631  1.00  0.00    -0.005 C 
HETATM   17  C   UNL     1     -37.436 -50.037  11.340  1.00  0.00     0.011 C 
HETATM   18  C   UNL     1     -39.223 -48.654  12.417  1.00  0.00     0.011 C 
ENDBRANCH  15  16
ENDBRANCH  12  15
ENDBRANCH  10  11
ENDBRANCH   1  10
TORSDOF 4
ENDMDL
MODEL 5
REMARK VINA RESULT:      -4.8      6.659      7.523
REMARK  4 active torsions:
REMARK  status: ('A' for Active; 'I' for Inactive)
REMARK    1  A    between atoms: C_2  and  C_4 
REMARK    2  A    between atoms: C_4  and  N_5 
REMARK       I    between atoms: N_5  and  C_6 
REMARK    3  A    between atoms: C_6  and  C_8 
REMARK    4  A    between atoms: C_8  and  N_9 
ROOT
HETATM    1  N   UNL     1     -45.225 -53.234  13.338  1.00  0.00    -0.301 N 
HETATM    2  C   UNL     1     -45.767 -51.971  13.213  1.00  0.00     0.102 C 
HETATM    3  C   UNL     1     -46.660 -51.501  14.089  1.00  0.00     0.092 C 
HETATM    4  C   UNL     1     -47.060 -52.354  15.220  1.00  0.00     0.250 C 
HETATM    5  O   UNL     1     -47.773 -51.922  16.117  1.00  0.00    -0.268 OA
HETATM    6  N   UNL     1     -46.579 -53.632  15.198  1.00  0.00    -0.275 N 
HETATM    7  C   UNL     1     -45.651 -54.122  14.317  1.00  0.00     0.329 C 
HETATM    8  O   UNL     1     -45.229 -55.273  14.419  1.00  0.00    -0.246 OA
HETATM    9  H   UNL     1     -46.850 -54.234  15.957  1.00  0.00     0.173 HD
ENDROOT
BRANCH   1  10
HETATM   10  C   UNL     1     -44.173 -53.663  12.419  1.00  0.00     0.235 C 
BRANCH  10  11
HETATM   11  C   UNL     1     -42.789 -53.244  12.907  1.00  0.00     0.235 C 
HETATM   12  N   UNL     1     -42.198 -54.130  13.782  1.00  0.00    -0.359 N 
HETATM   13  H   UNL     1     -42.672 -55.004  13.990  1.00  0.00     0.162 HD
HETATM   14  O   UNL     1     -42.241 -52.220  12.503  1.00  0.00    -0.272 OA
BRANCH  12  15
HETATM   15  C   UNL     1     -40.897 -53.885  14.375  1.00  0.00     0.126 C 
BRANCH  15  16
HETATM   16  C   UNL     1     -40.739 -54.557  15.749  1.00  0.00    -0.005 C 
HETATM   17  C   UNL     1     -41.944 -55.436  16.089  1.00  0.00     0.011 C 
HETATM   18  C   UNL     1     -39.460 -55.398  15.780  1.00  0.00     0.011 C 
ENDBRANCH  15  16
ENDBRANCH  12  15
ENDBRANCH  10  11
ENDBRANCH   1  10
TORSDOF 4
ENDMDL
MODEL 6
REMARK VINA RESULT:      -4.7      3.102      4.312
REMARK  4 active torsions:
REMARK  status: ('A' for Active; 'I' for Inactive)
REMARK    1  A    between atoms: C_2  and  C_4 
REMARK    2  A    between atoms: C_4  and  N_5 
REMARK       I    between atoms: N_5  and  C_6 
REMARK    3  A    between atoms: C_6  and  C_8 
REMARK    4  A    between atoms: C_8  and  N_9 
ROOT
HETATM    1  N   UNL     1     -41.955 -47.735  11.486  1.00  0.00    -0.301 N 
HETATM    2  C   UNL     1     -43.301 -47.806  11.191  1.00  0.00     0.102 C 
HETATM    3  C   UNL     1     -43.839 -47.105  10.190  1.00  0.00     0.092 C 
HETATM    4  C   UNL     1     -42.963 -46.246   9.377  1.00  0.00     0.250 C 
HETATM    5  O   UNL     1     -43.381 -45.686   8.371  1.00  0.00    -0.268 OA
HETATM    6  N   UNL     1     -41.674 -46.130   9.814  1.00  0.00    -0.275 N 
HETATM    7  C   UNL     1     -41.106 -46.856  10.828  1.00  0.00     0.329 C 
HETATM    8  O   UNL     1     -39.913 -46.728  11.106  1.00  0.00    -0.246 OA
HETATM    9  H   UNL     1     -41.061 -45.539   9.277  1.00  0.00     0.173 HD
ENDROOT
BRANCH   1  10
HETATM   10  C   UNL     1     -41.394 -48.603  12.520  1.00  0.00     0.235 C 
BRANCH  10  11
HETATM   11  C   UNL     1     -41.153 -50.018  12.003  1.00  0.00     0.235 C 
HETATM   12  N   UNL     1     -42.034 -50.962  12.485  1.00  0.00    -0.359 N 
HETATM   13  H   UNL     1     -42.799 -50.659  13.081  1.00  0.00     0.162 HD
HETATM   14  O   UNL     1     -40.272 -50.268  11.183  1.00  0.00    -0.272 OA
BRANCH  12  15
HETATM   15  C   UNL     1     -41.941 -52.365  12.130  1.00  0.00     0.126 C 
BRANCH  15  16
HETATM   16  C   UNL     1     -41.846 -53.281  13.363  1.00  0.00    -0.005 C 
HETATM   17  C   UNL     1     -43.105 -54.133  13.531  1.00  0.00     0.011 C 
HETATM   18  C   UNL     1     -40.619 -54.189  13.251  1.00  0.00     0.011 C 
ENDBRANCH  15  16
ENDBRANCH  12  15
ENDBRANCH  10  11
ENDBRANCH   1  10
TORSDOF 4
ENDMDL
MODEL 7
REMARK VINA RESULT:      -4.6      3.673      5.346
REMARK  4 active torsions:
REMARK  status: ('A' for Active; 'I' for Inactive)
REMARK    1  A    between atoms: C_2  and  C_4 
REMARK    2  A    between atoms: C_4  and  N_5 
REMARK       I    between atoms: N_5  and  C_6 
REMARK    3  A    between atoms: C_6  and  C_8 
REMARK    4  A    between atoms: C_8  and  N_9 
ROOT
HETATM    1  N   UNL     1     -41.275 -47.445  12.015  1.00  0.00    -0.301 N 
HETATM    2  C   UNL     1     -40.392 -46.580  12.629  1.00  0.00     0.102 C 
HETATM    3  C   UNL     1     -39.816 -45.576  11.962  1.00  0.00     0.092 C 
HETATM    4  C   UNL     1     -40.147 -45.386  10.541  1.00  0.00     0.250 C 
HETATM    5  O   UNL     1     -39.748 -44.407   9.923  1.00  0.00    -0.268 OA
HETATM    6  N   UNL     1     -40.925 -46.359   9.978  1.00  0.00    -0.275 N 
HETATM    7  C   UNL     1     -41.535 -47.384  10.653  1.00  0.00     0.329 C 
HETATM    8  O   UNL     1     -42.273 -48.175  10.066  1.00  0.00    -0.246 OA
HETATM    9  H   UNL     1     -41.153 -46.253   9.004  1.00  0.00     0.173 HD
ENDROOT
BRANCH   1  10
HETATM   10  C   UNL     1     -41.963 -48.460  12.810  1.00  0.00     0.235 C 
BRANCH  10  11
HETATM   11  C   UNL     1     -41.291 -49.826  12.691  1.00  0.00     0.235 C 
HETATM   12  N   UNL     1     -42.027 -50.769  12.007  1.00  0.00    -0.359 N 
HETATM   13  H   UNL     1     -42.908 -50.491  11.586  1.00  0.00     0.162 HD
HETATM   14  O   UNL     1     -40.162 -50.034  13.132  1.00  0.00    -0.272 OA
BRANCH  12  15
HETATM   15  C   UNL     1     -41.564 -52.131  11.822  1.00  0.00     0.126 C 
BRANCH  15  16
HETATM   16  C   UNL     1     -41.986 -53.059  12.974  1.00  0.00    -0.005 C 
HETATM   17  C   UNL     1     -43.380 -53.647  12.743  1.00  0.00     0.011 C 
HETATM   18  C   UNL     1     -40.969 -54.191  13.138  1.00  0.00     0.011 C 
ENDBRANCH  15  16
ENDBRANCH  12  15
ENDBRANCH  10  11
ENDBRANCH   1  10
TORSDOF 4
ENDMDL
MODEL 8
REMARK VINA RESULT:      -4.6     21.329     23.186
REMARK  4 active torsions:
REMARK  status: ('A' for Active; 'I' for Inactive)
REMARK    1  A    between atoms: C_2  and  C_4 
REMARK    2  A    between atoms: C_4  and  N_5 
REMARK       I    between atoms: N_5  and  C_6 
REMARK    3  A    between atoms: C_6  and  C_8 
REMARK    4  A    between atoms: C_8  and  N_9 
ROOT
HETATM    1  N   UNL     1     -26.757 -62.507  15.503  1.00  0.00    -0.301 N 
HETATM    2  C   UNL     1     -27.922 -61.781  15.651  1.00  0.00     0.102 C 
HETATM    3  C   UNL     1     -29.123 -62.360  15.583  1.00  0.00     0.092 C 
HETATM    4  C   UNL     1     -29.198 -63.813  15.359  1.00  0.00     0.250 C 
HETATM    5  O   UNL     1     -30.267 -64.409  15.419  1.00  0.00    -0.268 OA
HETATM    6  N   UNL     1     -28.011 -64.434  15.094  1.00  0.00    -0.275 N 
HETATM    7  C   UNL     1     -26.771 -63.856  15.175  1.00  0.00     0.329 C 
HETATM    8  O   UNL     1     -25.751 -64.518  14.981  1.00  0.00    -0.246 OA
HETATM    9  H   UNL     1     -28.042 -65.426  14.927  1.00  0.00     0.173 HD
ENDROOT
BRANCH   1  10
HETATM   10  C   UNL     1     -25.466 -61.850  15.692  1.00  0.00     0.235 C 
BRANCH  10  11
HETATM   11  C   UNL     1     -25.061 -61.809  17.163  1.00  0.00     0.235 C 
HETATM   12  N   UNL     1     -25.126 -63.024  17.809  1.00  0.00    -0.359 N 
HETATM   13  H   UNL     1     -25.368 -63.852  17.273  1.00  0.00     0.162 HD
HETATM   14  O   UNL     1     -24.664 -60.775  17.698  1.00  0.00    -0.272 OA
BRANCH  12  15
HETATM   15  C   UNL     1     -24.810 -63.174  19.217  1.00  0.00     0.126 C 
BRANCH  15  16
HETATM   16  C   UNL     1     -26.030 -63.592  20.055  1.00  0.00    -0.005 C 
HETATM   17  C   UNL     1     -26.380 -62.538  21.107  1.00  0.00     0.011 C 
HETATM   18  C   UNL     1     -27.236 -63.834  19.144  1.00  0.00     0.011 C 
ENDBRANCH  15  16
ENDBRANCH  12  15
ENDBRANCH  10  11
ENDBRANCH   1  10
TORSDOF 4
ENDMDL
MODEL 9
REMARK VINA RESULT:      -4.5      6.159      6.792
REMARK  4 active torsions:
REMARK  status: ('A' for Active; 'I' for Inactive)
REMARK    1  A    between atoms: C_2  and  C_4 
REMARK    2  A    between atoms: C_4  and  N_5 
REMARK       I    between atoms: N_5  and  C_6 
REMARK    3  A    between atoms: C_6  and  C_8 
REMARK    4  A    between atoms: C_8  and  N_9 
ROOT
HETATM    1  N   UNL     1     -45.400 -53.279  14.348  1.00  0.00    -0.301 N 
HETATM    2  C   UNL     1     -46.165 -52.199  14.740  1.00  0.00     0.102 C 
HETATM    3  C   UNL     1     -46.765 -51.404  13.851  1.00  0.00     0.092 C 
HETATM    4  C   UNL     1     -46.611 -51.701  12.417  1.00  0.00     0.250 C 
HETATM    5  O   UNL     1     -47.245 -51.082  11.571  1.00  0.00    -0.268 OA
HETATM    6  N   UNL     1     -45.736 -52.704  12.110  1.00  0.00    -0.275 N 
HETATM    7  C   UNL     1     -45.128 -53.537  13.011  1.00  0.00     0.329 C 
HETATM    8  O   UNL     1     -44.403 -54.458  12.632  1.00  0.00    -0.246 OA
HETATM    9  H   UNL     1     -45.609 -52.915  11.135  1.00  0.00     0.173 HD
ENDROOT
BRANCH   1  10
HETATM   10  C   UNL     1     -44.854 -54.183  15.357  1.00  0.00     0.235 C 
BRANCH  10  11
HETATM   11  C   UNL     1     -43.508 -53.695  15.888  1.00  0.00     0.235 C 
HETATM   12  N   UNL     1     -42.440 -53.947  15.055  1.00  0.00    -0.359 N 
HETATM   13  H   UNL     1     -42.614 -54.367  14.146  1.00  0.00     0.162 HD
HETATM   14  O   UNL     1     -43.413 -53.085  16.951  1.00  0.00    -0.272 OA
BRANCH  12  15
HETATM   15  C   UNL     1     -41.079 -53.585  15.405  1.00  0.00     0.126 C 
BRANCH  15  16
HETATM   16  C   UNL     1     -40.072 -53.932  14.296  1.00  0.00    -0.005 C 
HETATM   17  C   UNL     1     -40.768 -54.158  12.953  1.00  0.00     0.011 C 
HETATM   18  C   UNL     1     -39.034 -52.815  14.159  1.00  0.00     0.011 C 
ENDBRANCH  15  16
ENDBRANCH  12  15
ENDBRANCH  10  11
ENDBRANCH   1  10
TORSDOF 4
ENDMDL
