MODEL 1
REMARK VINA RESULT:      -5.0      0.000      0.000
REMARK  7 active torsions:
REMARK  status: ('A' for Active; 'I' for Inactive)
REMARK    1  A    between atoms: C_2  and  N_4 
REMARK       I    between atoms: N_4  and  C_5 
REMARK    2  A    between atoms: C_5  and  C_7 
REMARK    3  A    between atoms: C_7  and  C_8 
REMARK    4  A    between atoms: C_8  and  N_9 
REMARK    5  A    between atoms: N_9  and  C_10 
REMARK    6  A    between atoms: C_10  and  C_11 
REMARK    7  A    between atoms: C_11  and  N_12 
ROOT
HETATM    1  N   UNL     1     -42.127 -50.803  11.925  1.00  0.00     0.085 N 
HETATM    2  H   UNL     1     -42.759 -50.704  11.129  1.00  0.00     0.315 HD
ENDROOT
BRANCH   1   3
HETATM    3  C   UNL     1     -40.835 -50.180  11.593  1.00  0.00     0.278 C 
BRANCH   3   4
HETATM    4  C   UNL     1     -40.900 -48.670  11.362  1.00  0.00     0.132 C 
BRANCH   4   5
HETATM    5  C   UNL     1     -42.260 -48.255  10.847  1.00  0.00     0.219 C 
HETATM    6  N   UNL     1     -42.275 -48.041   9.483  1.00  0.00    -0.357 N 
HETATM    7  H   UNL     1     -41.389 -47.985   8.996  1.00  0.00     0.162 HD
HETATM    8  O   UNL     1     -43.246 -48.122  11.564  1.00  0.00    -0.274 OA
BRANCH   6   9
HETATM    9  C   UNL     1     -43.464 -47.544   8.808  1.00  0.00     0.076 C 
HETATM   10  C   UNL     1     -43.499 -46.018   8.833  1.00  0.00     0.032 C 
HETATM   11  C   UNL     1     -43.509 -48.072   7.380  1.00  0.00     0.032 C 
ENDBRANCH   6   9
ENDBRANCH   4   5
ENDBRANCH   3   4
ENDBRANCH   1   3
BRANCH   1  12
HETATM   12  C   UNL     1     -42.034 -52.228  12.286  1.00  0.00     0.291 C 
BRANCH  12  13
HETATM   13  C   UNL     1     -42.919 -52.642  13.467  1.00  0.00     0.178 C 
BRANCH  13  14
HETATM   14  N   UNL     1     -44.304 -52.263  13.271  1.00  0.00    -0.302 N 
HETATM   15  C   UNL     1     -45.051 -51.443  14.066  1.00  0.00     0.111 A 
HETATM   16  C   UNL     1     -46.317 -51.445  13.527  1.00  0.00     0.037 A 
HETATM   17  C   UNL     1     -46.232 -52.300  12.415  1.00  0.00     0.108 A 
HETATM   18  N   UNL     1     -45.008 -52.808  12.255  1.00  0.00    -0.310 N 
ATOM     19  HN  UNL     1     -44.682 -53.454  11.536  1.00  0.00     0.186 HD
ENDBRANCH  13  14
ENDBRANCH  12  13
ENDBRANCH   1  12
TORSDOF 7
ENDMDL
MODEL 2
REMARK VINA RESULT:      -4.9      1.577      1.885
REMARK  7 active torsions:
REMARK  status: ('A' for Active; 'I' for Inactive)
REMARK    1  A    between atoms: C_2  and  N_4 
REMARK       I    between atoms: N_4  and  C_5 
REMARK    2  A    between atoms: C_5  and  C_7 
REMARK    3  A    between atoms: C_7  and  C_8 
REMARK    4  A    between atoms: C_8  and  N_9 
REMARK    5  A    between atoms: N_9  and  C_10 
REMARK    6  A    between atoms: C_10  and  C_11 
REMARK    7  A    between atoms: C_11  and  N_12 
ROOT
HETATM    1  N   UNL     1     -40.976 -50.600  11.259  1.00  0.00     0.085 N 
HETATM    2  H   UNL     1     -40.853 -51.187  10.433  1.00  0.00     0.315 HD
ENDROOT
BRANCH   1   3
HETATM    3  C   UNL     1     -39.976 -49.520  11.235  1.00  0.00     0.278 C 
BRANCH   3   4
HETATM    4  C   UNL     1     -40.566 -48.109  11.259  1.00  0.00     0.132 C 
BRANCH   4   5
HETATM    5  C   UNL     1     -42.014 -48.116  10.821  1.00  0.00     0.219 C 
HETATM    6  N   UNL     1     -42.183 -47.693   9.518  1.00  0.00    -0.357 N 
HETATM    7  H   UNL     1     -41.400 -47.248   9.052  1.00  0.00     0.162 HD
HETATM    8  O   UNL     1     -42.941 -48.460  11.546  1.00  0.00    -0.274 OA
BRANCH   6   9
HETATM    9  C   UNL     1     -43.507 -47.537   8.938  1.00  0.00     0.076 C 
HETATM   10  C   UNL     1     -43.992 -46.097   9.081  1.00  0.00     0.032 C 
HETATM   11  C   UNL     1     -43.489 -47.968   7.477  1.00  0.00     0.032 C 
ENDBRANCH   6   9
ENDBRANCH   4   5
ENDBRANCH   3   4
ENDBRANCH   1   3
BRANCH   1  12
HETATM   12  C   UNL     1     -40.918 -51.449  12.461  1.00  0.00     0.291 C 
BRANCH  12  13
HETATM   13  C   UNL     1     -41.085 -52.948  12.187  1.00  0.00     0.178 C 
BRANCH  13  14
HETATM   14  N   UNL     1     -42.313 -53.473  12.750  1.00  0.00    -0.302 N 
HETATM   15  C   UNL     1     -42.442 -54.218  13.886  1.00  0.00     0.111 A 
HETATM   16  C   UNL     1     -43.774 -54.548  13.973  1.00  0.00     0.037 A 
HETATM   17  C   UNL     1     -44.363 -53.961  12.840  1.00  0.00     0.108 A 
HETATM   18  N   UNL     1     -43.476 -53.307  12.085  1.00  0.00    -0.310 N 
ATOM     19  HN  UNL     1     -43.640 -52.803  11.214  1.00  0.00     0.186 HD
ENDBRANCH  13  14
ENDBRANCH  12  13
ENDBRANCH   1  12
TORSDOF 7
ENDMDL
MODEL 3
REMARK VINA RESULT:      -4.8      4.027      5.679
REMARK  7 active torsions:
REMARK  status: ('A' for Active; 'I' for Inactive)
REMARK    1  A    between atoms: C_2  and  N_4 
REMARK       I    between atoms: N_4  and  C_5 
REMARK    2  A    between atoms: C_5  and  C_7 
REMARK    3  A    between atoms: C_7  and  C_8 
REMARK    4  A    between atoms: C_8  and  N_9 
REMARK    5  A    between atoms: N_9  and  C_10 
REMARK    6  A    between atoms: C_10  and  C_11 
REMARK    7  A    between atoms: C_11  and  N_12 
ROOT
HETATM    1  N   UNL     1     -41.360 -47.158  10.133  1.00  0.00     0.085 N 
HETATM    2  H   UNL     1     -41.234 -48.127  10.427  1.00  0.00     0.315 HD
ENDROOT
BRANCH   1   3
HETATM    3  C   UNL     1     -40.773 -46.268  11.147  1.00  0.00     0.278 C 
BRANCH   3   4
HETATM    4  C   UNL     1     -40.404 -46.959  12.461  1.00  0.00     0.132 C 
BRANCH   4   5
HETATM    5  C   UNL     1     -40.136 -48.432  12.244  1.00  0.00     0.219 C 
HETATM    6  N   UNL     1     -38.790 -48.727  12.166  1.00  0.00    -0.357 N 
HETATM    7  H   UNL     1     -38.135 -47.961  12.064  1.00  0.00     0.162 HD
HETATM    8  O   UNL     1     -41.021 -49.276  12.147  1.00  0.00    -0.274 OA
BRANCH   6   9
HETATM    9  C   UNL     1     -38.326 -50.072  11.865  1.00  0.00     0.076 C 
HETATM   10  C   UNL     1     -37.173 -50.034  10.866  1.00  0.00     0.032 C 
HETATM   11  C   UNL     1     -37.916 -50.780  13.150  1.00  0.00     0.032 C 
ENDBRANCH   6   9
ENDBRANCH   4   5
ENDBRANCH   3   4
ENDBRANCH   1   3
BRANCH   1  12
HETATM   12  C   UNL     1     -42.791 -46.920   9.878  1.00  0.00     0.291 C 
BRANCH  12  13
HETATM   13  C   UNL     1     -43.271 -47.367   8.492  1.00  0.00     0.178 C 
BRANCH  13  14
HETATM   14  N   UNL     1     -44.662 -47.771   8.500  1.00  0.00    -0.302 N 
HETATM   15  C   UNL     1     -45.578 -47.545   9.487  1.00  0.00     0.111 A 
HETATM   16  C   UNL     1     -46.731 -48.178   9.086  1.00  0.00     0.037 A 
HETATM   17  C   UNL     1     -46.408 -48.762   7.849  1.00  0.00     0.108 A 
HETATM   18  N   UNL     1     -45.145 -48.523   7.487  1.00  0.00    -0.310 N 
ATOM     19  HN  UNL     1     -44.660 -48.834   6.646  1.00  0.00     0.186 HD
ENDBRANCH  13  14
ENDBRANCH  12  13
ENDBRANCH   1  12
TORSDOF 7
ENDMDL
MODEL 4
REMARK VINA RESULT:      -4.8      2.910      6.380
REMARK  7 active torsions:
REMARK  status: ('A' for Active; 'I' for Inactive)
REMARK    1  A    between atoms: C_2  and  N_4 
REMARK       I    between atoms: N_4  and  C_5 
REMARK    2  A    between atoms: C_5  and  C_7 
REMARK    3  A    between atoms: C_7  and  C_8 
REMARK    4  A    between atoms: C_8  and  N_9 
REMARK    5  A    between atoms: N_9  and  C_10 
REMARK    6  A    between atoms: C_10  and  C_11 
REMARK    7  A    between atoms: C_11  and  N_12 
ROOT
HETATM    1  N   UNL     1     -42.689 -53.867  12.539  1.00  0.00     0.085 N 
HETATM    2  H   UNL     1     -43.675 -54.048  12.345  1.00  0.00     0.315 HD
ENDROOT
BRANCH   1   3
HETATM    3  C   UNL     1     -42.389 -54.273  13.922  1.00  0.00     0.278 C 
BRANCH   3   4
HETATM    4  C   UNL     1     -43.580 -54.860  14.683  1.00  0.00     0.132 C 
BRANCH   4   5
HETATM    5  C   UNL     1     -44.889 -54.359  14.115  1.00  0.00     0.219 C 
HETATM    6  N   UNL     1     -45.310 -53.180  14.697  1.00  0.00    -0.357 N 
HETATM    7  H   UNL     1     -44.845 -52.868  15.541  1.00  0.00     0.162 HD
HETATM    8  O   UNL     1     -45.513 -54.939  13.233  1.00  0.00    -0.274 OA
BRANCH   6   9
HETATM    9  C   UNL     1     -46.592 -52.584  14.358  1.00  0.00     0.076 C 
HETATM   10  C   UNL     1     -47.205 -51.895  15.575  1.00  0.00     0.032 C 
HETATM   11  C   UNL     1     -46.423 -51.607  13.201  1.00  0.00     0.032 C 
ENDBRANCH   6   9
ENDBRANCH   4   5
ENDBRANCH   3   4
ENDBRANCH   1   3
BRANCH   1  12
HETATM   12  C   UNL     1     -42.398 -52.452  12.250  1.00  0.00     0.291 C 
BRANCH  12  13
HETATM   13  C   UNL     1     -40.906 -52.128  12.111  1.00  0.00     0.178 C 
BRANCH  13  14
HETATM   14  N   UNL     1     -40.677 -50.728  11.815  1.00  0.00    -0.302 N 
HETATM   15  C   UNL     1     -39.528 -50.022  12.023  1.00  0.00     0.111 A 
HETATM   16  C   UNL     1     -39.810 -48.724  11.665  1.00  0.00     0.037 A 
HETATM   17  C   UNL     1     -41.156 -48.749  11.261  1.00  0.00     0.108 A 
HETATM   18  N   UNL     1     -41.694 -49.968  11.354  1.00  0.00    -0.310 N 
ATOM     19  HN  UNL     1     -42.647 -50.256  11.131  1.00  0.00     0.186 HD
ENDBRANCH  13  14
ENDBRANCH  12  13
ENDBRANCH   1  12
TORSDOF 7
ENDMDL
MODEL 5
REMARK VINA RESULT:      -4.8      2.013      5.603
REMARK  7 active torsions:
REMARK  status: ('A' for Active; 'I' for Inactive)
REMARK    1  A    between atoms: C_2  and  N_4 
REMARK       I    between atoms: N_4  and  C_5 
REMARK    2  A    between atoms: C_5  and  C_7 
REMARK    3  A    between atoms: C_7  and  C_8 
REMARK    4  A    between atoms: C_8  and  N_9 
REMARK    5  A    between atoms: N_9  and  C_10 
REMARK    6  A    between atoms: C_10  and  C_11 
REMARK    7  A    between atoms: C_11  and  N_12 
ROOT
HETATM    1  N   UNL     1     -41.099 -50.566  13.005  1.00  0.00     0.085 N 
HETATM    2  H   UNL     1     -40.676 -51.254  13.629  1.00  0.00     0.315 HD
ENDROOT
BRANCH   1   3
HETATM    3  C   UNL     1     -42.451 -51.017  12.636  1.00  0.00     0.278 C 
BRANCH   3   4
HETATM    4  C   UNL     1     -42.567 -52.518  12.367  1.00  0.00     0.132 C 
BRANCH   4   5
HETATM    5  C   UNL     1     -44.005 -52.977  12.454  1.00  0.00     0.219 C 
HETATM    6  N   UNL     1     -44.889 -51.937  12.663  1.00  0.00    -0.357 N 
HETATM    7  H   UNL     1     -44.513 -51.034  12.926  1.00  0.00     0.162 HD
HETATM    8  O   UNL     1     -44.352 -54.149  12.350  1.00  0.00    -0.274 OA
BRANCH   6   9
HETATM    9  C   UNL     1     -46.308 -52.179  12.869  1.00  0.00     0.076 C 
HETATM   10  C   UNL     1     -46.802 -51.454  14.118  1.00  0.00     0.032 C 
HETATM   11  C   UNL     1     -47.094 -51.749  11.637  1.00  0.00     0.032 C 
ENDBRANCH   6   9
ENDBRANCH   4   5
ENDBRANCH   3   4
ENDBRANCH   1   3
BRANCH   1  12
HETATM   12  C   UNL     1     -40.202 -50.349  11.857  1.00  0.00     0.291 C 
BRANCH  12  13
HETATM   13  C   UNL     1     -39.875 -48.878  11.577  1.00  0.00     0.178 C 
BRANCH  13  14
HETATM   14  N   UNL     1     -41.023 -48.148  11.077  1.00  0.00    -0.302 N 
HETATM   15  C   UNL     1     -41.678 -47.124  11.696  1.00  0.00     0.111 A 
HETATM   16  C   UNL     1     -42.741 -46.807  10.883  1.00  0.00     0.037 A 
HETATM   17  C   UNL     1     -42.643 -47.700   9.802  1.00  0.00     0.108 A 
HETATM   18  N   UNL     1     -41.600 -48.526   9.916  1.00  0.00    -0.310 N 
ATOM     19  HN  UNL     1     -41.310 -49.267   9.278  1.00  0.00     0.186 HD
ENDBRANCH  13  14
ENDBRANCH  12  13
ENDBRANCH   1  12
TORSDOF 7
ENDMDL
MODEL 6
REMARK VINA RESULT:      -4.8      1.504      1.930
REMARK  7 active torsions:
REMARK  status: ('A' for Active; 'I' for Inactive)
REMARK    1  A    between atoms: C_2  and  N_4 
REMARK       I    between atoms: N_4  and  C_5 
REMARK    2  A    between atoms: C_5  and  C_7 
REMARK    3  A    between atoms: C_7  and  C_8 
REMARK    4  A    between atoms: C_8  and  N_9 
REMARK    5  A    between atoms: N_9  and  C_10 
REMARK    6  A    between atoms: C_10  and  C_11 
REMARK    7  A    between atoms: C_11  and  N_12 
ROOT
HETATM    1  N   UNL     1     -42.425 -52.717  11.730  1.00  0.00     0.085 N 
HETATM    2  H   UNL     1     -42.464 -53.275  10.876  1.00  0.00     0.315 HD
ENDROOT
BRANCH   1   3
HETATM    3  C   UNL     1     -41.090 -52.108  11.845  1.00  0.00     0.278 C 
BRANCH   3   4
HETATM    4  C   UNL     1     -41.062 -50.780  12.605  1.00  0.00     0.132 C 
BRANCH   4   5
HETATM    5  C   UNL     1     -42.288 -49.950  12.295  1.00  0.00     0.219 C 
HETATM    6  N   UNL     1     -42.073 -49.029  11.290  1.00  0.00    -0.357 N 
HETATM    7  H   UNL     1     -41.119 -48.853  10.995  1.00  0.00     0.162 HD
HETATM    8  O   UNL     1     -43.360 -50.079  12.877  1.00  0.00    -0.274 OA
BRANCH   6   9
HETATM    9  C   UNL     1     -43.098 -48.070  10.909  1.00  0.00     0.076 C 
HETATM   10  C   UNL     1     -43.037 -46.833  11.802  1.00  0.00     0.032 C 
HETATM   11  C   UNL     1     -42.941 -47.696   9.441  1.00  0.00     0.032 C 
ENDBRANCH   6   9
ENDBRANCH   4   5
ENDBRANCH   3   4
ENDBRANCH   1   3
BRANCH   1  12
HETATM   12  C   UNL     1     -42.799 -53.568  12.872  1.00  0.00     0.291 C 
BRANCH  12  13
HETATM   13  C   UNL     1     -44.254 -54.050  12.854  1.00  0.00     0.178 C 
BRANCH  13  14
HETATM   14  N   UNL     1     -45.190 -52.971  13.098  1.00  0.00    -0.302 N 
HETATM   15  C   UNL     1     -45.659 -52.549  14.309  1.00  0.00     0.111 A 
HETATM   16  C   UNL     1     -46.576 -51.561  14.036  1.00  0.00     0.037 A 
HETATM   17  C   UNL     1     -46.594 -51.466  12.634  1.00  0.00     0.108 A 
HETATM   18  N   UNL     1     -45.755 -52.327  12.054  1.00  0.00    -0.310 N 
ATOM     19  HN  UNL     1     -45.581 -52.466  11.058  1.00  0.00     0.186 HD
ENDBRANCH  13  14
ENDBRANCH  12  13
ENDBRANCH   1  12
TORSDOF 7
ENDMDL
MODEL 7
REMARK VINA RESULT:      -4.7      2.999      6.156
REMARK  7 active torsions:
REMARK  status: ('A' for Active; 'I' for Inactive)
REMARK    1  A    between atoms: C_2  and  N_4 
REMARK       I    between atoms: N_4  and  C_5 
REMARK    2  A    between atoms: C_5  and  C_7 
REMARK    3  A    between atoms: C_7  and  C_8 
REMARK    4  A    between atoms: C_8  and  N_9 
REMARK    5  A    between atoms: N_9  and  C_10 
REMARK    6  A    between atoms: C_10  and  C_11 
REMARK    7  A    between atoms: C_11  and  N_12 
ROOT
HETATM    1  N   UNL     1     -41.894 -50.863  13.460  1.00  0.00     0.085 N 
HETATM    2  H   UNL     1     -41.014 -50.645  13.929  1.00  0.00     0.315 HD
ENDROOT
BRANCH   1   3
HETATM    3  C   UNL     1     -42.123 -52.316  13.521  1.00  0.00     0.278 C 
BRANCH   3   4
HETATM    4  C   UNL     1     -42.721 -52.917  12.247  1.00  0.00     0.132 C 
BRANCH   4   5
HETATM    5  C   UNL     1     -44.188 -53.236  12.433  1.00  0.00     0.219 C 
HETATM    6  N   UNL     1     -44.987 -52.110  12.435  1.00  0.00    -0.357 N 
HETATM    7  H   UNL     1     -44.539 -51.204  12.509  1.00  0.00     0.162 HD
HETATM    8  O   UNL     1     -44.623 -54.374  12.569  1.00  0.00    -0.274 OA
BRANCH   6   9
HETATM    9  C   UNL     1     -46.415 -52.195  12.695  1.00  0.00     0.076 C 
HETATM   10  C   UNL     1     -46.773 -51.458  13.983  1.00  0.00     0.032 C 
HETATM   11  C   UNL     1     -47.194 -51.639  11.509  1.00  0.00     0.032 C 
ENDBRANCH   6   9
ENDBRANCH   4   5
ENDBRANCH   3   4
ENDBRANCH   1   3
BRANCH   1  12
HETATM   12  C   UNL     1     -41.855 -50.315  12.094  1.00  0.00     0.291 C 
BRANCH  12  13
HETATM   13  C   UNL     1     -40.978 -49.068  11.935  1.00  0.00     0.178 C 
BRANCH  13  14
HETATM   14  N   UNL     1     -39.566 -49.378  12.030  1.00  0.00    -0.302 N 
HETATM   15  C   UNL     1     -38.734 -49.105  13.078  1.00  0.00     0.111 A 
HETATM   16  C   UNL     1     -37.481 -49.509  12.682  1.00  0.00     0.037 A 
HETATM   17  C   UNL     1     -37.660 -50.005  11.379  1.00  0.00     0.108 A 
HETATM   18  N   UNL     1     -38.929 -49.924  10.972  1.00  0.00    -0.310 N 
ATOM     19  HN  UNL     1     -39.323 -50.206  10.075  1.00  0.00     0.186 HD
ENDBRANCH  13  14
ENDBRANCH  12  13
ENDBRANCH   1  12
TORSDOF 7
ENDMDL
MODEL 8
REMARK VINA RESULT:      -4.7      2.307      5.920
REMARK  7 active torsions:
REMARK  status: ('A' for Active; 'I' for Inactive)
REMARK    1  A    between atoms: C_2  and  N_4 
REMARK       I    between atoms: N_4  and  C_5 
REMARK    2  A    between atoms: C_5  and  C_7 
REMARK    3  A    between atoms: C_7  and  C_8 
REMARK    4  A    between atoms: C_8  and  N_9 
REMARK    5  A    between atoms: N_9  and  C_10 
REMARK    6  A    between atoms: C_10  and  C_11 
REMARK    7  A    between atoms: C_11  and  N_12 
ROOT
HETATM    1  N   UNL     1     -42.972 -48.405  10.667  1.00  0.00     0.085 N 
HETATM    2  H   UNL     1     -43.500 -47.750  11.246  1.00  0.00     0.315 HD
ENDROOT
BRANCH   1   3
HETATM    3  C   UNL     1     -41.818 -48.902  11.434  1.00  0.00     0.278 C 
BRANCH   3   4
HETATM    4  C   UNL     1     -42.185 -49.741  12.660  1.00  0.00     0.132 C 
BRANCH   4   5
HETATM    5  C   UNL     1     -41.985 -51.216  12.390  1.00  0.00     0.219 C 
HETATM    6  N   UNL     1     -42.971 -52.002  12.951  1.00  0.00    -0.357 N 
HETATM    7  H   UNL     1     -43.599 -51.578  13.624  1.00  0.00     0.162 HD
HETATM    8  O   UNL     1     -41.046 -51.666  11.744  1.00  0.00    -0.274 OA
BRANCH   6   9
HETATM    9  C   UNL     1     -42.909 -53.454  12.887  1.00  0.00     0.076 C 
HETATM   10  C   UNL     1     -42.190 -54.016  14.110  1.00  0.00     0.032 C 
HETATM   11  C   UNL     1     -44.314 -54.030  12.763  1.00  0.00     0.032 C 
ENDBRANCH   6   9
ENDBRANCH   4   5
ENDBRANCH   3   4
ENDBRANCH   1   3
BRANCH   1  12
HETATM   12  C   UNL     1     -42.614 -47.741   9.402  1.00  0.00     0.291 C 
BRANCH  12  13
HETATM   13  C   UNL     1     -43.650 -46.728   8.902  1.00  0.00     0.178 C 
BRANCH  13  14
HETATM   14  N   UNL     1     -44.959 -47.326   8.729  1.00  0.00    -0.302 N 
HETATM   15  C   UNL     1     -46.102 -47.009   9.405  1.00  0.00     0.111 A 
HETATM   16  C   UNL     1     -47.061 -47.888   8.960  1.00  0.00     0.037 A 
HETATM   17  C   UNL     1     -46.397 -48.698   8.023  1.00  0.00     0.108 A 
HETATM   18  N   UNL     1     -45.112 -48.365   7.880  1.00  0.00    -0.310 N 
ATOM     19  HN  UNL     1     -44.412 -48.794   7.275  1.00  0.00     0.186 HD
ENDBRANCH  13  14
ENDBRANCH  12  13
ENDBRANCH   1  12
TORSDOF 7
ENDMDL
MODEL 9
REMARK VINA RESULT:      -4.6      1.758      5.761
REMARK  7 active torsions:
REMARK  status: ('A' for Active; 'I' for Inactive)
REMARK    1  A    between atoms: C_2  and  N_4 
REMARK       I    between atoms: N_4  and  C_5 
REMARK    2  A    between atoms: C_5  and  C_7 
REMARK    3  A    between atoms: C_7  and  C_8 
REMARK    4  A    between atoms: C_8  and  N_9 
REMARK    5  A    between atoms: N_9  and  C_10 
REMARK    6  A    between atoms: C_10  and  C_11 
REMARK    7  A    between atoms: C_11  and  N_12 
ROOT
HETATM    1  N   UNL     1     -41.132 -49.673  12.779  1.00  0.00     0.085 N 
HETATM    2  H   UNL     1     -40.164 -49.710  12.456  1.00  0.00     0.315 HD
ENDROOT
BRANCH   1   3
HETATM    3  C   UNL     1     -41.526 -51.003  13.271  1.00  0.00     0.278 C 
BRANCH   3   4
HETATM    4  C   UNL     1     -42.044 -51.952  12.188  1.00  0.00     0.132 C 
BRANCH   4   5
HETATM    5  C   UNL     1     -43.352 -52.588  12.602  1.00  0.00     0.219 C 
HETATM    6  N   UNL     1     -44.397 -51.686  12.646  1.00  0.00    -0.357 N 
HETATM    7  H   UNL     1     -44.180 -50.697  12.597  1.00  0.00     0.162 HD
HETATM    8  O   UNL     1     -43.474 -53.777  12.871  1.00  0.00    -0.274 OA
BRANCH   6   9
HETATM    9  C   UNL     1     -45.717 -52.078  13.113  1.00  0.00     0.076 C 
HETATM   10  C   UNL     1     -46.048 -51.389  14.434  1.00  0.00     0.032 C 
HETATM   11  C   UNL     1     -46.761 -51.759  12.050  1.00  0.00     0.032 C 
ENDBRANCH   6   9
ENDBRANCH   4   5
ENDBRANCH   3   4
ENDBRANCH   1   3
BRANCH   1  12
HETATM   12  C   UNL     1     -41.977 -49.159  11.688  1.00  0.00     0.291 C 
BRANCH  12  13
HETATM   13  C   UNL     1     -41.347 -48.019  10.880  1.00  0.00     0.178 C 
BRANCH  13  14
HETATM   14  N   UNL     1     -42.281 -47.435   9.939  1.00  0.00    -0.302 N 
HETATM   15  C   UNL     1     -42.827 -46.185   9.992  1.00  0.00     0.111 A 
HETATM   16  C   UNL     1     -43.708 -46.112   8.938  1.00  0.00     0.037 A 
HETATM   17  C   UNL     1     -43.625 -47.368   8.314  1.00  0.00     0.108 A 
HETATM   18  N   UNL     1     -42.760 -48.184   8.922  1.00  0.00    -0.310 N 
ATOM     19  HN  UNL     1     -42.519 -49.144   8.677  1.00  0.00     0.186 HD
ENDBRANCH  13  14
ENDBRANCH  12  13
ENDBRANCH   1  12
TORSDOF 7
ENDMDL
