MODEL 1
REMARK VINA RESULT:      -6.4      0.000      0.000
REMARK  4 active torsions:
REMARK  status: ('A' for Active; 'I' for Inactive)
REMARK       I    between atoms: N_2  and  C_3 
REMARK    1  A    between atoms: C_3  and  C_5 
REMARK    2  A    between atoms: C_8  and  N_11 
REMARK       I    between atoms: N_11  and  C_12 
REMARK       I    between atoms: C_12  and  N_14 
REMARK    3  A    between atoms: N_14  and  C_15 
REMARK    4  A    between atoms: C_19  and  C_23 
ROOT
HETATM    1  N   UNL     1     -43.980 -50.763  12.611  1.00  0.00    -0.338 N 
HETATM    2  C   UNL     1     -43.014 -49.785  12.597  1.00  0.00     0.321 C 
HETATM    3  O   UNL     1     -42.006 -49.825  13.286  1.00  0.00    -0.247 OA
HETATM    4  N   UNL     1     -43.371 -48.740  11.774  1.00  0.00    -0.306 N 
HETATM    5  H   UNL     1     -44.438 -50.937  11.728  1.00  0.00     0.164 HD
HETATM    6  H   UNL     1     -44.368 -48.602  11.694  1.00  0.00     0.171 HD
ENDROOT
BRANCH   1   7
HETATM    7  C   UNL     1     -43.881 -51.868  13.560  1.00  0.00     0.086 C 
HETATM    8  C   UNL     1     -44.713 -53.082  13.121  1.00  0.00     0.026 C 
HETATM    9  C   UNL     1     -46.214 -52.881  13.328  1.00  0.00     0.016 C 
HETATM   10  C   UNL     1     -46.553 -52.495  14.776  1.00  0.00     0.078 C 
HETATM   11  C   UNL     1     -45.753 -51.253  15.190  1.00  0.00     0.016 C 
HETATM   12  C   UNL     1     -44.245 -51.401  14.970  1.00  0.00     0.026 C 
BRANCH  10  13
HETATM   13  C   UNL     1     -46.347 -53.666  15.744  1.00  0.00     0.221 C 
HETATM   14  N   UNL     1     -46.102 -53.288  17.046  1.00  0.00    -0.365 N 
HETATM   15  C   UNL     1     -45.976 -54.272  18.089  1.00  0.00     0.149 C 
HETATM   16  H   UNL     1     -45.987 -52.310  17.278  1.00  0.00     0.161 HD
HETATM   17  O   UNL     1     -46.391 -54.842  15.399  1.00  0.00    -0.273 OA
ENDBRANCH  10  13
ENDBRANCH   1   7
BRANCH   4  18
HETATM   18  C   UNL     1     -42.544 -47.610  11.614  1.00  0.00     0.067 A 
HETATM   19  C   UNL     1     -42.648 -46.461  12.371  1.00  0.00     0.120 A 
HETATM   20  N   UNL     1     -41.844 -45.386  12.218  1.00  0.00    -0.353 N 
HETATM   21  C   UNL     1     -40.910 -45.452  11.251  1.00  0.00     0.088 A 
ATOM     22  HN  UNL     1     -41.940 -44.561  12.810  1.00  0.00     0.166 HD
HETATM   23  N   UNL     1     -40.734 -46.528  10.451  1.00  0.00    -0.353 N 
HETATM   24  C   UNL     1     -41.549 -47.584  10.662  1.00  0.00     0.120 A 
ATOM     25  HN  UNL     1     -40.020 -46.540   9.723  1.00  0.00     0.166 HD
BRANCH  21  26
HETATM   26  C   UNL     1     -39.954 -44.275  11.076  1.00  0.00     0.007 C 
HETATM   27  C   UNL     1     -38.951 -44.172  12.243  1.00  0.00     0.022 C 
HETATM   28  C   UNL     1     -39.162 -44.475   9.771  1.00  0.00     0.022 C 
HETATM   29  C   UNL     1     -40.749 -42.961  11.002  1.00  0.00     0.022 C 
ENDBRANCH  21  26
ENDBRANCH   4  18
TORSDOF 4
ENDMDL
MODEL 2
REMARK VINA RESULT:      -6.3      4.340      5.325
REMARK  4 active torsions:
REMARK  status: ('A' for Active; 'I' for Inactive)
REMARK       I    between atoms: N_2  and  C_3 
REMARK    1  A    between atoms: C_3  and  C_5 
REMARK    2  A    between atoms: C_8  and  N_11 
REMARK       I    between atoms: N_11  and  C_12 
REMARK       I    between atoms: C_12  and  N_14 
REMARK    3  A    between atoms: N_14  and  C_15 
REMARK    4  A    between atoms: C_19  and  C_23 
ROOT
HETATM    1  N   UNL     1     -40.647 -51.998  14.080  1.00  0.00    -0.338 N 
HETATM    2  C   UNL     1     -41.250 -51.477  12.960  1.00  0.00     0.321 C 
HETATM    3  O   UNL     1     -41.569 -52.152  11.992  1.00  0.00    -0.247 OA
HETATM    4  N   UNL     1     -41.369 -50.108  13.046  1.00  0.00    -0.306 N 
HETATM    5  H   UNL     1     -40.896 -51.557  14.954  1.00  0.00     0.164 HD
HETATM    6  H   UNL     1     -40.653 -49.667  13.604  1.00  0.00     0.171 HD
ENDROOT
BRANCH   1   7
HETATM    7  C   UNL     1     -40.259 -53.405  14.110  1.00  0.00     0.086 C 
HETATM    8  C   UNL     1     -41.242 -54.258  14.926  1.00  0.00     0.026 C 
HETATM    9  C   UNL     1     -41.090 -54.061  16.434  1.00  0.00     0.016 C 
HETATM   10  C   UNL     1     -39.649 -54.303  16.908  1.00  0.00     0.078 C 
HETATM   11  C   UNL     1     -38.678 -53.412  16.120  1.00  0.00     0.016 C 
HETATM   12  C   UNL     1     -38.819 -53.556  14.602  1.00  0.00     0.026 C 
BRANCH  10  13
HETATM   13  C   UNL     1     -39.263 -55.786  16.835  1.00  0.00     0.221 C 
HETATM   14  N   UNL     1     -40.131 -56.630  17.491  1.00  0.00    -0.365 N 
HETATM   15  C   UNL     1     -39.954 -58.057  17.438  1.00  0.00     0.149 C 
HETATM   16  H   UNL     1     -40.894 -56.250  18.037  1.00  0.00     0.161 HD
HETATM   17  O   UNL     1     -38.267 -56.195  16.248  1.00  0.00    -0.273 OA
ENDBRANCH  10  13
ENDBRANCH   1   7
BRANCH   4  18
HETATM   18  C   UNL     1     -41.942 -49.350  12.004  1.00  0.00     0.067 A 
HETATM   19  C   UNL     1     -41.266 -48.970  10.863  1.00  0.00     0.120 A 
HETATM   20  N   UNL     1     -41.824 -48.252   9.864  1.00  0.00    -0.353 N 
HETATM   21  C   UNL     1     -43.107 -47.877  10.022  1.00  0.00     0.088 A 
ATOM     22  HN  UNL     1     -41.297 -48.005   9.026  1.00  0.00     0.166 HD
HETATM   23  N   UNL     1     -43.851 -48.190  11.107  1.00  0.00    -0.353 N 
HETATM   24  C   UNL     1     -43.252 -48.929  12.064  1.00  0.00     0.120 A 
ATOM     25  HN  UNL     1     -44.820 -47.882  11.197  1.00  0.00     0.166 HD
BRANCH  21  26
HETATM   26  C   UNL     1     -43.787 -47.102   8.896  1.00  0.00     0.007 C 
HETATM   27  C   UNL     1     -45.321 -47.091   9.052  1.00  0.00     0.022 C 
HETATM   28  C   UNL     1     -43.284 -45.648   8.927  1.00  0.00     0.022 C 
HETATM   29  C   UNL     1     -43.442 -47.739   7.539  1.00  0.00     0.022 C 
ENDBRANCH  21  26
ENDBRANCH   4  18
TORSDOF 4
ENDMDL
MODEL 3
REMARK VINA RESULT:      -6.3      5.296      7.940
REMARK  4 active torsions:
REMARK  status: ('A' for Active; 'I' for Inactive)
REMARK       I    between atoms: N_2  and  C_3 
REMARK    1  A    between atoms: C_3  and  C_5 
REMARK    2  A    between atoms: C_8  and  N_11 
REMARK       I    between atoms: N_11  and  C_12 
REMARK       I    between atoms: C_12  and  N_14 
REMARK    3  A    between atoms: N_14  and  C_15 
REMARK    4  A    between atoms: C_19  and  C_23 
ROOT
HETATM    1  N   UNL     1     -39.333 -47.793  14.975  1.00  0.00    -0.338 N 
HETATM    2  C   UNL     1     -39.943 -47.432  13.797  1.00  0.00     0.321 C 
HETATM    3  O   UNL     1     -39.491 -46.591  13.036  1.00  0.00    -0.247 OA
HETATM    4  N   UNL     1     -41.148 -48.080  13.638  1.00  0.00    -0.306 N 
HETATM    5  H   UNL     1     -39.435 -48.763  15.240  1.00  0.00     0.164 HD
HETATM    6  H   UNL     1     -41.607 -48.314  14.506  1.00  0.00     0.171 HD
ENDROOT
BRANCH   1   7
HETATM    7  C   UNL     1     -38.138 -47.084  15.422  1.00  0.00     0.086 C 
HETATM    8  C   UNL     1     -36.849 -47.771  14.950  1.00  0.00     0.026 C 
HETATM    9  C   UNL     1     -36.532 -49.044  15.735  1.00  0.00     0.016 C 
HETATM   10  C   UNL     1     -36.482 -48.795  17.250  1.00  0.00     0.078 C 
HETATM   11  C   UNL     1     -37.794 -48.151  17.721  1.00  0.00     0.016 C 
HETATM   12  C   UNL     1     -38.164 -46.888  16.939  1.00  0.00     0.026 C 
BRANCH  10  13
HETATM   13  C   UNL     1     -35.255 -47.969  17.655  1.00  0.00     0.221 C 
HETATM   14  N   UNL     1     -35.220 -47.622  18.987  1.00  0.00    -0.365 N 
HETATM   15  C   UNL     1     -34.088 -46.923  19.539  1.00  0.00     0.149 C 
HETATM   16  H   UNL     1     -36.004 -47.837  19.589  1.00  0.00     0.161 HD
HETATM   17  O   UNL     1     -34.375 -47.638  16.867  1.00  0.00    -0.273 OA
ENDBRANCH  10  13
ENDBRANCH   1   7
BRANCH   4  18
HETATM   18  C   UNL     1     -41.964 -47.855  12.511  1.00  0.00     0.067 A 
HETATM   19  C   UNL     1     -42.942 -46.883  12.446  1.00  0.00     0.120 A 
HETATM   20  N   UNL     1     -43.713 -46.666  11.358  1.00  0.00    -0.353 N 
HETATM   21  C   UNL     1     -43.516 -47.471  10.297  1.00  0.00     0.088 A 
ATOM     22  HN  UNL     1     -44.414 -45.926  11.341  1.00  0.00     0.166 HD
HETATM   23  N   UNL     1     -42.591 -48.457  10.266  1.00  0.00    -0.353 N 
HETATM   24  C   UNL     1     -41.831 -48.615  11.370  1.00  0.00     0.120 A 
ATOM     25  HN  UNL     1     -42.474 -49.053   9.446  1.00  0.00     0.166 HD
BRANCH  21  26
HETATM   26  C   UNL     1     -44.337 -47.229   9.033  1.00  0.00     0.007 C 
HETATM   27  C   UNL     1     -43.651 -47.813   7.782  1.00  0.00     0.022 C 
HETATM   28  C   UNL     1     -45.707 -47.911   9.199  1.00  0.00     0.022 C 
HETATM   29  C   UNL     1     -44.535 -45.719   8.818  1.00  0.00     0.022 C 
ENDBRANCH  21  26
ENDBRANCH   4  18
TORSDOF 4
ENDMDL
MODEL 4
REMARK VINA RESULT:      -6.1      5.485      7.592
REMARK  4 active torsions:
REMARK  status: ('A' for Active; 'I' for Inactive)
REMARK       I    between atoms: N_2  and  C_3 
REMARK    1  A    between atoms: C_3  and  C_5 
REMARK    2  A    between atoms: C_8  and  N_11 
REMARK       I    between atoms: N_11  and  C_12 
REMARK       I    between atoms: C_12  and  N_14 
REMARK    3  A    between atoms: N_14  and  C_15 
REMARK    4  A    between atoms: C_19  and  C_23 
ROOT
HETATM    1  N   UNL     1     -38.235 -48.213  14.357  1.00  0.00    -0.338 N 
HETATM    2  C   UNL     1     -39.451 -48.029  13.744  1.00  0.00     0.321 C 
HETATM    3  O   UNL     1     -40.512 -47.999  14.350  1.00  0.00    -0.247 OA
HETATM    4  N   UNL     1     -39.318 -47.964  12.375  1.00  0.00    -0.306 N 
HETATM    5  H   UNL     1     -37.457 -47.723  13.939  1.00  0.00     0.164 HD
HETATM    6  H   UNL     1     -38.535 -48.488  12.013  1.00  0.00     0.171 HD
ENDROOT
BRANCH   1   7
HETATM    7  C   UNL     1     -38.177 -48.492  15.789  1.00  0.00     0.086 C 
HETATM    8  C   UNL     1     -37.204 -47.557  16.521  1.00  0.00     0.026 C 
HETATM    9  C   UNL     1     -35.738 -47.910  16.271  1.00  0.00     0.016 C 
HETATM   10  C   UNL     1     -35.428 -49.376  16.610  1.00  0.00     0.078 C 
HETATM   11  C   UNL     1     -36.374 -50.306  15.838  1.00  0.00     0.016 C 
HETATM   12  C   UNL     1     -37.854 -49.967  16.036  1.00  0.00     0.026 C 
BRANCH  10  13
HETATM   13  C   UNL     1     -35.468 -49.635  18.122  1.00  0.00     0.221 C 
HETATM   14  N   UNL     1     -35.634 -50.959  18.465  1.00  0.00    -0.365 N 
HETATM   15  C   UNL     1     -35.602 -51.373  19.843  1.00  0.00     0.149 C 
HETATM   16  H   UNL     1     -35.800 -51.653  17.748  1.00  0.00     0.161 HD
HETATM   17  O   UNL     1     -35.367 -48.747  18.961  1.00  0.00    -0.273 OA
ENDBRANCH  10  13
ENDBRANCH   1   7
BRANCH   4  18
HETATM   18  C   UNL     1     -40.435 -47.797  11.531  1.00  0.00     0.067 A 
HETATM   19  C   UNL     1     -41.366 -48.783  11.276  1.00  0.00     0.120 A 
HETATM   20  N   UNL     1     -42.440 -48.612  10.475  1.00  0.00    -0.353 N 
HETATM   21  C   UNL     1     -42.577 -47.411   9.883  1.00  0.00     0.088 A 
ATOM     22  HN  UNL     1     -43.117 -49.360  10.325  1.00  0.00     0.166 HD
HETATM   23  N   UNL     1     -41.715 -46.385  10.060  1.00  0.00    -0.353 N 
HETATM   24  C   UNL     1     -40.672 -46.601  10.890  1.00  0.00     0.120 A 
ATOM     25  HN  UNL     1     -41.846 -45.490   9.588  1.00  0.00     0.166 HD
BRANCH  21  26
HETATM   26  C   UNL     1     -43.801 -47.164   9.004  1.00  0.00     0.007 C 
HETATM   27  C   UNL     1     -45.089 -47.717   9.646  1.00  0.00     0.022 C 
HETATM   28  C   UNL     1     -43.968 -45.646   8.808  1.00  0.00     0.022 C 
HETATM   29  C   UNL     1     -43.609 -47.843   7.637  1.00  0.00     0.022 C 
ENDBRANCH  21  26
ENDBRANCH   4  18
TORSDOF 4
ENDMDL
MODEL 5
REMARK VINA RESULT:      -5.9      2.478      2.828
REMARK  4 active torsions:
REMARK  status: ('A' for Active; 'I' for Inactive)
REMARK       I    between atoms: N_2  and  C_3 
REMARK    1  A    between atoms: C_3  and  C_5 
REMARK    2  A    between atoms: C_8  and  N_11 
REMARK       I    between atoms: N_11  and  C_12 
REMARK       I    between atoms: C_12  and  N_14 
REMARK    3  A    between atoms: N_14  and  C_15 
REMARK    4  A    between atoms: C_19  and  C_23 
ROOT
HETATM    1  N   UNL     1     -42.860 -51.890  12.526  1.00  0.00    -0.338 N 
HETATM    2  C   UNL     1     -42.013 -50.837  12.275  1.00  0.00     0.321 C 
HETATM    3  O   UNL     1     -40.797 -50.943  12.249  1.00  0.00    -0.247 OA
HETATM    4  N   UNL     1     -42.709 -49.657  12.137  1.00  0.00    -0.306 N 
HETATM    5  H   UNL     1     -43.743 -51.867  12.035  1.00  0.00     0.164 HD
HETATM    6  H   UNL     1     -43.571 -49.624  12.662  1.00  0.00     0.171 HD
ENDROOT
BRANCH   1   7
HETATM    7  C   UNL     1     -42.311 -53.194  12.887  1.00  0.00     0.086 C 
HETATM    8  C   UNL     1     -43.413 -54.220  13.191  1.00  0.00     0.026 C 
HETATM    9  C   UNL     1     -44.080 -53.992  14.547  1.00  0.00     0.016 C 
HETATM   10  C   UNL     1     -43.060 -53.945  15.695  1.00  0.00     0.078 C 
HETATM   11  C   UNL     1     -41.990 -52.885  15.405  1.00  0.00     0.016 C 
HETATM   12  C   UNL     1     -41.317 -53.058  14.041  1.00  0.00     0.026 C 
BRANCH  10  13
HETATM   13  C   UNL     1     -42.448 -55.324  15.974  1.00  0.00     0.221 C 
HETATM   14  N   UNL     1     -41.183 -55.282  16.517  1.00  0.00    -0.365 N 
HETATM   15  C   UNL     1     -40.512 -56.492  16.917  1.00  0.00     0.149 C 
HETATM   16  H   UNL     1     -40.704 -54.398  16.621  1.00  0.00     0.161 HD
HETATM   17  O   UNL     1     -43.026 -56.379  15.734  1.00  0.00    -0.273 OA
ENDBRANCH  10  13
ENDBRANCH   1   7
BRANCH   4  18
HETATM   18  C   UNL     1     -42.050 -48.435  11.892  1.00  0.00     0.067 A 
HETATM   19  C   UNL     1     -41.447 -48.107  10.695  1.00  0.00     0.120 A 
HETATM   20  N   UNL     1     -40.826 -46.930  10.464  1.00  0.00    -0.353 N 
HETATM   21  C   UNL     1     -40.784 -46.050  11.482  1.00  0.00     0.088 A 
ATOM     22  HN  UNL     1     -40.407 -46.717   9.559  1.00  0.00     0.166 HD
HETATM   23  N   UNL     1     -41.335 -46.280  12.695  1.00  0.00    -0.353 N 
HETATM   24  C   UNL     1     -41.964 -47.462  12.865  1.00  0.00     0.120 A 
ATOM     25  HN  UNL     1     -41.278 -45.593  13.447  1.00  0.00     0.166 HD
BRANCH  21  26
HETATM   26  C   UNL     1     -40.130 -44.691  11.248  1.00  0.00     0.007 C 
HETATM   27  C   UNL     1     -39.077 -44.367  12.326  1.00  0.00     0.022 C 
HETATM   28  C   UNL     1     -39.431 -44.712   9.876  1.00  0.00     0.022 C 
HETATM   29  C   UNL     1     -41.199 -43.585  11.265  1.00  0.00     0.022 C 
ENDBRANCH  21  26
ENDBRANCH   4  18
TORSDOF 4
ENDMDL
MODEL 6
REMARK VINA RESULT:      -5.8      2.448      9.524
REMARK  4 active torsions:
REMARK  status: ('A' for Active; 'I' for Inactive)
REMARK       I    between atoms: N_2  and  C_3 
REMARK    1  A    between atoms: C_3  and  C_5 
REMARK    2  A    between atoms: C_8  and  N_11 
REMARK       I    between atoms: N_11  and  C_12 
REMARK       I    between atoms: C_12  and  N_14 
REMARK    3  A    between atoms: N_14  and  C_15 
REMARK    4  A    between atoms: C_19  and  C_23 
ROOT
HETATM    1  N   UNL     1     -42.505 -47.109  12.514  1.00  0.00    -0.338 N 
HETATM    2  C   UNL     1     -42.824 -48.217  13.263  1.00  0.00     0.321 C 
HETATM    3  O   UNL     1     -42.850 -48.218  14.485  1.00  0.00    -0.247 OA
HETATM    4  N   UNL     1     -43.030 -49.320  12.464  1.00  0.00    -0.306 N 
HETATM    5  H   UNL     1     -42.992 -47.023  11.633  1.00  0.00     0.164 HD
HETATM    6  H   UNL     1     -42.504 -49.307  11.603  1.00  0.00     0.171 HD
ENDROOT
BRANCH   1   7
HETATM    7  C   UNL     1     -42.068 -45.884  13.178  1.00  0.00     0.086 C 
HETATM    8  C   UNL     1     -42.611 -44.627  12.484  1.00  0.00     0.026 C 
HETATM    9  C   UNL     1     -41.892 -44.315  11.171  1.00  0.00     0.016 C 
HETATM   10  C   UNL     1     -40.370 -44.211  11.354  1.00  0.00     0.078 C 
HETATM   11  C   UNL     1     -39.830 -45.491  12.005  1.00  0.00     0.016 C 
HETATM   12  C   UNL     1     -40.544 -45.857  13.308  1.00  0.00     0.026 C 
BRANCH  10  13
HETATM   13  C   UNL     1     -39.972 -42.952  12.134  1.00  0.00     0.221 C 
HETATM   14  N   UNL     1     -40.554 -41.792  11.673  1.00  0.00    -0.365 N 
HETATM   15  C   UNL     1     -40.349 -40.541  12.356  1.00  0.00     0.149 C 
HETATM   16  H   UNL     1     -41.118 -41.805  10.834  1.00  0.00     0.161 HD
HETATM   17  O   UNL     1     -39.198 -42.965  13.086  1.00  0.00    -0.273 OA
ENDBRANCH  10  13
ENDBRANCH   1   7
BRANCH   4  18
HETATM   18  C   UNL     1     -43.352 -50.578  13.012  1.00  0.00     0.067 A 
HETATM   19  C   UNL     1     -42.428 -51.571  13.265  1.00  0.00     0.120 A 
HETATM   20  N   UNL     1     -42.743 -52.771  13.799  1.00  0.00    -0.353 N 
HETATM   21  C   UNL     1     -44.042 -52.999  14.072  1.00  0.00     0.088 A 
ATOM     22  HN  UNL     1     -42.029 -53.474  13.989  1.00  0.00     0.166 HD
HETATM   23  N   UNL     1     -45.023 -52.095  13.851  1.00  0.00    -0.353 N 
HETATM   24  C   UNL     1     -44.651 -50.903  13.338  1.00  0.00     0.120 A 
ATOM     25  HN  UNL     1     -45.999 -52.305  14.062  1.00  0.00     0.166 HD
BRANCH  21  26
HETATM   26  C   UNL     1     -44.432 -54.326  14.717  1.00  0.00     0.007 C 
HETATM   27  C   UNL     1     -43.200 -55.196  15.031  1.00  0.00     0.022 C 
HETATM   28  C   UNL     1     -45.170 -54.033  16.036  1.00  0.00     0.022 C 
HETATM   29  C   UNL     1     -45.356 -55.115  13.773  1.00  0.00     0.022 C 
ENDBRANCH  21  26
ENDBRANCH   4  18
TORSDOF 4
ENDMDL
MODEL 7
REMARK VINA RESULT:      -5.6      1.335      2.088
REMARK  4 active torsions:
REMARK  status: ('A' for Active; 'I' for Inactive)
REMARK       I    between atoms: N_2  and  C_3 
REMARK    1  A    between atoms: C_3  and  C_5 
REMARK    2  A    between atoms: C_8  and  N_11 
REMARK       I    between atoms: N_11  and  C_12 
REMARK       I    between atoms: C_12  and  N_14 
REMARK    3  A    between atoms: N_14  and  C_15 
REMARK    4  A    between atoms: C_19  and  C_23 
ROOT
HETATM    1  N   UNL     1     -43.173 -51.695  12.451  1.00  0.00    -0.338 N 
HETATM    2  C   UNL     1     -42.858 -50.358  12.499  1.00  0.00     0.321 C 
HETATM    3  O   UNL     1     -43.471 -49.546  13.176  1.00  0.00    -0.247 OA
HETATM    4  N   UNL     1     -41.830 -50.054  11.635  1.00  0.00    -0.306 N 
HETATM    5  H   UNL     1     -42.389 -52.324  12.343  1.00  0.00     0.164 HD
HETATM    6  H   UNL     1     -41.781 -50.655  10.825  1.00  0.00     0.171 HD
ENDROOT
BRANCH   1   7
HETATM    7  C   UNL     1     -44.354 -52.189  13.152  1.00  0.00     0.086 C 
HETATM    8  C   UNL     1     -44.450 -51.639  14.582  1.00  0.00     0.026 C 
HETATM    9  C   UNL     1     -43.459 -52.299  15.540  1.00  0.00     0.016 C 
HETATM   10  C   UNL     1     -43.588 -53.830  15.546  1.00  0.00     0.078 C 
HETATM   11  C   UNL     1     -43.445 -54.375  14.119  1.00  0.00     0.016 C 
HETATM   12  C   UNL     1     -44.399 -53.718  13.119  1.00  0.00     0.026 C 
BRANCH  10  13
HETATM   13  C   UNL     1     -44.890 -54.292  16.214  1.00  0.00     0.221 C 
HETATM   14  N   UNL     1     -44.914 -54.128  17.581  1.00  0.00    -0.365 N 
HETATM   15  C   UNL     1     -46.099 -54.431  18.340  1.00  0.00     0.149 C 
HETATM   16  H   UNL     1     -44.087 -53.809  18.069  1.00  0.00     0.161 HD
HETATM   17  O   UNL     1     -45.832 -54.773  15.593  1.00  0.00    -0.273 OA
ENDBRANCH  10  13
ENDBRANCH   1   7
BRANCH   4  18
HETATM   18  C   UNL     1     -41.345 -48.737  11.497  1.00  0.00     0.067 A 
HETATM   19  C   UNL     1     -40.407 -48.166  12.332  1.00  0.00     0.120 A 
HETATM   20  N   UNL     1     -39.940 -46.907  12.187  1.00  0.00    -0.353 N 
HETATM   21  C   UNL     1     -40.450 -46.177  11.177  1.00  0.00     0.088 A 
ATOM     22  HN  UNL     1     -39.232 -46.526  12.814  1.00  0.00     0.166 HD
HETATM   23  N   UNL     1     -41.380 -46.641  10.312  1.00  0.00    -0.353 N 
HETATM   24  C   UNL     1     -41.794 -47.914  10.487  1.00  0.00     0.120 A 
ATOM     25  HN  UNL     1     -41.750 -46.057   9.562  1.00  0.00     0.166 HD
BRANCH  21  26
HETATM   26  C   UNL     1     -39.917 -44.765  10.953  1.00  0.00     0.007 C 
HETATM   27  C   UNL     1     -39.102 -44.659   9.649  1.00  0.00     0.022 C 
HETATM   28  C   UNL     1     -41.110 -43.797  10.861  1.00  0.00     0.022 C 
HETATM   29  C   UNL     1     -39.010 -44.356  12.127  1.00  0.00     0.022 C 
ENDBRANCH  21  26
ENDBRANCH   4  18
TORSDOF 4
ENDMDL
MODEL 8
REMARK VINA RESULT:      -5.5      3.777      8.800
REMARK  4 active torsions:
REMARK  status: ('A' for Active; 'I' for Inactive)
REMARK       I    between atoms: N_2  and  C_3 
REMARK    1  A    between atoms: C_3  and  C_5 
REMARK    2  A    between atoms: C_8  and  N_11 
REMARK       I    between atoms: N_11  and  C_12 
REMARK       I    between atoms: C_12  and  N_14 
REMARK    3  A    between atoms: N_14  and  C_15 
REMARK    4  A    between atoms: C_19  and  C_23 
ROOT
HETATM    1  N   UNL     1     -42.575 -49.266  11.481  1.00  0.00    -0.338 N 
HETATM    2  C   UNL     1     -42.293 -50.027  12.590  1.00  0.00     0.321 C 
HETATM    3  O   UNL     1     -42.717 -49.771  13.707  1.00  0.00    -0.247 OA
HETATM    4  N   UNL     1     -41.422 -51.050  12.288  1.00  0.00    -0.306 N 
HETATM    5  H   UNL     1     -42.661 -49.775  10.613  1.00  0.00     0.164 HD
HETATM    6  H   UNL     1     -40.795 -50.843  11.524  1.00  0.00     0.171 HD
ENDROOT
BRANCH   1   7
HETATM    7  C   UNL     1     -43.330 -48.025  11.624  1.00  0.00     0.086 C 
HETATM    8  C   UNL     1     -44.036 -47.625  10.320  1.00  0.00     0.026 C 
HETATM    9  C   UNL     1     -43.076 -47.060   9.273  1.00  0.00     0.016 C 
HETATM   10  C   UNL     1     -42.250 -45.885   9.817  1.00  0.00     0.078 C 
HETATM   11  C   UNL     1     -41.511 -46.307  11.094  1.00  0.00     0.016 C 
HETATM   12  C   UNL     1     -42.433 -46.908  12.159  1.00  0.00     0.026 C 
BRANCH  10  13
HETATM   13  C   UNL     1     -43.109 -44.632  10.034  1.00  0.00     0.221 C 
HETATM   14  N   UNL     1     -42.684 -43.826  11.066  1.00  0.00    -0.365 N 
HETATM   15  C   UNL     1     -43.333 -42.569  11.336  1.00  0.00     0.149 C 
HETATM   16  H   UNL     1     -41.920 -44.120  11.660  1.00  0.00     0.161 HD
HETATM   17  O   UNL     1     -44.095 -44.365   9.354  1.00  0.00    -0.273 OA
ENDBRANCH  10  13
ENDBRANCH   1   7
BRANCH   4  18
HETATM   18  C   UNL     1     -40.973 -51.953  13.273  1.00  0.00     0.067 A 
HETATM   19  C   UNL     1     -40.024 -51.648  14.227  1.00  0.00     0.120 A 
HETATM   20  N   UNL     1     -39.607 -52.516  15.175  1.00  0.00    -0.353 N 
HETATM   21  C   UNL     1     -40.143 -53.751  15.154  1.00  0.00     0.088 A 
ATOM     22  HN  UNL     1     -38.916 -52.248  15.875  1.00  0.00     0.166 HD
HETATM   23  N   UNL     1     -41.070 -54.149  14.254  1.00  0.00    -0.353 N 
HETATM   24  C   UNL     1     -41.470 -53.236  13.344  1.00  0.00     0.120 A 
ATOM     25  HN  UNL     1     -41.449 -55.097  14.263  1.00  0.00     0.166 HD
BRANCH  21  26
HETATM   26  C   UNL     1     -39.729 -54.746  16.234  1.00  0.00     0.007 C 
HETATM   27  C   UNL     1     -38.455 -55.521  15.843  1.00  0.00     0.022 C 
HETATM   28  C   UNL     1     -39.447 -53.971  17.534  1.00  0.00     0.022 C 
HETATM   29  C   UNL     1     -40.861 -55.760  16.472  1.00  0.00     0.022 C 
ENDBRANCH  21  26
ENDBRANCH   4  18
TORSDOF 4
ENDMDL
MODEL 9
REMARK VINA RESULT:      -5.4      6.434      9.395
REMARK  4 active torsions:
REMARK  status: ('A' for Active; 'I' for Inactive)
REMARK       I    between atoms: N_2  and  C_3 
REMARK    1  A    between atoms: C_3  and  C_5 
REMARK    2  A    between atoms: C_8  and  N_11 
REMARK       I    between atoms: N_11  and  C_12 
REMARK       I    between atoms: C_12  and  N_14 
REMARK    3  A    between atoms: N_14  and  C_15 
REMARK    4  A    between atoms: C_19  and  C_23 
ROOT
HETATM    1  N   UNL     1     -42.546 -54.611  15.263  1.00  0.00    -0.338 N 
HETATM    2  C   UNL     1     -41.254 -54.547  15.730  1.00  0.00     0.321 C 
HETATM    3  O   UNL     1     -40.539 -53.565  15.599  1.00  0.00    -0.247 OA
HETATM    4  N   UNL     1     -40.862 -55.746  16.283  1.00  0.00    -0.306 N 
HETATM    5  H   UNL     1     -43.187 -55.152  15.826  1.00  0.00     0.164 HD
HETATM    6  H   UNL     1     -41.318 -56.553  15.882  1.00  0.00     0.171 HD
ENDROOT
BRANCH   1   7
HETATM    7  C   UNL     1     -43.090 -53.508  14.477  1.00  0.00     0.086 C 
HETATM    8  C   UNL     1     -43.937 -52.553  15.331  1.00  0.00     0.026 C 
HETATM    9  C   UNL     1     -45.306 -53.131  15.689  1.00  0.00     0.016 C 
HETATM   10  C   UNL     1     -46.091 -53.576  14.445  1.00  0.00     0.078 C 
HETATM   11  C   UNL     1     -45.255 -54.566  13.622  1.00  0.00     0.016 C 
HETATM   12  C   UNL     1     -43.862 -54.038  13.268  1.00  0.00     0.026 C 
BRANCH  10  13
HETATM   13  C   UNL     1     -46.562 -52.381  13.607  1.00  0.00     0.221 C 
HETATM   14  N   UNL     1     -46.675 -52.644  12.259  1.00  0.00    -0.365 N 
HETATM   15  C   UNL     1     -47.191 -51.650  11.355  1.00  0.00     0.149 C 
HETATM   16  H   UNL     1     -46.375 -53.536  11.889  1.00  0.00     0.161 HD
HETATM   17  O   UNL     1     -46.816 -51.281  14.085  1.00  0.00    -0.273 OA
ENDBRANCH  10  13
ENDBRANCH   1   7
BRANCH   4  18
HETATM   18  C   UNL     1     -39.568 -55.927  16.813  1.00  0.00     0.067 A 
HETATM   19  C   UNL     1     -38.404 -55.678  16.113  1.00  0.00     0.120 A 
HETATM   20  N   UNL     1     -37.168 -55.844  16.631  1.00  0.00    -0.353 N 
HETATM   21  C   UNL     1     -37.089 -56.300  17.895  1.00  0.00     0.088 A 
ATOM     22  HN  UNL     1     -36.330 -55.632  16.089  1.00  0.00     0.166 HD
HETATM   23  N   UNL     1     -38.168 -56.582  18.659  1.00  0.00    -0.353 N 
HETATM   24  C   UNL     1     -39.380 -56.376  18.101  1.00  0.00     0.120 A 
ATOM     25  HN  UNL     1     -38.071 -56.934  19.611  1.00  0.00     0.166 HD
BRANCH  21  26
HETATM   26  C   UNL     1     -35.710 -56.458  18.531  1.00  0.00     0.007 C 
HETATM   27  C   UNL     1     -34.580 -56.089  17.550  1.00  0.00     0.022 C 
HETATM   28  C   UNL     1     -35.621 -55.523  19.751  1.00  0.00     0.022 C 
HETATM   29  C   UNL     1     -35.506 -57.915  18.981  1.00  0.00     0.022 C 
ENDBRANCH  21  26
ENDBRANCH   4  18
TORSDOF 4
ENDMDL
