MODEL 1
REMARK VINA RESULT:      -6.8      0.000      0.000
REMARK  4 active torsions:
REMARK  status: ('A' for Active; 'I' for Inactive)
REMARK    1  A    between atoms: C_2  and  C_3 
REMARK    2  A    between atoms: C_2  and  N_15 
REMARK    3  A    between atoms: C_3  and  N_4 
REMARK       I    between atoms: N_4  and  C_5 
REMARK       I    between atoms: C_5  and  N_7 
REMARK    4  A    between atoms: N_7  and  C_8 
ROOT
HETATM    1  N   UNL     1     -41.958 -49.879  11.413  1.00  0.00    -0.341 N 
HETATM    2  C   UNL     1     -41.069 -48.891  11.113  1.00  0.00     0.321 C 
HETATM    3  O   UNL     1     -39.912 -48.869  11.548  1.00  0.00    -0.247 OA
HETATM    4  N   UNL     1     -41.481 -47.896  10.279  1.00  0.00    -0.293 N 
HETATM    5  H   UNL     1     -42.921 -49.731  11.137  1.00  0.00     0.164 HD
HETATM    6  H   UNL     1     -40.775 -47.199  10.088  1.00  0.00     0.172 HD
ENDROOT
BRANCH   1   7
HETATM    7  C   UNL     1     -41.587 -51.001  12.238  1.00  0.00     0.159 C 
BRANCH   7   8
HETATM    8  C   UNL     1     -42.118 -51.028  13.706  1.00  0.00     0.237 C 
HETATM    9  C   UNL     1     -40.833 -51.010  14.571  1.00  0.00     0.044 C 
BRANCH   8  10
HETATM   10  N   UNL     1     -42.997 -52.169  14.119  1.00  0.00     0.099 N 
HETATM   11  C   UNL     1     -44.150 -52.431  13.217  1.00  0.00     0.304 C 
HETATM   12  C   UNL     1     -45.250 -51.334  13.248  1.00  0.00     0.146 C 
HETATM   13  C   UNL     1     -46.496 -51.775  12.488  1.00  0.00     0.041 C 
HETATM   14  O   UNL     1     -45.694 -51.036  14.588  1.00  0.00    -0.378 OA
HETATM   15  C   UNL     1     -44.597 -50.767  15.470  1.00  0.00     0.146 C 
HETATM   16  C   UNL     1     -45.158 -50.494  16.857  1.00  0.00     0.041 C 
HETATM   17  C   UNL     1     -43.620 -51.961  15.463  1.00  0.00     0.304 C 
ENDBRANCH   8  10
ENDBRANCH   7   8
ENDBRANCH   1   7
BRANCH   4  18
HETATM   18  C   UNL     1     -42.696 -47.778   9.637  1.00  0.00     0.132 A 
HETATM   19  C   UNL     1     -43.910 -47.379  10.248  1.00  0.00     0.084 A 
HETATM   20  C   UNL     1     -44.824 -47.378   9.223  1.00  0.00     0.076 A 
HETATM   21  C   UNL     1     -46.255 -47.061   9.082  1.00  0.00     0.079 C 
HETATM   22  O   UNL     1     -44.209 -47.769   8.082  1.00  0.00    -0.241 OA
HETATM   23  N   UNL     1     -42.886 -48.027   8.339  1.00  0.00    -0.245 N 
ATOM     24  HN  UNL     1     -42.186 -48.347   7.669  1.00  0.00     0.196 HD
ENDBRANCH   4  18
TORSDOF 4
ENDMDL
MODEL 2
REMARK VINA RESULT:      -6.7      1.936      3.023
REMARK  4 active torsions:
REMARK  status: ('A' for Active; 'I' for Inactive)
REMARK    1  A    between atoms: C_2  and  C_3 
REMARK    2  A    between atoms: C_2  and  N_15 
REMARK    3  A    between atoms: C_3  and  N_4 
REMARK       I    between atoms: N_4  and  C_5 
REMARK       I    between atoms: C_5  and  N_7 
REMARK    4  A    between atoms: N_7  and  C_8 
ROOT
HETATM    1  N   UNL     1     -41.893 -49.525  11.345  1.00  0.00    -0.341 N 
HETATM    2  C   UNL     1     -41.119 -48.475  10.952  1.00  0.00     0.321 C 
HETATM    3  O   UNL     1     -39.960 -48.305  11.350  1.00  0.00    -0.247 OA
HETATM    4  N   UNL     1     -41.650 -47.590  10.063  1.00  0.00    -0.293 N 
HETATM    5  H   UNL     1     -42.872 -49.496  11.088  1.00  0.00     0.164 HD
HETATM    6  H   UNL     1     -41.024 -46.840   9.805  1.00  0.00     0.172 HD
ENDROOT
BRANCH   1   7
HETATM    7  C   UNL     1     -41.391 -50.542  12.234  1.00  0.00     0.159 C 
BRANCH   7   8
HETATM    8  C   UNL     1     -42.423 -51.300  13.126  1.00  0.00     0.237 C 
HETATM    9  C   UNL     1     -43.592 -50.296  13.285  1.00  0.00     0.044 C 
BRANCH   8  10
HETATM   10  N   UNL     1     -41.975 -51.782  14.472  1.00  0.00     0.099 N 
HETATM   11  C   UNL     1     -40.640 -52.437  14.492  1.00  0.00     0.304 C 
HETATM   12  C   UNL     1     -40.595 -53.819  13.780  1.00  0.00     0.146 C 
HETATM   13  C   UNL     1     -39.272 -54.533  14.040  1.00  0.00     0.041 C 
HETATM   14  O   UNL     1     -41.622 -54.715  14.250  1.00  0.00    -0.378 OA
HETATM   15  C   UNL     1     -42.919 -54.105  14.226  1.00  0.00     0.146 C 
HETATM   16  C   UNL     1     -43.927 -55.110  14.763  1.00  0.00     0.041 C 
HETATM   17  C   UNL     1     -42.897 -52.805  15.056  1.00  0.00     0.304 C 
ENDBRANCH   8  10
ENDBRANCH   7   8
ENDBRANCH   1   7
BRANCH   4  18
HETATM   18  C   UNL     1     -42.884 -47.642   9.451  1.00  0.00     0.132 A 
HETATM   19  C   UNL     1     -44.119 -47.337  10.072  1.00  0.00     0.084 A 
HETATM   20  C   UNL     1     -45.051 -47.497   9.075  1.00  0.00     0.076 A 
HETATM   21  C   UNL     1     -46.511 -47.343   8.957  1.00  0.00     0.079 C 
HETATM   22  O   UNL     1     -44.423 -47.891   7.943  1.00  0.00    -0.241 OA
HETATM   23  N   UNL     1     -43.075 -47.991   8.176  1.00  0.00    -0.245 N 
ATOM     24  HN  UNL     1     -42.359 -48.276   7.507  1.00  0.00     0.196 HD
ENDBRANCH   4  18
TORSDOF 4
ENDMDL
MODEL 3
REMARK VINA RESULT:      -6.4      1.262      2.140
REMARK  4 active torsions:
REMARK  status: ('A' for Active; 'I' for Inactive)
REMARK    1  A    between atoms: C_2  and  C_3 
REMARK    2  A    between atoms: C_2  and  N_15 
REMARK    3  A    between atoms: C_3  and  N_4 
REMARK       I    between atoms: N_4  and  C_5 
REMARK       I    between atoms: C_5  and  N_7 
REMARK    4  A    between atoms: N_7  and  C_8 
ROOT
HETATM    1  N   UNL     1     -42.314 -49.455  11.932  1.00  0.00    -0.341 N 
HETATM    2  C   UNL     1     -41.288 -48.805  11.315  1.00  0.00     0.321 C 
HETATM    3  O   UNL     1     -40.113 -48.886  11.694  1.00  0.00    -0.247 OA
HETATM    4  N   UNL     1     -41.580 -48.050  10.220  1.00  0.00    -0.293 N 
HETATM    5  H   UNL     1     -43.254 -49.208  11.646  1.00  0.00     0.164 HD
HETATM    6  H   UNL     1     -40.776 -47.602   9.803  1.00  0.00     0.172 HD
ENDROOT
BRANCH   1   7
HETATM    7  C   UNL     1     -42.087 -50.324  13.060  1.00  0.00     0.159 C 
BRANCH   7   8
HETATM    8  C   UNL     1     -42.847 -51.687  13.090  1.00  0.00     0.237 C 
HETATM    9  C   UNL     1     -42.056 -52.581  12.102  1.00  0.00     0.044 C 
BRANCH   8  10
HETATM   10  N   UNL     1     -44.302 -51.693  12.733  1.00  0.00     0.099 N 
HETATM   11  C   UNL     1     -45.193 -51.028  13.720  1.00  0.00     0.304 C 
HETATM   12  C   UNL     1     -45.334 -51.788  15.069  1.00  0.00     0.146 C 
HETATM   13  C   UNL     1     -46.433 -51.181  15.936  1.00  0.00     0.041 C 
HETATM   14  O   UNL     1     -45.699 -53.171  14.887  1.00  0.00    -0.378 OA
HETATM   15  C   UNL     1     -44.843 -53.834  13.948  1.00  0.00     0.146 C 
HETATM   16  C   UNL     1     -45.319 -55.271  13.801  1.00  0.00     0.041 C 
HETATM   17  C   UNL     1     -44.860 -53.075  12.605  1.00  0.00     0.304 C 
ENDBRANCH   8  10
ENDBRANCH   7   8
ENDBRANCH   1   7
BRANCH   4  18
HETATM   18  C   UNL     1     -42.802 -47.892   9.602  1.00  0.00     0.132 A 
HETATM   19  C   UNL     1     -43.980 -47.418  10.229  1.00  0.00     0.084 A 
HETATM   20  C   UNL     1     -44.918 -47.400   9.224  1.00  0.00     0.076 A 
HETATM   21  C   UNL     1     -46.335 -47.018   9.107  1.00  0.00     0.079 C 
HETATM   22  O   UNL     1     -44.349 -47.852   8.082  1.00  0.00    -0.241 OA
HETATM   23  N   UNL     1     -43.035 -48.167   8.316  1.00  0.00    -0.245 N 
ATOM     24  HN  UNL     1     -42.367 -48.539   7.641  1.00  0.00     0.196 HD
ENDBRANCH   4  18
TORSDOF 4
ENDMDL
MODEL 4
REMARK VINA RESULT:      -6.3      2.188      5.793
REMARK  4 active torsions:
REMARK  status: ('A' for Active; 'I' for Inactive)
REMARK    1  A    between atoms: C_2  and  C_3 
REMARK    2  A    between atoms: C_2  and  N_15 
REMARK    3  A    between atoms: C_3  and  N_4 
REMARK       I    between atoms: N_4  and  C_5 
REMARK       I    between atoms: C_5  and  N_7 
REMARK    4  A    between atoms: N_7  and  C_8 
ROOT
HETATM    1  N   UNL     1     -41.361 -50.671  11.542  1.00  0.00    -0.341 N 
HETATM    2  C   UNL     1     -40.846 -51.718  12.244  1.00  0.00     0.321 C 
HETATM    3  O   UNL     1     -39.633 -51.879  12.424  1.00  0.00    -0.247 OA
HETATM    4  N   UNL     1     -41.719 -52.612  12.786  1.00  0.00    -0.293 N 
HETATM    5  H   UNL     1     -42.349 -50.707  11.319  1.00  0.00     0.164 HD
HETATM    6  H   UNL     1     -41.276 -53.359  13.302  1.00  0.00     0.172 HD
ENDROOT
BRANCH   1   7
HETATM    7  C   UNL     1     -40.514 -49.646  10.986  1.00  0.00     0.159 C 
BRANCH   7   8
HETATM    8  C   UNL     1     -40.682 -48.192  11.531  1.00  0.00     0.237 C 
HETATM    9  C   UNL     1     -39.835 -48.176  12.827  1.00  0.00     0.044 C 
BRANCH   8  10
HETATM   10  N   UNL     1     -42.068 -47.701  11.819  1.00  0.00     0.099 N 
HETATM   11  C   UNL     1     -42.997 -47.729  10.658  1.00  0.00     0.304 C 
HETATM   12  C   UNL     1     -42.665 -46.693   9.547  1.00  0.00     0.146 C 
HETATM   13  C   UNL     1     -43.781 -46.614   8.510  1.00  0.00     0.041 C 
HETATM   14  O   UNL     1     -42.519 -45.356  10.066  1.00  0.00    -0.378 OA
HETATM   15  C   UNL     1     -41.616 -45.306  11.178  1.00  0.00     0.146 C 
HETATM   16  C   UNL     1     -41.549 -43.870  11.674  1.00  0.00     0.041 C 
HETATM   17  C   UNL     1     -42.093 -46.278  12.278  1.00  0.00     0.304 C 
ENDBRANCH   8  10
ENDBRANCH   7   8
ENDBRANCH   1   7
BRANCH   4  18
HETATM   18  C   UNL     1     -43.097 -52.571  12.763  1.00  0.00     0.132 A 
HETATM   19  C   UNL     1     -43.907 -51.782  13.616  1.00  0.00     0.084 A 
HETATM   20  C   UNL     1     -45.191 -52.043  13.204  1.00  0.00     0.076 A 
HETATM   21  C   UNL     1     -46.538 -51.591  13.590  1.00  0.00     0.079 C 
HETATM   22  O   UNL     1     -45.157 -52.939  12.190  1.00  0.00    -0.241 OA
HETATM   23  N   UNL     1     -43.855 -53.276  11.920  1.00  0.00    -0.245 N 
ATOM     24  HN  UNL     1     -43.530 -53.937  11.213  1.00  0.00     0.196 HD
ENDBRANCH   4  18
TORSDOF 4
ENDMDL
MODEL 5
REMARK VINA RESULT:      -6.3      2.527      3.271
REMARK  4 active torsions:
REMARK  status: ('A' for Active; 'I' for Inactive)
REMARK    1  A    between atoms: C_2  and  C_3 
REMARK    2  A    between atoms: C_2  and  N_15 
REMARK    3  A    between atoms: C_3  and  N_4 
REMARK       I    between atoms: N_4  and  C_5 
REMARK       I    between atoms: C_5  and  N_7 
REMARK    4  A    between atoms: N_7  and  C_8 
ROOT
HETATM    1  N   UNL     1     -41.739 -52.165  12.739  1.00  0.00    -0.341 N 
HETATM    2  C   UNL     1     -40.387 -52.271  12.610  1.00  0.00     0.321 C 
HETATM    3  O   UNL     1     -39.758 -53.290  12.918  1.00  0.00    -0.247 OA
HETATM    4  N   UNL     1     -39.711 -51.205  12.098  1.00  0.00    -0.293 N 
HETATM    5  H   UNL     1     -42.144 -51.246  12.607  1.00  0.00     0.164 HD
HETATM    6  H   UNL     1     -38.715 -51.349  12.018  1.00  0.00     0.172 HD
ENDROOT
BRANCH   1   7
HETATM    7  C   UNL     1     -42.540 -53.265  13.214  1.00  0.00     0.159 C 
BRANCH   7   8
HETATM    8  C   UNL     1     -43.562 -52.977  14.358  1.00  0.00     0.237 C 
HETATM    9  C   UNL     1     -42.849 -53.483  15.637  1.00  0.00     0.044 C 
BRANCH   8  10
HETATM   10  N   UNL     1     -44.927 -53.588  14.258  1.00  0.00     0.099 N 
HETATM   11  C   UNL     1     -45.656 -53.291  12.996  1.00  0.00     0.304 C 
HETATM   12  C   UNL     1     -46.109 -51.811  12.851  1.00  0.00     0.146 C 
HETATM   13  C   UNL     1     -47.044 -51.631  11.660  1.00  0.00     0.041 C 
HETATM   14  O   UNL     1     -46.845 -51.345  14.000  1.00  0.00    -0.378 OA
HETATM   15  C   UNL     1     -46.152 -51.611  15.226  1.00  0.00     0.146 C 
HETATM   16  C   UNL     1     -47.012 -51.113  16.377  1.00  0.00     0.041 C 
HETATM   17  C   UNL     1     -45.850 -53.120  15.336  1.00  0.00     0.304 C 
ENDBRANCH   8  10
ENDBRANCH   7   8
ENDBRANCH   1   7
BRANCH   4  18
HETATM   18  C   UNL     1     -40.233 -50.017  11.631  1.00  0.00     0.132 A 
HETATM   19  C   UNL     1     -40.380 -48.832  12.393  1.00  0.00     0.084 A 
HETATM   20  C   UNL     1     -40.904 -47.921  11.509  1.00  0.00     0.076 A 
HETATM   21  C   UNL     1     -41.299 -46.503  11.561  1.00  0.00     0.079 C 
HETATM   22  O   UNL     1     -41.078 -48.521  10.308  1.00  0.00    -0.241 OA
HETATM   23  N   UNL     1     -40.670 -49.828  10.383  1.00  0.00    -0.245 N 
ATOM     24  HN  UNL     1     -40.696 -50.520   9.634  1.00  0.00     0.196 HD
ENDBRANCH   4  18
TORSDOF 4
ENDMDL
MODEL 6
REMARK VINA RESULT:      -6.1      2.377      3.378
REMARK  4 active torsions:
REMARK  status: ('A' for Active; 'I' for Inactive)
REMARK    1  A    between atoms: C_2  and  C_3 
REMARK    2  A    between atoms: C_2  and  N_15 
REMARK    3  A    between atoms: C_3  and  N_4 
REMARK       I    between atoms: N_4  and  C_5 
REMARK       I    between atoms: C_5  and  N_7 
REMARK    4  A    between atoms: N_7  and  C_8 
ROOT
HETATM    1  N   UNL     1     -40.478 -51.065  13.296  1.00  0.00    -0.341 N 
HETATM    2  C   UNL     1     -39.302 -51.085  12.610  1.00  0.00     0.321 C 
HETATM    3  O   UNL     1     -38.417 -51.925  12.811  1.00  0.00    -0.247 OA
HETATM    4  N   UNL     1     -39.111 -50.142  11.645  1.00  0.00    -0.293 N 
HETATM    5  H   UNL     1     -41.071 -50.254  13.170  1.00  0.00     0.164 HD
HETATM    6  H   UNL     1     -38.225 -50.215  11.167  1.00  0.00     0.172 HD
ENDROOT
BRANCH   1   7
HETATM    7  C   UNL     1     -40.788 -52.062  14.290  1.00  0.00     0.159 C 
BRANCH   7   8
HETATM    8  C   UNL     1     -41.920 -53.086  13.962  1.00  0.00     0.237 C 
HETATM    9  C   UNL     1     -41.193 -54.215  13.189  1.00  0.00     0.044 C 
BRANCH   8  10
HETATM   10  N   UNL     1     -43.102 -52.606  13.176  1.00  0.00     0.099 N 
HETATM   11  C   UNL     1     -43.930 -51.575  13.855  1.00  0.00     0.304 C 
HETATM   12  C   UNL     1     -44.729 -52.100  15.081  1.00  0.00     0.146 C 
HETATM   13  C   UNL     1     -45.727 -51.061  15.580  1.00  0.00     0.041 C 
HETATM   14  O   UNL     1     -45.509 -53.273  14.769  1.00  0.00    -0.378 OA
HETATM   15  C   UNL     1     -44.724 -54.285  14.125  1.00  0.00     0.146 C 
HETATM   16  C   UNL     1     -45.632 -55.463  13.810  1.00  0.00     0.041 C 
HETATM   17  C   UNL     1     -44.067 -53.702  12.856  1.00  0.00     0.304 C 
ENDBRANCH   8  10
ENDBRANCH   7   8
ENDBRANCH   1   7
BRANCH   4  18
HETATM   18  C   UNL     1     -39.996 -49.173  11.223  1.00  0.00     0.132 A 
HETATM   19  C   UNL     1     -40.009 -47.827  11.664  1.00  0.00     0.084 A 
HETATM   20  C   UNL     1     -41.029 -47.244  10.952  1.00  0.00     0.076 A 
HETATM   21  C   UNL     1     -41.616 -45.898  10.856  1.00  0.00     0.079 C 
HETATM   22  O   UNL     1     -41.602 -48.178  10.157  1.00  0.00    -0.241 OA
HETATM   23  N   UNL     1     -40.968 -49.381  10.330  1.00  0.00    -0.245 N 
ATOM     24  HN  UNL     1     -41.193 -50.262   9.867  1.00  0.00     0.196 HD
ENDBRANCH   4  18
TORSDOF 4
ENDMDL
MODEL 7
REMARK VINA RESULT:      -5.9      3.077      6.170
REMARK  4 active torsions:
REMARK  status: ('A' for Active; 'I' for Inactive)
REMARK    1  A    between atoms: C_2  and  C_3 
REMARK    2  A    between atoms: C_2  and  N_15 
REMARK    3  A    between atoms: C_3  and  N_4 
REMARK       I    between atoms: N_4  and  C_5 
REMARK       I    between atoms: C_5  and  N_7 
REMARK    4  A    between atoms: N_7  and  C_8 
ROOT
HETATM    1  N   UNL     1     -40.729 -50.706  13.480  1.00  0.00    -0.341 N 
HETATM    2  C   UNL     1     -39.994 -51.539  12.691  1.00  0.00     0.321 C 
HETATM    3  O   UNL     1     -38.798 -51.350  12.441  1.00  0.00    -0.247 OA
HETATM    4  N   UNL     1     -40.612 -52.638  12.176  1.00  0.00    -0.293 N 
HETATM    5  H   UNL     1     -41.730 -50.858  13.502  1.00  0.00     0.164 HD
HETATM    6  H   UNL     1     -40.013 -53.220  11.608  1.00  0.00     0.172 HD
ENDROOT
BRANCH   1   7
HETATM    7  C   UNL     1     -40.140 -49.554  14.115  1.00  0.00     0.159 C 
BRANCH   7   8
HETATM    8  C   UNL     1     -39.831 -48.312  13.222  1.00  0.00     0.237 C 
HETATM    9  C   UNL     1     -38.408 -47.882  13.655  1.00  0.00     0.044 C 
BRANCH   8  10
HETATM   10  N   UNL     1     -40.764 -47.142  13.292  1.00  0.00     0.099 N 
HETATM   11  C   UNL     1     -42.129 -47.394  12.758  1.00  0.00     0.304 C 
HETATM   12  C   UNL     1     -42.189 -47.582  11.216  1.00  0.00     0.146 C 
HETATM   13  C   UNL     1     -43.630 -47.601  10.716  1.00  0.00     0.041 C 
HETATM   14  O   UNL     1     -41.542 -46.508  10.504  1.00  0.00    -0.378 OA
HETATM   15  C   UNL     1     -40.219 -46.258  10.995  1.00  0.00     0.146 C 
HETATM   16  C   UNL     1     -39.630 -45.097  10.208  1.00  0.00     0.041 C 
HETATM   17  C   UNL     1     -40.274 -45.965  12.509  1.00  0.00     0.304 C 
ENDBRANCH   8  10
ENDBRANCH   7   8
ENDBRANCH   1   7
BRANCH   4  18
HETATM   18  C   UNL     1     -41.906 -53.062  12.394  1.00  0.00     0.132 A 
HETATM   19  C   UNL     1     -42.312 -53.968  13.404  1.00  0.00     0.084 A 
HETATM   20  C   UNL     1     -43.674 -54.058  13.254  1.00  0.00     0.076 A 
HETATM   21  C   UNL     1     -44.768 -54.773  13.933  1.00  0.00     0.079 C 
HETATM   22  O   UNL     1     -44.057 -53.280  12.214  1.00  0.00    -0.241 OA
HETATM   23  N   UNL     1     -42.957 -52.666  11.671  1.00  0.00    -0.245 N 
ATOM     24  HN  UNL     1     -42.945 -52.031  10.873  1.00  0.00     0.196 HD
ENDBRANCH   4  18
TORSDOF 4
ENDMDL
MODEL 8
REMARK VINA RESULT:      -5.9      1.773      2.118
REMARK  4 active torsions:
REMARK  status: ('A' for Active; 'I' for Inactive)
REMARK    1  A    between atoms: C_2  and  C_3 
REMARK    2  A    between atoms: C_2  and  N_15 
REMARK    3  A    between atoms: C_3  and  N_4 
REMARK       I    between atoms: N_4  and  C_5 
REMARK       I    between atoms: C_5  and  N_7 
REMARK    4  A    between atoms: N_7  and  C_8 
ROOT
HETATM    1  N   UNL     1     -41.628 -48.924  12.736  1.00  0.00    -0.341 N 
HETATM    2  C   UNL     1     -41.185 -49.649  11.671  1.00  0.00     0.321 C 
HETATM    3  O   UNL     1     -40.731 -50.794  11.775  1.00  0.00    -0.247 OA
HETATM    4  N   UNL     1     -41.269 -49.081  10.435  1.00  0.00    -0.293 N 
HETATM    5  H   UNL     1     -41.837 -47.947  12.572  1.00  0.00     0.164 HD
HETATM    6  H   UNL     1     -40.934 -49.671   9.687  1.00  0.00     0.172 HD
ENDROOT
BRANCH   1   7
HETATM    7  C   UNL     1     -41.632 -49.470  14.070  1.00  0.00     0.159 C 
BRANCH   7   8
HETATM    8  C   UNL     1     -43.015 -49.796  14.715  1.00  0.00     0.237 C 
HETATM    9  C   UNL     1     -43.186 -48.712  15.808  1.00  0.00     0.044 C 
BRANCH   8  10
HETATM   10  N   UNL     1     -43.215 -51.157  15.309  1.00  0.00     0.099 N 
HETATM   11  C   UNL     1     -43.028 -52.289  14.362  1.00  0.00     0.304 C 
HETATM   12  C   UNL     1     -44.132 -52.402  13.273  1.00  0.00     0.146 C 
HETATM   13  C   UNL     1     -44.009 -53.706  12.491  1.00  0.00     0.041 C 
HETATM   14  O   UNL     1     -45.460 -52.406  13.834  1.00  0.00    -0.378 OA
HETATM   15  C   UNL     1     -45.665 -51.315  14.740  1.00  0.00     0.146 C 
HETATM   16  C   UNL     1     -47.076 -51.418  15.299  1.00  0.00     0.041 C 
HETATM   17  C   UNL     1     -44.595 -51.354  15.851  1.00  0.00     0.304 C 
ENDBRANCH   8  10
ENDBRANCH   7   8
ENDBRANCH   1   7
BRANCH   4  18
HETATM   18  C   UNL     1     -41.806 -47.856  10.101  1.00  0.00     0.132 A 
HETATM   19  C   UNL     1     -43.131 -47.638   9.650  1.00  0.00     0.084 A 
HETATM   20  C   UNL     1     -43.213 -46.277   9.479  1.00  0.00     0.076 A 
HETATM   21  C   UNL     1     -44.256 -45.325   9.060  1.00  0.00     0.079 C 
HETATM   22  O   UNL     1     -42.017 -45.720   9.783  1.00  0.00    -0.241 OA
HETATM   23  N   UNL     1     -41.137 -46.701  10.163  1.00  0.00    -0.245 N 
ATOM     24  HN  UNL     1     -40.163 -46.574  10.437  1.00  0.00     0.196 HD
ENDBRANCH   4  18
TORSDOF 4
ENDMDL
MODEL 9
REMARK VINA RESULT:      -5.8      2.926      6.492
REMARK  4 active torsions:
REMARK  status: ('A' for Active; 'I' for Inactive)
REMARK    1  A    between atoms: C_2  and  C_3 
REMARK    2  A    between atoms: C_2  and  N_15 
REMARK    3  A    between atoms: C_3  and  N_4 
REMARK       I    between atoms: N_4  and  C_5 
REMARK       I    between atoms: C_5  and  N_7 
REMARK    4  A    between atoms: N_7  and  C_8 
ROOT
HETATM    1  N   UNL     1     -41.986 -50.021  11.647  1.00  0.00    -0.341 N 
HETATM    2  C   UNL     1     -41.189 -51.044  12.064  1.00  0.00     0.321 C 
HETATM    3  O   UNL     1     -39.954 -50.979  12.067  1.00  0.00    -0.247 OA
HETATM    4  N   UNL     1     -41.793 -52.178  12.515  1.00  0.00    -0.293 N 
HETATM    5  H   UNL     1     -42.973 -50.221  11.537  1.00  0.00     0.164 HD
HETATM    6  H   UNL     1     -41.150 -52.895  12.818  1.00  0.00     0.172 HD
ENDROOT
BRANCH   1   7
HETATM    7  C   UNL     1     -41.433 -48.763  11.212  1.00  0.00     0.159 C 
BRANCH   7   8
HETATM    8  C   UNL     1     -41.615 -47.528  12.149  1.00  0.00     0.237 C 
HETATM    9  C   UNL     1     -42.671 -47.992  13.183  1.00  0.00     0.044 C 
BRANCH   8  10
HETATM   10  N   UNL     1     -42.039 -46.229  11.533  1.00  0.00     0.099 N 
HETATM   11  C   UNL     1     -41.241 -45.805  10.352  1.00  0.00     0.304 C 
HETATM   12  C   UNL     1     -39.782 -45.381  10.684  1.00  0.00     0.146 C 
HETATM   13  C   UNL     1     -39.103 -44.740   9.478  1.00  0.00     0.041 C 
HETATM   14  O   UNL     1     -39.721 -44.396  11.736  1.00  0.00    -0.378 OA
HETATM   15  C   UNL     1     -40.474 -44.793  12.889  1.00  0.00     0.146 C 
HETATM   16  C   UNL     1     -40.374 -43.687  13.928  1.00  0.00     0.041 C 
HETATM   17  C   UNL     1     -41.934 -45.078  12.482  1.00  0.00     0.304 C 
ENDBRANCH   8  10
ENDBRANCH   7   8
ENDBRANCH   1   7
BRANCH   4  18
HETATM   18  C   UNL     1     -43.143 -52.418  12.659  1.00  0.00     0.132 A 
HETATM   19  C   UNL     1     -43.977 -51.838  13.645  1.00  0.00     0.084 A 
HETATM   20  C   UNL     1     -45.226 -52.343  13.376  1.00  0.00     0.076 A 
HETATM   21  C   UNL     1     -46.575 -52.187  13.945  1.00  0.00     0.079 C 
HETATM   22  O   UNL     1     -45.144 -53.183  12.317  1.00  0.00    -0.241 OA
HETATM   23  N   UNL     1     -43.848 -53.239  11.875  1.00  0.00    -0.245 N 
ATOM     24  HN  UNL     1     -43.491 -53.798  11.099  1.00  0.00     0.196 HD
ENDBRANCH   4  18
TORSDOF 4
ENDMDL
