MODEL 1
REMARK VINA RESULT:      -5.7      0.000      0.000
REMARK  8 active torsions:
REMARK  status: ('A' for Active; 'I' for Inactive)
REMARK    1  A    between atoms: O_2  and  C_3 
REMARK    2  A    between atoms: C_3  and  C_4 
REMARK    3  A    between atoms: N_13  and  C_14 
REMARK    4  A    between atoms: C_14  and  C_15 
REMARK    5  A    between atoms: C_15  and  O_16 
REMARK    6  A    between atoms: C_15  and  C_17 
REMARK    7  A    between atoms: C_17  and  O_18 
REMARK    8  A    between atoms: O_18  and  C_19 
ROOT
HETATM    1  C   UNL     1     -40.600 -53.491  14.126  1.00  0.00     0.108 A 
HETATM    2  N   UNL     1     -41.276 -54.165  15.042  1.00  0.00    -0.342 N 
ATOM      3  HN  UNL     1     -40.927 -54.493  15.943  1.00  0.00     0.167 HD
HETATM    4  C   UNL     1     -42.536 -54.333  14.538  1.00  0.00     0.060 A 
HETATM    5  C   UNL     1     -43.660 -54.933  15.127  1.00  0.00     0.032 A 
HETATM    6  C   UNL     1     -44.853 -55.006  14.399  1.00  0.00     0.002 A 
HETATM    7  C   UNL     1     -44.929 -54.481  13.110  1.00  0.00     0.002 A 
HETATM    8  C   UNL     1     -43.824 -53.854  12.520  1.00  0.00     0.032 A 
HETATM    9  C   UNL     1     -42.634 -53.800  13.255  1.00  0.00     0.062 A 
HETATM   10  N   UNL     1     -41.382 -53.279  13.006  1.00  0.00    -0.330 N 
ENDROOT
BRANCH  10  11
HETATM   11  C   UNL     1     -40.984 -52.551  11.812  1.00  0.00     0.164 C 
BRANCH  11  12
HETATM   12  C   UNL     1     -40.960 -51.019  11.955  1.00  0.00     0.160 C 
BRANCH  12  13
HETATM   13  O   UNL     1     -40.426 -50.379  10.791  1.00  0.00    -0.392 OA
HETATM   14  H   UNL     1     -40.447 -49.416  10.936  1.00  0.00     0.210 HD
ENDBRANCH  12  13
BRANCH  12  15
HETATM   15  C   UNL     1     -42.303 -50.386  12.337  1.00  0.00     0.209 C 
BRANCH  15  16
HETATM   16  O   UNL     1     -42.349 -50.231  13.755  1.00  0.00    -0.349 OA
BRANCH  16  17
HETATM   17  C   UNL     1     -43.509 -50.638  14.354  1.00  0.00     0.068 A 
HETATM   18  C   UNL     1     -44.614 -50.743  13.507  1.00  0.00     0.037 A 
HETATM   19  C   UNL     1     -45.858 -51.119  14.008  1.00  0.00     0.009 A 
HETATM   20  C   UNL     1     -46.006 -51.428  15.364  1.00  0.00    -0.062 A 
HETATM   21  C   UNL     1     -47.334 -51.842  15.923  1.00  0.00     0.048 C 
HETATM   22  C   UNL     1     -44.883 -51.368  16.201  1.00  0.00     0.009 A 
HETATM   23  C   UNL     1     -43.641 -50.971  15.700  1.00  0.00     0.037 A 
ENDBRANCH  16  17
ENDBRANCH  15  16
ENDBRANCH  12  15
ENDBRANCH  11  12
ENDBRANCH  10  11
BRANCH   1  24
HETATM   24  C   UNL     1     -39.189 -53.029  14.278  1.00  0.00     0.243 C 
BRANCH  24  25
HETATM   25  O   UNL     1     -39.218 -51.771  14.952  1.00  0.00    -0.389 OA
HETATM   26  C   UNL     1     -38.187 -50.917  14.477  1.00  0.00     0.202 C 
ENDBRANCH  24  25
ENDBRANCH   1  24
TORSDOF 8
ENDMDL
MODEL 2
REMARK VINA RESULT:      -5.5      2.446      4.493
REMARK  8 active torsions:
REMARK  status: ('A' for Active; 'I' for Inactive)
REMARK    1  A    between atoms: O_2  and  C_3 
REMARK    2  A    between atoms: C_3  and  C_4 
REMARK    3  A    between atoms: N_13  and  C_14 
REMARK    4  A    between atoms: C_14  and  C_15 
REMARK    5  A    between atoms: C_15  and  O_16 
REMARK    6  A    between atoms: C_15  and  C_17 
REMARK    7  A    between atoms: C_17  and  O_18 
REMARK    8  A    between atoms: O_18  and  C_19 
ROOT
HETATM    1  C   UNL     1     -39.429 -49.806  12.006  1.00  0.00     0.108 A 
HETATM    2  N   UNL     1     -39.404 -48.632  11.398  1.00  0.00    -0.342 N 
ATOM      3  HN  UNL     1     -38.582 -48.137  11.053  1.00  0.00     0.167 HD
HETATM    4  C   UNL     1     -40.706 -48.215  11.324  1.00  0.00     0.060 A 
HETATM    5  C   UNL     1     -41.241 -47.062  10.729  1.00  0.00     0.032 A 
HETATM    6  C   UNL     1     -42.620 -46.838  10.799  1.00  0.00     0.002 A 
HETATM    7  C   UNL     1     -43.454 -47.751  11.443  1.00  0.00     0.002 A 
HETATM    8  C   UNL     1     -42.938 -48.919  12.016  1.00  0.00     0.032 A 
HETATM    9  C   UNL     1     -41.555 -49.124  11.949  1.00  0.00     0.062 A 
HETATM   10  N   UNL     1     -40.717 -50.127  12.389  1.00  0.00    -0.330 N 
ENDROOT
BRANCH  10  11
HETATM   11  C   UNL     1     -41.130 -51.351  13.056  1.00  0.00     0.164 C 
BRANCH  11  12
HETATM   12  C   UNL     1     -41.691 -52.446  12.131  1.00  0.00     0.160 C 
BRANCH  12  13
HETATM   13  O   UNL     1     -40.659 -53.086  11.371  1.00  0.00    -0.392 OA
HETATM   14  H   UNL     1     -40.918 -53.066  10.432  1.00  0.00     0.210 HD
ENDBRANCH  12  13
BRANCH  12  15
HETATM   15  C   UNL     1     -42.563 -53.496  12.829  1.00  0.00     0.209 C 
BRANCH  15  16
HETATM   16  O   UNL     1     -43.913 -53.328  12.399  1.00  0.00    -0.349 OA
BRANCH  16  17
HETATM   17  C   UNL     1     -44.797 -52.950  13.372  1.00  0.00     0.068 A 
HETATM   18  C   UNL     1     -45.587 -51.842  13.062  1.00  0.00     0.037 A 
HETATM   19  C   UNL     1     -46.503 -51.343  13.987  1.00  0.00     0.009 A 
HETATM   20  C   UNL     1     -46.663 -51.973  15.225  1.00  0.00    -0.062 A 
HETATM   21  C   UNL     1     -47.648 -51.458  16.232  1.00  0.00     0.048 C 
HETATM   22  C   UNL     1     -45.903 -53.114  15.512  1.00  0.00     0.009 A 
HETATM   23  C   UNL     1     -44.970 -53.599  14.591  1.00  0.00     0.037 A 
ENDBRANCH  16  17
ENDBRANCH  15  16
ENDBRANCH  12  15
ENDBRANCH  11  12
ENDBRANCH  10  11
BRANCH   1  24
HETATM   24  C   UNL     1     -38.231 -50.664  12.248  1.00  0.00     0.243 C 
BRANCH  24  25
HETATM   25  O   UNL     1     -37.437 -50.022  13.246  1.00  0.00    -0.389 OA
HETATM   26  C   UNL     1     -37.778 -50.490  14.544  1.00  0.00     0.202 C 
ENDBRANCH  24  25
ENDBRANCH   1  24
TORSDOF 8
ENDMDL
MODEL 3
REMARK VINA RESULT:      -5.5      1.917      3.370
REMARK  8 active torsions:
REMARK  status: ('A' for Active; 'I' for Inactive)
REMARK    1  A    between atoms: O_2  and  C_3 
REMARK    2  A    between atoms: C_3  and  C_4 
REMARK    3  A    between atoms: N_13  and  C_14 
REMARK    4  A    between atoms: C_14  and  C_15 
REMARK    5  A    between atoms: C_15  and  O_16 
REMARK    6  A    between atoms: C_15  and  C_17 
REMARK    7  A    between atoms: C_17  and  O_18 
REMARK    8  A    between atoms: O_18  and  C_19 
ROOT
HETATM    1  C   UNL     1     -42.253 -50.340  14.961  1.00  0.00     0.108 A 
HETATM    2  N   UNL     1     -43.172 -50.313  15.912  1.00  0.00    -0.342 N 
ATOM      3  HN  UNL     1     -43.036 -50.051  16.889  1.00  0.00     0.167 HD
HETATM    4  C   UNL     1     -44.341 -50.708  15.322  1.00  0.00     0.060 A 
HETATM    5  C   UNL     1     -45.629 -50.803  15.871  1.00  0.00     0.032 A 
HETATM    6  C   UNL     1     -46.680 -51.257  15.066  1.00  0.00     0.002 A 
HETATM    7  C   UNL     1     -46.454 -51.601  13.734  1.00  0.00     0.002 A 
HETATM    8  C   UNL     1     -45.180 -51.485  13.165  1.00  0.00     0.032 A 
HETATM    9  C   UNL     1     -44.136 -51.042  13.986  1.00  0.00     0.062 A 
HETATM   10  N   UNL     1     -42.792 -50.811  13.779  1.00  0.00    -0.330 N 
ENDROOT
BRANCH  10  11
HETATM   11  C   UNL     1     -42.088 -50.952  12.515  1.00  0.00     0.164 C 
BRANCH  11  12
HETATM   12  C   UNL     1     -41.775 -52.399  12.096  1.00  0.00     0.160 C 
BRANCH  12  13
HETATM   13  O   UNL     1     -41.212 -52.467  10.780  1.00  0.00    -0.392 OA
HETATM   14  H   UNL     1     -41.400 -53.351  10.415  1.00  0.00     0.210 HD
ENDBRANCH  12  13
BRANCH  12  15
HETATM   15  C   UNL     1     -40.903 -53.182  13.085  1.00  0.00     0.209 C 
BRANCH  15  16
HETATM   16  O   UNL     1     -41.576 -54.394  13.426  1.00  0.00    -0.349 OA
BRANCH  16  17
HETATM   17  C   UNL     1     -42.448 -54.306  14.476  1.00  0.00     0.068 A 
HETATM   18  C   UNL     1     -43.767 -54.662  14.187  1.00  0.00     0.037 A 
HETATM   19  C   UNL     1     -44.753 -54.584  15.168  1.00  0.00     0.009 A 
HETATM   20  C   UNL     1     -44.424 -54.178  16.465  1.00  0.00    -0.062 A 
HETATM   21  C   UNL     1     -45.468 -54.093  17.538  1.00  0.00     0.048 C 
HETATM   22  C   UNL     1     -43.090 -53.867  16.762  1.00  0.00     0.009 A 
HETATM   23  C   UNL     1     -42.106 -53.927  15.771  1.00  0.00     0.037 A 
ENDBRANCH  16  17
ENDBRANCH  15  16
ENDBRANCH  12  15
ENDBRANCH  11  12
ENDBRANCH  10  11
BRANCH   1  24
HETATM   24  C   UNL     1     -40.830 -49.924  15.140  1.00  0.00     0.243 C 
BRANCH  24  25
HETATM   25  O   UNL     1     -40.149 -50.990  15.799  1.00  0.00    -0.389 OA
HETATM   26  C   UNL     1     -38.815 -51.110  15.325  1.00  0.00     0.202 C 
ENDBRANCH  24  25
ENDBRANCH   1  24
TORSDOF 8
ENDMDL
MODEL 4
REMARK VINA RESULT:      -5.5      2.112      3.477
REMARK  8 active torsions:
REMARK  status: ('A' for Active; 'I' for Inactive)
REMARK    1  A    between atoms: O_2  and  C_3 
REMARK    2  A    between atoms: C_3  and  C_4 
REMARK    3  A    between atoms: N_13  and  C_14 
REMARK    4  A    between atoms: C_14  and  C_15 
REMARK    5  A    between atoms: C_15  and  O_16 
REMARK    6  A    between atoms: C_15  and  C_17 
REMARK    7  A    between atoms: C_17  and  O_18 
REMARK    8  A    between atoms: O_18  and  C_19 
ROOT
HETATM    1  C   UNL     1     -41.843 -53.722  15.767  1.00  0.00     0.108 A 
HETATM    2  N   UNL     1     -42.531 -53.567  16.886  1.00  0.00    -0.342 N 
ATOM      3  HN  UNL     1     -42.630 -54.242  17.644  1.00  0.00     0.167 HD
HETATM    4  C   UNL     1     -43.085 -52.318  16.821  1.00  0.00     0.060 A 
HETATM    5  C   UNL     1     -43.864 -51.637  17.770  1.00  0.00     0.032 A 
HETATM    6  C   UNL     1     -44.341 -50.357  17.467  1.00  0.00     0.002 A 
HETATM    7  C   UNL     1     -44.040 -49.761  16.243  1.00  0.00     0.002 A 
HETATM    8  C   UNL     1     -43.241 -50.416  15.298  1.00  0.00     0.032 A 
HETATM    9  C   UNL     1     -42.781 -51.701  15.611  1.00  0.00     0.062 A 
HETATM   10  N   UNL     1     -41.997 -52.621  14.947  1.00  0.00    -0.330 N 
ENDROOT
BRANCH  10  11
HETATM   11  C   UNL     1     -41.367 -52.426  13.651  1.00  0.00     0.164 C 
BRANCH  11  12
HETATM   12  C   UNL     1     -42.289 -52.630  12.436  1.00  0.00     0.160 C 
BRANCH  12  13
HETATM   13  O   UNL     1     -41.555 -52.691  11.208  1.00  0.00    -0.392 OA
HETATM   14  H   UNL     1     -41.771 -51.898  10.685  1.00  0.00     0.210 HD
ENDBRANCH  12  13
BRANCH  12  15
HETATM   15  C   UNL     1     -43.240 -53.828  12.543  1.00  0.00     0.209 C 
BRANCH  15  16
HETATM   16  O   UNL     1     -44.561 -53.394  12.219  1.00  0.00    -0.349 OA
BRANCH  16  17
HETATM   17  C   UNL     1     -45.329 -53.006  13.280  1.00  0.00     0.068 A 
HETATM   18  C   UNL     1     -45.947 -51.761  13.147  1.00  0.00     0.037 A 
HETATM   19  C   UNL     1     -46.731 -51.244  14.177  1.00  0.00     0.009 A 
HETATM   20  C   UNL     1     -46.933 -51.985  15.345  1.00  0.00    -0.062 A 
HETATM   21  C   UNL     1     -47.779 -51.452  16.463  1.00  0.00     0.048 C 
HETATM   22  C   UNL     1     -46.350 -53.255  15.455  1.00  0.00     0.009 A 
HETATM   23  C   UNL     1     -45.548 -53.762  14.429  1.00  0.00     0.037 A 
ENDBRANCH  16  17
ENDBRANCH  15  16
ENDBRANCH  12  15
ENDBRANCH  11  12
ENDBRANCH  10  11
BRANCH   1  24
HETATM   24  C   UNL     1     -41.018 -54.921  15.435  1.00  0.00     0.243 C 
BRANCH  24  25
HETATM   25  O   UNL     1     -41.400 -55.967  16.328  1.00  0.00    -0.389 OA
HETATM   26  C   UNL     1     -40.260 -56.542  16.952  1.00  0.00     0.202 C 
ENDBRANCH  24  25
ENDBRANCH   1  24
TORSDOF 8
ENDMDL
MODEL 5
REMARK VINA RESULT:      -5.4      2.103      4.305
REMARK  8 active torsions:
REMARK  status: ('A' for Active; 'I' for Inactive)
REMARK    1  A    between atoms: O_2  and  C_3 
REMARK    2  A    between atoms: C_3  and  C_4 
REMARK    3  A    between atoms: N_13  and  C_14 
REMARK    4  A    between atoms: C_14  and  C_15 
REMARK    5  A    between atoms: C_15  and  O_16 
REMARK    6  A    between atoms: C_15  and  C_17 
REMARK    7  A    between atoms: C_17  and  O_18 
REMARK    8  A    between atoms: O_18  and  C_19 
ROOT
HETATM    1  C   UNL     1     -39.963 -52.937  14.223  1.00  0.00     0.108 A 
HETATM    2  N   UNL     1     -38.673 -52.686  14.076  1.00  0.00    -0.342 N 
ATOM      3  HN  UNL     1     -37.896 -53.240  14.437  1.00  0.00     0.167 HD
HETATM    4  C   UNL     1     -38.591 -51.534  13.342  1.00  0.00     0.060 A 
HETATM    5  C   UNL     1     -37.456 -50.861  12.862  1.00  0.00     0.032 A 
HETATM    6  C   UNL     1     -37.624 -49.674  12.142  1.00  0.00     0.002 A 
HETATM    7  C   UNL     1     -38.900 -49.170  11.894  1.00  0.00     0.002 A 
HETATM    8  C   UNL     1     -40.042 -49.845  12.342  1.00  0.00     0.032 A 
HETATM    9  C   UNL     1     -39.858 -51.025  13.072  1.00  0.00     0.062 A 
HETATM   10  N   UNL     1     -40.721 -51.930  13.655  1.00  0.00    -0.330 N 
ENDROOT
BRANCH  10  11
HETATM   11  C   UNL     1     -42.173 -51.880  13.601  1.00  0.00     0.164 C 
BRANCH  11  12
HETATM   12  C   UNL     1     -42.807 -52.579  12.385  1.00  0.00     0.160 C 
BRANCH  12  13
HETATM   13  O   UNL     1     -41.871 -52.749  11.315  1.00  0.00    -0.392 OA
HETATM   14  H   UNL     1     -41.903 -51.954  10.753  1.00  0.00     0.210 HD
ENDBRANCH  12  13
BRANCH  12  15
HETATM   15  C   UNL     1     -43.502 -53.910  12.697  1.00  0.00     0.209 C 
BRANCH  15  16
HETATM   16  O   UNL     1     -44.900 -53.764  12.453  1.00  0.00    -0.349 OA
BRANCH  16  17
HETATM   17  C   UNL     1     -45.600 -53.100  13.422  1.00  0.00     0.068 A 
HETATM   18  C   UNL     1     -45.640 -53.731  14.667  1.00  0.00     0.037 A 
HETATM   19  C   UNL     1     -46.349 -53.166  15.725  1.00  0.00     0.009 A 
HETATM   20  C   UNL     1     -47.002 -51.941  15.559  1.00  0.00    -0.062 A 
HETATM   21  C   UNL     1     -47.764 -51.312  16.687  1.00  0.00     0.048 C 
HETATM   22  C   UNL     1     -46.919 -51.288  14.322  1.00  0.00     0.009 A 
HETATM   23  C   UNL     1     -46.225 -51.867  13.256  1.00  0.00     0.037 A 
ENDBRANCH  16  17
ENDBRANCH  15  16
ENDBRANCH  12  15
ENDBRANCH  11  12
ENDBRANCH  10  11
BRANCH   1  24
HETATM   24  C   UNL     1     -40.524 -54.137  14.910  1.00  0.00     0.243 C 
BRANCH  24  25
HETATM   25  O   UNL     1     -39.463 -55.080  15.065  1.00  0.00    -0.389 OA
HETATM   26  C   UNL     1     -39.427 -55.590  16.391  1.00  0.00     0.202 C 
ENDBRANCH  24  25
ENDBRANCH   1  24
TORSDOF 8
ENDMDL
MODEL 6
REMARK VINA RESULT:      -5.4      2.058      3.133
REMARK  8 active torsions:
REMARK  status: ('A' for Active; 'I' for Inactive)
REMARK    1  A    between atoms: O_2  and  C_3 
REMARK    2  A    between atoms: C_3  and  C_4 
REMARK    3  A    between atoms: N_13  and  C_14 
REMARK    4  A    between atoms: C_14  and  C_15 
REMARK    5  A    between atoms: C_15  and  O_16 
REMARK    6  A    between atoms: C_15  and  C_17 
REMARK    7  A    between atoms: C_17  and  O_18 
REMARK    8  A    between atoms: O_18  and  C_19 
ROOT
HETATM    1  C   UNL     1     -39.756 -52.215  13.610  1.00  0.00     0.108 A 
HETATM    2  N   UNL     1     -38.815 -53.007  14.096  1.00  0.00    -0.342 N 
ATOM      3  HN  UNL     1     -37.810 -52.937  13.934  1.00  0.00     0.167 HD
HETATM    4  C   UNL     1     -39.461 -53.939  14.861  1.00  0.00     0.060 A 
HETATM    5  C   UNL     1     -38.927 -54.977  15.641  1.00  0.00     0.032 A 
HETATM    6  C   UNL     1     -39.799 -55.827  16.330  1.00  0.00     0.002 A 
HETATM    7  C   UNL     1     -41.179 -55.642  16.251  1.00  0.00     0.002 A 
HETATM    8  C   UNL     1     -41.724 -54.593  15.500  1.00  0.00     0.032 A 
HETATM    9  C   UNL     1     -40.840 -53.758  14.806  1.00  0.00     0.062 A 
HETATM   10  N   UNL     1     -41.008 -52.659  13.991  1.00  0.00    -0.330 N 
ENDROOT
BRANCH  10  11
HETATM   11  C   UNL     1     -42.275 -52.024  13.666  1.00  0.00     0.164 C 
BRANCH  11  12
HETATM   12  C   UNL     1     -42.967 -52.552  12.397  1.00  0.00     0.160 C 
BRANCH  12  13
HETATM   13  O   UNL     1     -42.062 -52.643  11.291  1.00  0.00    -0.392 OA
HETATM   14  H   UNL     1     -41.973 -53.581  11.046  1.00  0.00     0.210 HD
ENDBRANCH  12  13
BRANCH  12  15
HETATM   15  C   UNL     1     -43.717 -53.878  12.575  1.00  0.00     0.209 C 
BRANCH  15  16
HETATM   16  O   UNL     1     -45.116 -53.633  12.434  1.00  0.00    -0.349 OA
BRANCH  16  17
HETATM   17  C   UNL     1     -45.741 -53.133  13.543  1.00  0.00     0.068 A 
HETATM   18  C   UNL     1     -46.372 -51.901  13.368  1.00  0.00     0.037 A 
HETATM   19  C   UNL     1     -47.016 -51.276  14.434  1.00  0.00     0.009 A 
HETATM   20  C   UNL     1     -47.064 -51.896  15.686  1.00  0.00    -0.062 A 
HETATM   21  C   UNL     1     -47.758 -51.245  16.845  1.00  0.00     0.048 C 
HETATM   22  C   UNL     1     -46.470 -53.155  15.845  1.00  0.00     0.009 A 
HETATM   23  C   UNL     1     -45.808 -53.771  14.779  1.00  0.00     0.037 A 
ENDBRANCH  16  17
ENDBRANCH  15  16
ENDBRANCH  12  15
ENDBRANCH  11  12
ENDBRANCH  10  11
BRANCH   1  24
HETATM   24  C   UNL     1     -39.502 -51.012  12.763  1.00  0.00     0.243 C 
BRANCH  24  25
HETATM   25  O   UNL     1     -38.153 -50.603  12.989  1.00  0.00    -0.389 OA
HETATM   26  C   UNL     1     -37.446 -50.489  11.762  1.00  0.00     0.202 C 
ENDBRANCH  24  25
ENDBRANCH   1  24
TORSDOF 8
ENDMDL
MODEL 7
REMARK VINA RESULT:      -5.4      2.058      3.776
REMARK  8 active torsions:
REMARK  status: ('A' for Active; 'I' for Inactive)
REMARK    1  A    between atoms: O_2  and  C_3 
REMARK    2  A    between atoms: C_3  and  C_4 
REMARK    3  A    between atoms: N_13  and  C_14 
REMARK    4  A    between atoms: C_14  and  C_15 
REMARK    5  A    between atoms: C_15  and  O_16 
REMARK    6  A    between atoms: C_15  and  C_17 
REMARK    7  A    between atoms: C_17  and  O_18 
REMARK    8  A    between atoms: O_18  and  C_19 
ROOT
HETATM    1  C   UNL     1     -43.666 -50.744  13.796  1.00  0.00     0.108 A 
HETATM    2  N   UNL     1     -44.690 -50.902  14.619  1.00  0.00    -0.342 N 
ATOM      3  HN  UNL     1     -45.095 -50.198  15.235  1.00  0.00     0.167 HD
HETATM    4  C   UNL     1     -45.094 -52.201  14.476  1.00  0.00     0.060 A 
HETATM    5  C   UNL     1     -46.170 -52.871  15.080  1.00  0.00     0.032 A 
HETATM    6  C   UNL     1     -46.376 -54.224  14.791  1.00  0.00     0.002 A 
HETATM    7  C   UNL     1     -45.532 -54.897  13.908  1.00  0.00     0.002 A 
HETATM    8  C   UNL     1     -44.472 -54.234  13.277  1.00  0.00     0.032 A 
HETATM    9  C   UNL     1     -44.270 -52.884  13.586  1.00  0.00     0.062 A 
HETATM   10  N   UNL     1     -43.356 -51.938  13.172  1.00  0.00    -0.330 N 
ENDROOT
BRANCH  10  11
HETATM   11  C   UNL     1     -42.309 -52.138  12.183  1.00  0.00     0.164 C 
BRANCH  11  12
HETATM   12  C   UNL     1     -41.177 -53.089  12.610  1.00  0.00     0.160 C 
BRANCH  12  13
HETATM   13  O   UNL     1     -40.428 -53.571  11.489  1.00  0.00    -0.392 OA
HETATM   14  H   UNL     1     -39.935 -52.821  11.109  1.00  0.00     0.210 HD
ENDBRANCH  12  13
BRANCH  12  15
HETATM   15  C   UNL     1     -40.230 -52.525  13.676  1.00  0.00     0.209 C 
BRANCH  15  16
HETATM   16  O   UNL     1     -40.077 -53.495  14.712  1.00  0.00    -0.349 OA
BRANCH  16  17
HETATM   17  C   UNL     1     -41.142 -53.621  15.560  1.00  0.00     0.068 A 
HETATM   18  C   UNL     1     -41.680 -54.905  15.657  1.00  0.00     0.037 A 
HETATM   19  C   UNL     1     -42.787 -55.151  16.466  1.00  0.00     0.009 A 
HETATM   20  C   UNL     1     -43.351 -54.116  17.219  1.00  0.00    -0.062 A 
HETATM   21  C   UNL     1     -44.538 -54.360  18.103  1.00  0.00     0.048 C 
HETATM   22  C   UNL     1     -42.778 -52.839  17.156  1.00  0.00     0.009 A 
HETATM   23  C   UNL     1     -41.680 -52.591  16.328  1.00  0.00     0.037 A 
ENDBRANCH  16  17
ENDBRANCH  15  16
ENDBRANCH  12  15
ENDBRANCH  11  12
ENDBRANCH  10  11
BRANCH   1  24
HETATM   24  C   UNL     1     -42.943 -49.456  13.574  1.00  0.00     0.243 C 
BRANCH  24  25
HETATM   25  O   UNL     1     -43.428 -48.894  12.355  1.00  0.00    -0.389 OA
HETATM   26  C   UNL     1     -42.352 -48.463  11.532  1.00  0.00     0.202 C 
ENDBRANCH  24  25
ENDBRANCH   1  24
TORSDOF 8
ENDMDL
MODEL 8
REMARK VINA RESULT:      -5.2      2.047      3.862
REMARK  8 active torsions:
REMARK  status: ('A' for Active; 'I' for Inactive)
REMARK    1  A    between atoms: O_2  and  C_3 
REMARK    2  A    between atoms: C_3  and  C_4 
REMARK    3  A    between atoms: N_13  and  C_14 
REMARK    4  A    between atoms: C_14  and  C_15 
REMARK    5  A    between atoms: C_15  and  O_16 
REMARK    6  A    between atoms: C_15  and  C_17 
REMARK    7  A    between atoms: C_17  and  O_18 
REMARK    8  A    between atoms: O_18  and  C_19 
ROOT
HETATM    1  C   UNL     1     -41.545 -48.882  14.812  1.00  0.00     0.108 A 
HETATM    2  N   UNL     1     -42.292 -49.245  15.842  1.00  0.00    -0.342 N 
ATOM      3  HN  UNL     1     -42.114 -49.052  16.827  1.00  0.00     0.167 HD
HETATM    4  C   UNL     1     -43.351 -49.934  15.317  1.00  0.00     0.060 A 
HETATM    5  C   UNL     1     -44.463 -50.491  15.968  1.00  0.00     0.032 A 
HETATM    6  C   UNL     1     -45.421 -51.175  15.213  1.00  0.00     0.002 A 
HETATM    7  C   UNL     1     -45.280 -51.296  13.831  1.00  0.00     0.002 A 
HETATM    8  C   UNL     1     -44.191 -50.721  13.164  1.00  0.00     0.032 A 
HETATM    9  C   UNL     1     -43.234 -50.050  13.935  1.00  0.00     0.062 A 
HETATM   10  N   UNL     1     -42.066 -49.382  13.634  1.00  0.00    -0.330 N 
ENDROOT
BRANCH  10  11
HETATM   11  C   UNL     1     -41.528 -49.163  12.301  1.00  0.00     0.164 C 
BRANCH  11  12
HETATM   12  C   UNL     1     -40.902 -50.401  11.635  1.00  0.00     0.160 C 
BRANCH  12  13
HETATM   13  O   UNL     1     -40.395 -50.109  10.328  1.00  0.00    -0.392 OA
HETATM   14  H   UNL     1     -40.921 -50.611   9.679  1.00  0.00     0.210 HD
ENDBRANCH  12  13
BRANCH  12  15
HETATM   15  C   UNL     1     -39.830 -51.110  12.472  1.00  0.00     0.209 C 
BRANCH  15  16
HETATM   16  O   UNL     1     -40.071 -52.516  12.428  1.00  0.00    -0.349 OA
BRANCH  16  17
HETATM   17  C   UNL     1     -40.982 -52.985  13.333  1.00  0.00     0.068 A 
HETATM   18  C   UNL     1     -40.753 -52.612  14.658  1.00  0.00     0.037 A 
HETATM   19  C   UNL     1     -41.596 -53.055  15.676  1.00  0.00     0.009 A 
HETATM   20  C   UNL     1     -42.704 -53.853  15.372  1.00  0.00    -0.062 A 
HETATM   21  C   UNL     1     -43.629 -54.334  16.450  1.00  0.00     0.048 C 
HETATM   22  C   UNL     1     -42.957 -54.184  14.034  1.00  0.00     0.009 A 
HETATM   23  C   UNL     1     -42.098 -53.756  13.018  1.00  0.00     0.037 A 
ENDBRANCH  16  17
ENDBRANCH  15  16
ENDBRANCH  12  15
ENDBRANCH  11  12
ENDBRANCH  10  11
BRANCH   1  24
HETATM   24  C   UNL     1     -40.308 -48.051  14.910  1.00  0.00     0.243 C 
BRANCH  24  25
HETATM   25  O   UNL     1     -39.206 -48.939  15.097  1.00  0.00    -0.389 OA
HETATM   26  C   UNL     1     -38.060 -48.479  14.394  1.00  0.00     0.202 C 
ENDBRANCH  24  25
ENDBRANCH   1  24
TORSDOF 8
ENDMDL
MODEL 9
REMARK VINA RESULT:      -5.2      2.675      5.572
REMARK  8 active torsions:
REMARK  status: ('A' for Active; 'I' for Inactive)
REMARK    1  A    between atoms: O_2  and  C_3 
REMARK    2  A    between atoms: C_3  and  C_4 
REMARK    3  A    between atoms: N_13  and  C_14 
REMARK    4  A    between atoms: C_14  and  C_15 
REMARK    5  A    between atoms: C_15  and  O_16 
REMARK    6  A    between atoms: C_15  and  C_17 
REMARK    7  A    between atoms: C_17  and  O_18 
REMARK    8  A    between atoms: O_18  and  C_19 
ROOT
HETATM    1  C   UNL     1     -45.107 -51.915  16.171  1.00  0.00     0.108 A 
HETATM    2  N   UNL     1     -43.885 -51.689  16.626  1.00  0.00    -0.342 N 
ATOM      3  HN  UNL     1     -43.533 -51.891  17.562  1.00  0.00     0.167 HD
HETATM    4  C   UNL     1     -43.191 -51.130  15.588  1.00  0.00     0.060 A 
HETATM    5  C   UNL     1     -41.842 -50.748  15.521  1.00  0.00     0.032 A 
HETATM    6  C   UNL     1     -41.356 -50.172  14.343  1.00  0.00     0.002 A 
HETATM    7  C   UNL     1     -42.197 -49.986  13.246  1.00  0.00     0.002 A 
HETATM    8  C   UNL     1     -43.538 -50.388  13.289  1.00  0.00     0.032 A 
HETATM    9  C   UNL     1     -44.013 -50.952  14.479  1.00  0.00     0.062 A 
HETATM   10  N   UNL     1     -45.236 -51.448  14.877  1.00  0.00    -0.330 N 
ENDROOT
BRANCH  10  11
HETATM   11  C   UNL     1     -46.426 -51.548  14.047  1.00  0.00     0.164 C 
BRANCH  11  12
HETATM   12  C   UNL     1     -46.452 -52.744  13.079  1.00  0.00     0.160 C 
BRANCH  12  13
HETATM   13  O   UNL     1     -46.007 -52.382  11.767  1.00  0.00    -0.392 OA
HETATM   14  H   UNL     1     -46.725 -51.890  11.328  1.00  0.00     0.210 HD
ENDBRANCH  12  13
BRANCH  12  15
HETATM   15  C   UNL     1     -45.698 -53.986  13.568  1.00  0.00     0.209 C 
BRANCH  15  16
HETATM   16  O   UNL     1     -44.573 -54.203  12.716  1.00  0.00    -0.349 OA
BRANCH  16  17
HETATM   17  C   UNL     1     -43.357 -54.216  13.340  1.00  0.00     0.068 A 
HETATM   18  C   UNL     1     -43.351 -54.756  14.627  1.00  0.00     0.037 A 
HETATM   19  C   UNL     1     -42.176 -54.795  15.375  1.00  0.00     0.009 A 
HETATM   20  C   UNL     1     -40.979 -54.322  14.828  1.00  0.00    -0.062 A 
HETATM   21  C   UNL     1     -39.702 -54.361  15.612  1.00  0.00     0.048 C 
HETATM   22  C   UNL     1     -40.980 -53.825  13.517  1.00  0.00     0.009 A 
HETATM   23  C   UNL     1     -42.164 -53.768  12.777  1.00  0.00     0.037 A 
ENDBRANCH  16  17
ENDBRANCH  15  16
ENDBRANCH  12  15
ENDBRANCH  11  12
ENDBRANCH  10  11
BRANCH   1  24
HETATM   24  C   UNL     1     -46.196 -52.577  16.949  1.00  0.00     0.243 C 
BRANCH  24  25
HETATM   25  O   UNL     1     -45.842 -53.951  17.102  1.00  0.00    -0.389 OA
HETATM   26  C   UNL     1     -46.060 -54.386  18.437  1.00  0.00     0.202 C 
ENDBRANCH  24  25
ENDBRANCH   1  24
TORSDOF 8
ENDMDL
