MODEL 1
REMARK VINA RESULT:      -6.2      0.000      0.000
REMARK  6 active torsions:
REMARK  status: ('A' for Active; 'I' for Inactive)
REMARK    1  A    between atoms: C_2  and  C_3 
REMARK    2  A    between atoms: C_2  and  N_11 
REMARK    3  A    between atoms: C_3  and  N_4 
REMARK    4  A    between atoms: N_11  and  C_12 
REMARK    5  A    between atoms: C_12  and  C_13 
REMARK       I    between atoms: C_13  and  N_15 
REMARK    6  A    between atoms: N_15  and  C_16 
ROOT
HETATM    1  N   UNL     1     -42.051 -49.872  11.613  1.00  0.00     0.098 N 
HETATM    2  H   UNL     1     -42.382 -49.978  10.648  1.00  0.00     0.317 HD
ENDROOT
BRANCH   1   3
HETATM    3  C   UNL     1     -41.722 -48.442  11.820  1.00  0.00     0.236 C 
HETATM    4  C   UNL     1     -40.376 -48.412  12.563  1.00  0.00     0.044 C 
BRANCH   3   5
HETATM    5  C   UNL     1     -41.640 -47.653  10.498  1.00  0.00     0.183 C 
BRANCH   5   6
HETATM    6  N   UNL     1     -42.875 -47.656   9.737  1.00  0.00    -0.301 N 
HETATM    7  C   UNL     1     -44.121 -47.348  10.202  1.00  0.00     0.118 A 
HETATM    8  C   UNL     1     -44.973 -47.445   9.125  1.00  0.00    -0.028 A 
HETATM    9  C   UNL     1     -46.431 -47.205   9.082  1.00  0.00     0.051 C 
HETATM   10  C   UNL     1     -44.129 -47.820   8.054  1.00  0.00     0.115 A 
HETATM   11  N   UNL     1     -42.852 -47.943   8.424  1.00  0.00    -0.310 N 
ATOM     12  HN  UNL     1     -42.050 -48.196   7.847  1.00  0.00     0.186 HD
ENDBRANCH   5   6
ENDBRANCH   3   5
ENDBRANCH   1   3
BRANCH   1  13
HETATM   13  C   UNL     1     -40.876 -50.774  11.762  1.00  0.00     0.372 C 
BRANCH  13  14
HETATM   14  C   UNL     1     -41.370 -52.208  12.030  1.00  0.00     0.246 C 
HETATM   15  O   UNL     1     -40.634 -53.186  12.029  1.00  0.00    -0.272 OA
HETATM   16  N   UNL     1     -42.717 -52.243  12.308  1.00  0.00    -0.355 N 
HETATM   17  H   UNL     1     -43.137 -51.317  12.377  1.00  0.00     0.162 HD
BRANCH  16  18
HETATM   18  C   UNL     1     -43.506 -53.420  12.644  1.00  0.00     0.088 C 
HETATM   19  C   UNL     1     -45.015 -53.193  12.505  1.00  0.00     0.051 C 
HETATM   20  C   UNL     1     -45.530 -52.236  13.572  1.00  0.00     0.169 C 
HETATM   21  O   UNL     1     -45.181 -52.687  14.882  1.00  0.00    -0.391 OA
HETATM   22  C   UNL     1     -43.771 -52.804  15.058  1.00  0.00     0.169 C 
HETATM   23  C   UNL     1     -43.195 -53.830  14.087  1.00  0.00     0.051 C 
ENDBRANCH  16  18
ENDBRANCH  13  14
ENDBRANCH   1  13
TORSDOF 6
ENDMDL
MODEL 2
REMARK VINA RESULT:      -6.0      2.629      6.804
REMARK  6 active torsions:
REMARK  status: ('A' for Active; 'I' for Inactive)
REMARK    1  A    between atoms: C_2  and  C_3 
REMARK    2  A    between atoms: C_2  and  N_11 
REMARK    3  A    between atoms: C_3  and  N_4 
REMARK    4  A    between atoms: N_11  and  C_12 
REMARK    5  A    between atoms: C_12  and  C_13 
REMARK       I    between atoms: C_13  and  N_15 
REMARK    6  A    between atoms: N_15  and  C_16 
ROOT
HETATM    1  N   UNL     1     -44.509 -50.376  12.618  1.00  0.00     0.098 N 
HETATM    2  H   UNL     1     -45.354 -49.796  12.580  1.00  0.00     0.317 HD
ENDROOT
BRANCH   1   3
HETATM    3  C   UNL     1     -44.849 -51.620  13.346  1.00  0.00     0.236 C 
HETATM    4  C   UNL     1     -46.378 -51.623  13.509  1.00  0.00     0.044 C 
BRANCH   3   5
HETATM    5  C   UNL     1     -44.369 -52.888  12.611  1.00  0.00     0.183 C 
BRANCH   5   6
HETATM    6  N   UNL     1     -42.933 -53.079  12.647  1.00  0.00    -0.301 N 
HETATM    7  C   UNL     1     -42.222 -53.758  13.595  1.00  0.00     0.118 A 
HETATM    8  C   UNL     1     -40.905 -53.713  13.200  1.00  0.00    -0.028 A 
HETATM    9  C   UNL     1     -39.725 -54.303  13.868  1.00  0.00     0.051 C 
HETATM   10  C   UNL     1     -40.934 -52.978  11.993  1.00  0.00     0.115 A 
HETATM   11  N   UNL     1     -42.167 -52.596  11.653  1.00  0.00    -0.310 N 
ATOM     12  HN  UNL     1     -42.459 -52.065  10.833  1.00  0.00     0.186 HD
ENDBRANCH   5   6
ENDBRANCH   3   5
ENDBRANCH   1   3
BRANCH   1  13
HETATM   13  C   UNL     1     -43.466 -49.562  13.299  1.00  0.00     0.372 C 
BRANCH  13  14
HETATM   14  C   UNL     1     -42.387 -49.160  12.275  1.00  0.00     0.246 C 
HETATM   15  O   UNL     1     -41.215 -49.506  12.359  1.00  0.00    -0.272 OA
HETATM   16  N   UNL     1     -42.909 -48.408  11.248  1.00  0.00    -0.355 N 
HETATM   17  H   UNL     1     -43.924 -48.322  11.290  1.00  0.00     0.162 HD
BRANCH  16  18
HETATM   18  C   UNL     1     -42.189 -47.892  10.093  1.00  0.00     0.088 C 
HETATM   19  C   UNL     1     -41.452 -46.579  10.380  1.00  0.00     0.051 C 
HETATM   20  C   UNL     1     -42.431 -45.433  10.594  1.00  0.00     0.169 C 
HETATM   21  O   UNL     1     -43.327 -45.306   9.488  1.00  0.00    -0.391 OA
HETATM   22  C   UNL     1     -44.096 -46.488   9.274  1.00  0.00     0.169 C 
HETATM   23  C   UNL     1     -43.182 -47.666   8.949  1.00  0.00     0.051 C 
ENDBRANCH  16  18
ENDBRANCH  13  14
ENDBRANCH   1  13
TORSDOF 6
ENDMDL
MODEL 3
REMARK VINA RESULT:      -5.8      2.720      6.494
REMARK  6 active torsions:
REMARK  status: ('A' for Active; 'I' for Inactive)
REMARK    1  A    between atoms: C_2  and  C_3 
REMARK    2  A    between atoms: C_2  and  N_11 
REMARK    3  A    between atoms: C_3  and  N_4 
REMARK    4  A    between atoms: N_11  and  C_12 
REMARK    5  A    between atoms: C_12  and  C_13 
REMARK       I    between atoms: C_13  and  N_15 
REMARK    6  A    between atoms: N_15  and  C_16 
ROOT
HETATM    1  N   UNL     1     -42.132 -49.814  11.489  1.00  0.00     0.098 N 
HETATM    2  H   UNL     1     -42.846 -50.085  10.805  1.00  0.00     0.317 HD
ENDROOT
BRANCH   1   3
HETATM    3  C   UNL     1     -41.734 -51.033  12.232  1.00  0.00     0.236 C 
HETATM    4  C   UNL     1     -40.247 -50.860  12.582  1.00  0.00     0.044 C 
BRANCH   3   5
HETATM    5  C   UNL     1     -42.578 -51.255  13.503  1.00  0.00     0.183 C 
BRANCH   5   6
HETATM    6  N   UNL     1     -43.656 -52.209  13.331  1.00  0.00    -0.301 N 
HETATM    7  C   UNL     1     -43.741 -53.454  13.887  1.00  0.00     0.118 A 
HETATM    8  C   UNL     1     -44.948 -53.978  13.483  1.00  0.00    -0.028 A 
HETATM    9  C   UNL     1     -45.533 -55.295  13.811  1.00  0.00     0.051 C 
HETATM   10  C   UNL     1     -45.513 -52.959  12.682  1.00  0.00     0.115 A 
HETATM   11  N   UNL     1     -44.731 -51.881  12.593  1.00  0.00    -0.310 N 
ATOM     12  HN  UNL     1     -44.907 -51.014  12.086  1.00  0.00     0.186 HD
ENDBRANCH   5   6
ENDBRANCH   3   5
ENDBRANCH   1   3
BRANCH   1  13
HETATM   13  C   UNL     1     -42.746 -48.771  12.356  1.00  0.00     0.372 C 
BRANCH  13  14
HETATM   14  C   UNL     1     -43.078 -47.533  11.500  1.00  0.00     0.246 C 
HETATM   15  O   UNL     1     -42.522 -46.451  11.636  1.00  0.00    -0.272 OA
HETATM   16  N   UNL     1     -44.037 -47.807  10.552  1.00  0.00    -0.355 N 
HETATM   17  H   UNL     1     -44.295 -48.792  10.516  1.00  0.00     0.162 HD
BRANCH  16  18
HETATM   18  C   UNL     1     -44.561 -46.886   9.553  1.00  0.00     0.088 C 
HETATM   19  C   UNL     1     -45.973 -47.251   9.081  1.00  0.00     0.051 C 
HETATM   20  C   UNL     1     -45.967 -48.532   8.259  1.00  0.00     0.169 C 
HETATM   21  O   UNL     1     -45.051 -48.440   7.166  1.00  0.00    -0.391 OA
HETATM   22  C   UNL     1     -43.712 -48.204   7.598  1.00  0.00     0.169 C 
HETATM   23  C   UNL     1     -43.619 -46.877   8.345  1.00  0.00     0.051 C 
ENDBRANCH  16  18
ENDBRANCH  13  14
ENDBRANCH   1  13
TORSDOF 6
ENDMDL
MODEL 4
REMARK VINA RESULT:      -5.8      1.235      1.773
REMARK  6 active torsions:
REMARK  status: ('A' for Active; 'I' for Inactive)
REMARK    1  A    between atoms: C_2  and  C_3 
REMARK    2  A    between atoms: C_2  and  N_11 
REMARK    3  A    between atoms: C_3  and  N_4 
REMARK    4  A    between atoms: N_11  and  C_12 
REMARK    5  A    between atoms: C_12  and  C_13 
REMARK       I    between atoms: C_13  and  N_15 
REMARK    6  A    between atoms: N_15  and  C_16 
ROOT
HETATM    1  N   UNL     1     -42.029 -49.242  11.194  1.00  0.00     0.098 N 
HETATM    2  H   UNL     1     -42.023 -49.351  10.175  1.00  0.00     0.317 HD
ENDROOT
BRANCH   1   3
HETATM    3  C   UNL     1     -41.501 -47.893  11.506  1.00  0.00     0.236 C 
HETATM    4  C   UNL     1     -39.970 -48.027  11.549  1.00  0.00     0.044 C 
BRANCH   3   5
HETATM    5  C   UNL     1     -41.934 -46.833  10.473  1.00  0.00     0.183 C 
BRANCH   5   6
HETATM    6  N   UNL     1     -43.075 -47.228   9.670  1.00  0.00    -0.301 N 
HETATM    7  C   UNL     1     -44.382 -47.253  10.065  1.00  0.00     0.118 A 
HETATM    8  C   UNL     1     -45.112 -47.651   8.969  1.00  0.00    -0.028 A 
HETATM    9  C   UNL     1     -46.575 -47.832   8.856  1.00  0.00     0.051 C 
HETATM   10  C   UNL     1     -44.140 -47.840   7.960  1.00  0.00     0.115 A 
HETATM   11  N   UNL     1     -42.901 -47.578   8.384  1.00  0.00    -0.310 N 
ATOM     12  HN  UNL     1     -42.030 -47.630   7.857  1.00  0.00     0.186 HD
ENDBRANCH   5   6
ENDBRANCH   3   5
ENDBRANCH   1   3
BRANCH   1  13
HETATM   13  C   UNL     1     -41.191 -50.342  11.744  1.00  0.00     0.372 C 
BRANCH  13  14
HETATM   14  C   UNL     1     -41.825 -50.856  13.051  1.00  0.00     0.246 C 
HETATM   15  O   UNL     1     -41.214 -50.941  14.109  1.00  0.00    -0.272 OA
HETATM   16  N   UNL     1     -43.155 -51.165  12.889  1.00  0.00    -0.355 N 
HETATM   17  H   UNL     1     -43.515 -50.919  11.968  1.00  0.00     0.162 HD
BRANCH  16  18
HETATM   18  C   UNL     1     -44.071 -51.640  13.918  1.00  0.00     0.088 C 
HETATM   19  C   UNL     1     -43.833 -53.103  14.306  1.00  0.00     0.051 C 
HETATM   20  C   UNL     1     -44.223 -54.044  13.174  1.00  0.00     0.169 C 
HETATM   21  O   UNL     1     -45.571 -53.820  12.757  1.00  0.00    -0.391 OA
HETATM   22  C   UNL     1     -45.780 -52.487  12.294  1.00  0.00     0.169 C 
HETATM   23  C   UNL     1     -45.508 -51.486  13.412  1.00  0.00     0.051 C 
ENDBRANCH  16  18
ENDBRANCH  13  14
ENDBRANCH   1  13
TORSDOF 6
ENDMDL
MODEL 5
REMARK VINA RESULT:      -5.5      2.491      6.128
REMARK  6 active torsions:
REMARK  status: ('A' for Active; 'I' for Inactive)
REMARK    1  A    between atoms: C_2  and  C_3 
REMARK    2  A    between atoms: C_2  and  N_11 
REMARK    3  A    between atoms: C_3  and  N_4 
REMARK    4  A    between atoms: N_11  and  C_12 
REMARK    5  A    between atoms: C_12  and  C_13 
REMARK       I    between atoms: C_13  and  N_15 
REMARK    6  A    between atoms: N_15  and  C_16 
ROOT
HETATM    1  N   UNL     1     -41.683 -51.751  11.676  1.00  0.00     0.098 N 
HETATM    2  H   UNL     1     -42.662 -51.576  11.924  1.00  0.00     0.317 HD
ENDROOT
BRANCH   1   3
HETATM    3  C   UNL     1     -41.110 -52.647  12.707  1.00  0.00     0.236 C 
HETATM    4  C   UNL     1     -39.698 -52.116  13.005  1.00  0.00     0.044 C 
BRANCH   3   5
HETATM    5  C   UNL     1     -41.963 -52.697  13.991  1.00  0.00     0.183 C 
BRANCH   5   6
HETATM    6  N   UNL     1     -43.392 -52.696  13.745  1.00  0.00    -0.301 N 
HETATM    7  C   UNL     1     -44.286 -51.738  14.129  1.00  0.00     0.118 A 
HETATM    8  C   UNL     1     -45.512 -52.134  13.646  1.00  0.00    -0.028 A 
HETATM    9  C   UNL     1     -46.816 -51.449  13.775  1.00  0.00     0.051 C 
HETATM   10  C   UNL     1     -45.240 -53.352  12.981  1.00  0.00     0.115 A 
HETATM   11  N   UNL     1     -43.951 -53.692  13.036  1.00  0.00    -0.310 N 
ATOM     12  HN  UNL     1     -43.497 -54.512  12.635  1.00  0.00     0.186 HD
ENDBRANCH   5   6
ENDBRANCH   3   5
ENDBRANCH   1   3
BRANCH   1  13
HETATM   13  C   UNL     1     -41.016 -50.421  11.615  1.00  0.00     0.372 C 
BRANCH  13  14
HETATM   14  C   UNL     1     -42.008 -49.336  12.074  1.00  0.00     0.246 C 
HETATM   15  O   UNL     1     -42.208 -49.059  13.251  1.00  0.00    -0.272 OA
HETATM   16  N   UNL     1     -42.600 -48.698  11.009  1.00  0.00    -0.355 N 
HETATM   17  H   UNL     1     -42.220 -48.986  10.108  1.00  0.00     0.162 HD
BRANCH  16  18
HETATM   18  C   UNL     1     -43.555 -47.601  11.072  1.00  0.00     0.088 C 
HETATM   19  C   UNL     1     -44.403 -47.467   9.803  1.00  0.00     0.051 C 
HETATM   20  C   UNL     1     -43.562 -46.996   8.624  1.00  0.00     0.169 C 
HETATM   21  O   UNL     1     -42.875 -45.781   8.932  1.00  0.00    -0.391 OA
HETATM   22  C   UNL     1     -42.002 -45.921  10.051  1.00  0.00     0.169 C 
HETATM   23  C   UNL     1     -42.792 -46.292  11.302  1.00  0.00     0.051 C 
ENDBRANCH  16  18
ENDBRANCH  13  14
ENDBRANCH   1  13
TORSDOF 6
ENDMDL
MODEL 6
REMARK VINA RESULT:      -5.4      3.444      4.306
REMARK  6 active torsions:
REMARK  status: ('A' for Active; 'I' for Inactive)
REMARK    1  A    between atoms: C_2  and  C_3 
REMARK    2  A    between atoms: C_2  and  N_11 
REMARK    3  A    between atoms: C_3  and  N_4 
REMARK    4  A    between atoms: N_11  and  C_12 
REMARK    5  A    between atoms: C_12  and  C_13 
REMARK       I    between atoms: C_13  and  N_15 
REMARK    6  A    between atoms: N_15  and  C_16 
ROOT
HETATM    1  N   UNL     1     -39.574 -50.057  11.011  1.00  0.00     0.098 N 
HETATM    2  H   UNL     1     -39.420 -50.070   9.998  1.00  0.00     0.317 HD
ENDROOT
BRANCH   1   3
HETATM    3  C   UNL     1     -40.539 -48.971  11.306  1.00  0.00     0.236 C 
HETATM    4  C   UNL     1     -41.764 -49.644  11.947  1.00  0.00     0.044 C 
BRANCH   3   5
HETATM    5  C   UNL     1     -39.951 -47.891  12.236  1.00  0.00     0.183 C 
BRANCH   5   6
HETATM    6  N   UNL     1     -40.016 -46.549  11.691  1.00  0.00    -0.301 N 
HETATM    7  C   UNL     1     -40.334 -45.407  12.368  1.00  0.00     0.118 A 
HETATM    8  C   UNL     1     -40.228 -44.376  11.463  1.00  0.00    -0.028 A 
HETATM    9  C   UNL     1     -40.457 -42.932  11.684  1.00  0.00     0.051 C 
HETATM   10  C   UNL     1     -39.838 -45.013  10.262  1.00  0.00     0.115 A 
HETATM   11  N   UNL     1     -39.704 -46.334  10.401  1.00  0.00    -0.310 N 
ATOM     12  HN  UNL     1     -39.429 -47.017   9.696  1.00  0.00     0.186 HD
ENDBRANCH   5   6
ENDBRANCH   3   5
ENDBRANCH   1   3
BRANCH   1  13
HETATM   13  C   UNL     1     -38.241 -49.846  11.641  1.00  0.00     0.372 C 
BRANCH  13  14
HETATM   14  C   UNL     1     -37.891 -51.071  12.507  1.00  0.00     0.246 C 
HETATM   15  O   UNL     1     -36.786 -51.599  12.513  1.00  0.00    -0.272 OA
HETATM   16  N   UNL     1     -38.950 -51.464  13.292  1.00  0.00    -0.355 N 
HETATM   17  H   UNL     1     -39.748 -50.832  13.235  1.00  0.00     0.162 HD
BRANCH  16  18
HETATM   18  C   UNL     1     -38.962 -52.556  14.255  1.00  0.00     0.088 C 
HETATM   19  C   UNL     1     -39.400 -53.892  13.645  1.00  0.00     0.051 C 
HETATM   20  C   UNL     1     -40.877 -53.872  13.275  1.00  0.00     0.169 C 
HETATM   21  O   UNL     1     -41.685 -53.513  14.397  1.00  0.00    -0.391 OA
HETATM   22  C   UNL     1     -41.357 -52.223  14.911  1.00  0.00     0.169 C 
HETATM   23  C   UNL     1     -39.913 -52.196  15.401  1.00  0.00     0.051 C 
ENDBRANCH  16  18
ENDBRANCH  13  14
ENDBRANCH   1  13
TORSDOF 6
ENDMDL
MODEL 7
REMARK VINA RESULT:      -5.4      2.302      3.252
REMARK  6 active torsions:
REMARK  status: ('A' for Active; 'I' for Inactive)
REMARK    1  A    between atoms: C_2  and  C_3 
REMARK    2  A    between atoms: C_2  and  N_11 
REMARK    3  A    between atoms: C_3  and  N_4 
REMARK    4  A    between atoms: N_11  and  C_12 
REMARK    5  A    between atoms: C_12  and  C_13 
REMARK       I    between atoms: C_13  and  N_15 
REMARK    6  A    between atoms: N_15  and  C_16 
ROOT
HETATM    1  N   UNL     1     -41.945 -50.434  11.823  1.00  0.00     0.098 N 
HETATM    2  H   UNL     1     -42.476 -50.400  10.947  1.00  0.00     0.317 HD
ENDROOT
BRANCH   1   3
HETATM    3  C   UNL     1     -41.037 -49.263  11.845  1.00  0.00     0.236 C 
HETATM    4  C   UNL     1     -39.627 -49.804  11.556  1.00  0.00     0.044 C 
BRANCH   3   5
HETATM    5  C   UNL     1     -41.436 -48.184  10.819  1.00  0.00     0.183 C 
BRANCH   5   6
HETATM    6  N   UNL     1     -40.797 -46.901  11.039  1.00  0.00    -0.301 N 
HETATM    7  C   UNL     1     -40.327 -46.416  12.226  1.00  0.00     0.118 A 
HETATM    8  C   UNL     1     -39.768 -45.189  11.951  1.00  0.00    -0.028 A 
HETATM    9  C   UNL     1     -39.112 -44.249  12.884  1.00  0.00     0.051 C 
HETATM   10  C   UNL     1     -39.956 -45.032  10.558  1.00  0.00     0.115 A 
HETATM   11  N   UNL     1     -40.576 -46.075  10.002  1.00  0.00    -0.310 N 
ATOM     12  HN  UNL     1     -40.824 -46.212   9.022  1.00  0.00     0.186 HD
ENDBRANCH   5   6
ENDBRANCH   3   5
ENDBRANCH   1   3
BRANCH   1  13
HETATM   13  C   UNL     1     -41.225 -51.737  11.834  1.00  0.00     0.372 C 
BRANCH  13  14
HETATM   14  C   UNL     1     -42.126 -52.808  12.478  1.00  0.00     0.246 C 
HETATM   15  O   UNL     1     -41.699 -53.856  12.946  1.00  0.00    -0.272 OA
HETATM   16  N   UNL     1     -43.447 -52.424  12.496  1.00  0.00    -0.355 N 
HETATM   17  H   UNL     1     -43.592 -51.470  12.167  1.00  0.00     0.162 HD
BRANCH  16  18
HETATM   18  C   UNL     1     -44.563 -53.170  13.060  1.00  0.00     0.088 C 
HETATM   19  C   UNL     1     -45.907 -52.830  12.406  1.00  0.00     0.051 C 
HETATM   20  C   UNL     1     -46.350 -51.416  12.759  1.00  0.00     0.169 C 
HETATM   21  O   UNL     1     -46.387 -51.225  14.175  1.00  0.00    -0.391 OA
HETATM   22  C   UNL     1     -45.115 -51.437  14.784  1.00  0.00     0.169 C 
HETATM   23  C   UNL     1     -44.650 -52.873  14.561  1.00  0.00     0.051 C 
ENDBRANCH  16  18
ENDBRANCH  13  14
ENDBRANCH   1  13
TORSDOF 6
ENDMDL
MODEL 8
REMARK VINA RESULT:      -5.3      3.186      6.598
REMARK  6 active torsions:
REMARK  status: ('A' for Active; 'I' for Inactive)
REMARK    1  A    between atoms: C_2  and  C_3 
REMARK    2  A    between atoms: C_2  and  N_11 
REMARK    3  A    between atoms: C_3  and  N_4 
REMARK    4  A    between atoms: N_11  and  C_12 
REMARK    5  A    between atoms: C_12  and  C_13 
REMARK       I    between atoms: C_13  and  N_15 
REMARK    6  A    between atoms: N_15  and  C_16 
ROOT
HETATM    1  N   UNL     1     -44.494 -50.440  12.628  1.00  0.00     0.098 N 
HETATM    2  H   UNL     1     -45.309 -49.820  12.577  1.00  0.00     0.317 HD
ENDROOT
BRANCH   1   3
HETATM    3  C   UNL     1     -44.901 -51.657  13.369  1.00  0.00     0.236 C 
HETATM    4  C   UNL     1     -46.436 -51.613  13.464  1.00  0.00     0.044 C 
BRANCH   3   5
HETATM    5  C   UNL     1     -44.428 -52.955  12.685  1.00  0.00     0.183 C 
BRANCH   5   6
HETATM    6  N   UNL     1     -42.988 -53.123  12.680  1.00  0.00    -0.301 N 
HETATM    7  C   UNL     1     -42.241 -53.797  13.604  1.00  0.00     0.118 A 
HETATM    8  C   UNL     1     -40.936 -53.730  13.174  1.00  0.00    -0.028 A 
HETATM    9  C   UNL     1     -39.729 -54.304  13.805  1.00  0.00     0.051 C 
HETATM   10  C   UNL     1     -41.010 -52.988  11.972  1.00  0.00     0.115 A 
HETATM   11  N   UNL     1     -42.258 -52.624  11.669  1.00  0.00    -0.310 N 
ATOM     12  HN  UNL     1     -42.580 -52.092  10.860  1.00  0.00     0.186 HD
ENDBRANCH   5   6
ENDBRANCH   3   5
ENDBRANCH   1   3
BRANCH   1  13
HETATM   13  C   UNL     1     -43.416 -49.671  13.308  1.00  0.00     0.372 C 
BRANCH  13  14
HETATM   14  C   UNL     1     -42.500 -49.035  12.245  1.00  0.00     0.246 C 
HETATM   15  O   UNL     1     -42.910 -48.308  11.349  1.00  0.00    -0.272 OA
HETATM   16  N   UNL     1     -41.178 -49.352  12.451  1.00  0.00    -0.355 N 
HETATM   17  H   UNL     1     -41.020 -49.872  13.314  1.00  0.00     0.162 HD
BRANCH  16  18
HETATM   18  C   UNL     1     -40.040 -48.895  11.665  1.00  0.00     0.088 C 
HETATM   19  C   UNL     1     -38.882 -49.899  11.643  1.00  0.00     0.051 C 
HETATM   20  C   UNL     1     -38.215 -50.003  13.007  1.00  0.00     0.169 C 
HETATM   21  O   UNL     1     -37.794 -48.720  13.476  1.00  0.00    -0.391 OA
HETATM   22  C   UNL     1     -38.881 -47.805  13.601  1.00  0.00     0.169 C 
HETATM   23  C   UNL     1     -39.538 -47.569  12.245  1.00  0.00     0.051 C 
ENDBRANCH  16  18
ENDBRANCH  13  14
ENDBRANCH   1  13
TORSDOF 6
ENDMDL
MODEL 9
REMARK VINA RESULT:      -5.3      3.443      6.113
REMARK  6 active torsions:
REMARK  status: ('A' for Active; 'I' for Inactive)
REMARK    1  A    between atoms: C_2  and  C_3 
REMARK    2  A    between atoms: C_2  and  N_11 
REMARK    3  A    between atoms: C_3  and  N_4 
REMARK    4  A    between atoms: N_11  and  C_12 
REMARK    5  A    between atoms: C_12  and  C_13 
REMARK       I    between atoms: C_13  and  N_15 
REMARK    6  A    between atoms: N_15  and  C_16 
ROOT
HETATM    1  N   UNL     1     -42.183 -51.090  13.150  1.00  0.00     0.098 N 
HETATM    2  H   UNL     1     -41.208 -51.032  13.463  1.00  0.00     0.317 HD
ENDROOT
BRANCH   1   3
HETATM    3  C   UNL     1     -42.302 -52.270  12.263  1.00  0.00     0.236 C 
HETATM    4  C   UNL     1     -40.910 -52.921  12.219  1.00  0.00     0.044 C 
BRANCH   3   5
HETATM    5  C   UNL     1     -43.366 -53.274  12.750  1.00  0.00     0.183 C 
BRANCH   5   6
HETATM    6  N   UNL     1     -44.612 -52.655  13.159  1.00  0.00    -0.301 N 
HETATM    7  C   UNL     1     -45.061 -52.491  14.438  1.00  0.00     0.118 A 
HETATM    8  C   UNL     1     -46.260 -51.822  14.346  1.00  0.00    -0.028 A 
HETATM    9  C   UNL     1     -47.156 -51.389  15.439  1.00  0.00     0.051 C 
HETATM   10  C   UNL     1     -46.440 -51.632  12.957  1.00  0.00     0.115 A 
HETATM   11  N   UNL     1     -45.436 -52.133  12.235  1.00  0.00    -0.310 N 
ATOM     12  HN  UNL     1     -45.322 -52.122  11.221  1.00  0.00     0.186 HD
ENDBRANCH   5   6
ENDBRANCH   3   5
ENDBRANCH   1   3
BRANCH   1  13
HETATM   13  C   UNL     1     -42.485 -49.804  12.462  1.00  0.00     0.372 C 
BRANCH  13  14
HETATM   14  C   UNL     1     -41.196 -49.262  11.815  1.00  0.00     0.246 C 
HETATM   15  O   UNL     1     -41.156 -48.790  10.685  1.00  0.00    -0.272 OA
HETATM   16  N   UNL     1     -40.121 -49.337  12.670  1.00  0.00    -0.355 N 
HETATM   17  H   UNL     1     -40.375 -49.651  13.606  1.00  0.00     0.162 HD
BRANCH  16  18
HETATM   18  C   UNL     1     -38.764 -48.882  12.404  1.00  0.00     0.088 C 
HETATM   19  C   UNL     1     -37.852 -49.991  11.867  1.00  0.00     0.051 C 
HETATM   20  C   UNL     1     -37.559 -51.032  12.939  1.00  0.00     0.169 C 
HETATM   21  O   UNL     1     -37.018 -50.425  14.114  1.00  0.00    -0.391 OA
HETATM   22  C   UNL     1     -37.904 -49.463  14.684  1.00  0.00     0.169 C 
HETATM   23  C   UNL     1     -38.164 -48.328  13.700  1.00  0.00     0.051 C 
ENDBRANCH  16  18
ENDBRANCH  13  14
ENDBRANCH   1  13
TORSDOF 6
ENDMDL
