MODEL 1
REMARK VINA RESULT:      -5.4      0.000      0.000
REMARK  3 active torsions:
REMARK  status: ('A' for Active; 'I' for Inactive)
REMARK    1  A    between atoms: N_1  and  C_4 
REMARK    2  A    between atoms: C_7  and  C_14 
REMARK    3  A    between atoms: O_12  and  C_14 
ROOT
HETATM    1  N   UNL     1     -42.594 -52.811  11.624  1.00  0.00    -0.290 N 
ATOM      2  HN  UNL     1     -43.067 -53.302  10.865  1.00  0.00     0.188 HD
HETATM    3  C   UNL     1     -43.151 -52.791  12.851  1.00  0.00     0.097 A 
HETATM    4  N   UNL     1     -41.383 -52.172  11.376  1.00  0.00    -0.304 N 
ATOM      5  HN  UNL     1     -40.990 -52.175  10.434  1.00  0.00     0.186 HD
HETATM    6  C   UNL     1     -42.462 -52.170  13.887  1.00  0.00     0.045 A 
HETATM    7  C   UNL     1     -40.726 -51.550  12.373  1.00  0.00     0.022 A 
HETATM    8  C   UNL     1     -41.243 -51.541  13.655  1.00  0.00     0.029 A 
HETATM    9  C   UNL     1     -39.446 -50.840  12.071  1.00  0.00     0.069 C 
ENDROOT
BRANCH   3  10
HETATM   10  N   UNL     1     -44.365 -53.412  13.141  1.00  0.00    -0.262 NA
HETATM   11  C   UNL     1     -45.475 -52.635  13.719  1.00  0.00     0.088 C 
HETATM   12  C   UNL     1     -46.419 -53.728  14.285  1.00  0.00     0.023 C 
HETATM   13  C   UNL     1     -45.709 -55.055  14.037  1.00  0.00     0.017 C 
HETATM   14  C   UNL     1     -44.252 -54.654  13.902  1.00  0.00     0.098 C 
BRANCH  11  15
HETATM   15  C   UNL     1     -46.174 -51.757  12.671  1.00  0.00     0.184 C 
BRANCH  15  16
HETATM   16  O   UNL     1     -46.567 -52.540  11.544  1.00  0.00    -0.399 OA
HETATM   17  H   UNL     1     -47.140 -51.972  10.999  1.00  0.00     0.209 HD
ENDBRANCH  15  16
ENDBRANCH  11  15
ENDBRANCH   3  10
TORSDOF 3
ENDMDL
MODEL 2
REMARK VINA RESULT:      -5.4      3.809      5.500
REMARK  3 active torsions:
REMARK  status: ('A' for Active; 'I' for Inactive)
REMARK    1  A    between atoms: N_1  and  C_4 
REMARK    2  A    between atoms: C_7  and  C_14 
REMARK    3  A    between atoms: O_12  and  C_14 
ROOT
HETATM    1  N   UNL     1     -40.841 -49.347  10.322  1.00  0.00    -0.290 N 
ATOM      2  HN  UNL     1     -40.063 -49.688   9.758  1.00  0.00     0.188 HD
HETATM    3  C   UNL     1     -40.976 -49.774  11.594  1.00  0.00     0.097 A 
HETATM    4  N   UNL     1     -41.747 -48.449   9.767  1.00  0.00    -0.304 N 
ATOM      5  HN  UNL     1     -41.644 -48.159   8.794  1.00  0.00     0.186 HD
HETATM    6  C   UNL     1     -42.007 -49.252  12.366  1.00  0.00     0.045 A 
HETATM    7  C   UNL     1     -42.760 -47.961  10.507  1.00  0.00     0.022 A 
HETATM    8  C   UNL     1     -42.911 -48.341  11.828  1.00  0.00     0.029 A 
HETATM    9  C   UNL     1     -43.740 -47.026   9.876  1.00  0.00     0.069 C 
ENDROOT
BRANCH   3  10
HETATM   10  N   UNL     1     -40.095 -50.677  12.186  1.00  0.00    -0.262 NA
HETATM   11  C   UNL     1     -40.597 -51.688  13.133  1.00  0.00     0.088 C 
HETATM   12  C   UNL     1     -39.314 -52.156  13.869  1.00  0.00     0.023 C 
HETATM   13  C   UNL     1     -38.183 -51.297  13.312  1.00  0.00     0.017 C 
HETATM   14  C   UNL     1     -38.902 -50.074  12.775  1.00  0.00     0.098 C 
BRANCH  11  15
HETATM   15  C   UNL     1     -41.307 -52.847  12.420  1.00  0.00     0.184 C 
BRANCH  15  16
HETATM   16  O   UNL     1     -40.528 -53.308  11.316  1.00  0.00    -0.399 OA
HETATM   17  H   UNL     1     -40.749 -54.248  11.195  1.00  0.00     0.209 HD
ENDBRANCH  15  16
ENDBRANCH  11  15
ENDBRANCH   3  10
TORSDOF 3
ENDMDL
MODEL 3
REMARK VINA RESULT:      -5.4      7.304      9.324
REMARK  3 active torsions:
REMARK  status: ('A' for Active; 'I' for Inactive)
REMARK    1  A    between atoms: N_1  and  C_4 
REMARK    2  A    between atoms: C_7  and  C_14 
REMARK    3  A    between atoms: O_12  and  C_14 
ROOT
HETATM    1  N   UNL     1     -44.243 -44.977   9.246  1.00  0.00    -0.290 N 
ATOM      2  HN  UNL     1     -44.301 -44.014   8.911  1.00  0.00     0.188 HD
HETATM    3  C   UNL     1     -43.231 -45.335  10.061  1.00  0.00     0.097 A 
HETATM    4  N   UNL     1     -45.209 -45.898   8.853  1.00  0.00    -0.304 N 
ATOM      5  HN  UNL     1     -45.952 -45.614   8.214  1.00  0.00     0.186 HD
HETATM    6  C   UNL     1     -43.202 -46.634  10.555  1.00  0.00     0.045 A 
HETATM    7  C   UNL     1     -45.168 -47.162   9.313  1.00  0.00     0.022 A 
HETATM    8  C   UNL     1     -44.170 -47.561  10.183  1.00  0.00     0.029 A 
HETATM    9  C   UNL     1     -46.197 -48.141   8.847  1.00  0.00     0.069 C 
ENDROOT
BRANCH   3  10
HETATM   10  N   UNL     1     -42.239 -44.446  10.473  1.00  0.00    -0.262 NA
HETATM   11  C   UNL     1     -41.093 -44.930  11.263  1.00  0.00     0.088 C 
HETATM   12  C   UNL     1     -40.507 -43.630  11.872  1.00  0.00     0.023 C 
HETATM   13  C   UNL     1     -41.436 -42.507  11.422  1.00  0.00     0.017 C 
HETATM   14  C   UNL     1     -42.734 -43.229  11.110  1.00  0.00     0.098 C 
BRANCH  11  15
HETATM   15  C   UNL     1     -40.067 -45.675  10.399  1.00  0.00     0.184 C 
BRANCH  15  16
HETATM   16  O   UNL     1     -39.685 -44.878   9.277  1.00  0.00    -0.399 OA
HETATM   17  H   UNL     1     -40.437 -44.892   8.659  1.00  0.00     0.209 HD
ENDBRANCH  15  16
ENDBRANCH  11  15
ENDBRANCH   3  10
TORSDOF 3
ENDMDL
MODEL 4
REMARK VINA RESULT:      -5.2      5.557      7.806
REMARK  3 active torsions:
REMARK  status: ('A' for Active; 'I' for Inactive)
REMARK    1  A    between atoms: N_1  and  C_4 
REMARK    2  A    between atoms: C_7  and  C_14 
REMARK    3  A    between atoms: O_12  and  C_14 
ROOT
HETATM    1  N   UNL     1     -43.721 -48.100  10.534  1.00  0.00    -0.290 N 
ATOM      2  HN  UNL     1     -43.312 -48.785  11.170  1.00  0.00     0.188 HD
HETATM    3  C   UNL     1     -42.953 -47.106  10.046  1.00  0.00     0.097 A 
HETATM    4  N   UNL     1     -45.064 -48.208  10.184  1.00  0.00    -0.304 N 
ATOM      5  HN  UNL     1     -45.636 -48.952  10.585  1.00  0.00     0.186 HD
HETATM    6  C   UNL     1     -43.512 -46.219   9.133  1.00  0.00     0.045 A 
HETATM    7  C   UNL     1     -45.612 -47.334   9.318  1.00  0.00     0.022 A 
HETATM    8  C   UNL     1     -44.849 -46.324   8.763  1.00  0.00     0.029 A 
HETATM    9  C   UNL     1     -47.065 -47.450   8.987  1.00  0.00     0.069 C 
ENDROOT
BRANCH   3  10
HETATM   10  N   UNL     1     -41.607 -46.959  10.375  1.00  0.00    -0.262 NA
HETATM   11  C   UNL     1     -41.016 -47.769  11.455  1.00  0.00     0.088 C 
HETATM   12  C   UNL     1     -39.704 -47.013  11.791  1.00  0.00     0.023 C 
HETATM   13  C   UNL     1     -39.703 -45.773  10.902  1.00  0.00     0.017 C 
HETATM   14  C   UNL     1     -41.171 -45.578  10.570  1.00  0.00     0.098 C 
BRANCH  11  15
HETATM   15  C   UNL     1     -40.750 -49.215  11.014  1.00  0.00     0.184 C 
BRANCH  15  16
HETATM   16  O   UNL     1     -41.828 -50.065  11.408  1.00  0.00    -0.399 OA
HETATM   17  H   UNL     1     -42.649 -49.593  11.181  1.00  0.00     0.209 HD
ENDBRANCH  15  16
ENDBRANCH  11  15
ENDBRANCH   3  10
TORSDOF 3
ENDMDL
MODEL 5
REMARK VINA RESULT:      -5.0      4.105      5.721
REMARK  3 active torsions:
REMARK  status: ('A' for Active; 'I' for Inactive)
REMARK    1  A    between atoms: N_1  and  C_4 
REMARK    2  A    between atoms: C_7  and  C_14 
REMARK    3  A    between atoms: O_12  and  C_14 
ROOT
HETATM    1  N   UNL     1     -41.285 -49.078  10.335  1.00  0.00    -0.290 N 
ATOM      2  HN  UNL     1     -40.447 -49.592  10.061  1.00  0.00     0.188 HD
HETATM    3  C   UNL     1     -41.778 -49.229  11.580  1.00  0.00     0.097 A 
HETATM    4  N   UNL     1     -41.901 -48.233   9.416  1.00  0.00    -0.304 N 
ATOM      5  HN  UNL     1     -41.528 -48.153   8.470  1.00  0.00     0.186 HD
HETATM    6  C   UNL     1     -42.885 -48.474  11.955  1.00  0.00     0.045 A 
HETATM    7  C   UNL     1     -42.986 -47.520   9.771  1.00  0.00     0.022 A 
HETATM    8  C   UNL     1     -43.500 -47.615  11.051  1.00  0.00     0.029 A 
HETATM    9  C   UNL     1     -43.650 -46.648   8.754  1.00  0.00     0.069 C 
ENDROOT
BRANCH   3  10
HETATM   10  N   UNL     1     -41.197 -50.068  12.528  1.00  0.00    -0.262 NA
HETATM   11  C   UNL     1     -40.046 -50.913  12.163  1.00  0.00     0.088 C 
HETATM   12  C   UNL     1     -40.003 -51.968  13.298  1.00  0.00     0.023 C 
HETATM   13  C   UNL     1     -41.204 -51.666  14.189  1.00  0.00     0.017 C 
HETATM   14  C   UNL     1     -42.140 -50.903  13.269  1.00  0.00     0.098 C 
BRANCH  11  15
HETATM   15  C   UNL     1     -38.742 -50.108  12.074  1.00  0.00     0.184 C 
BRANCH  15  16
HETATM   16  O   UNL     1     -38.338 -49.957  10.713  1.00  0.00    -0.399 OA
HETATM   17  H   UNL     1     -38.018 -50.828  10.421  1.00  0.00     0.209 HD
ENDBRANCH  15  16
ENDBRANCH  11  15
ENDBRANCH   3  10
TORSDOF 3
ENDMDL
MODEL 6
REMARK VINA RESULT:      -5.0      3.333      4.459
REMARK  3 active torsions:
REMARK  status: ('A' for Active; 'I' for Inactive)
REMARK    1  A    between atoms: N_1  and  C_4 
REMARK    2  A    between atoms: C_7  and  C_14 
REMARK    3  A    between atoms: O_12  and  C_14 
ROOT
HETATM    1  N   UNL     1     -40.925 -50.498  11.138  1.00  0.00    -0.290 N 
ATOM      2  HN  UNL     1     -40.253 -51.204  10.837  1.00  0.00     0.188 HD
HETATM    3  C   UNL     1     -41.769 -50.775  12.151  1.00  0.00     0.097 A 
HETATM    4  N   UNL     1     -40.956 -49.265  10.494  1.00  0.00    -0.304 N 
ATOM      5  HN  UNL     1     -40.328 -49.084   9.711  1.00  0.00     0.186 HD
HETATM    6  C   UNL     1     -42.636 -49.779  12.588  1.00  0.00     0.045 A 
HETATM    7  C   UNL     1     -41.812 -48.309  10.901  1.00  0.00     0.022 A 
HETATM    8  C   UNL     1     -42.667 -48.537  11.963  1.00  0.00     0.029 A 
HETATM    9  C   UNL     1     -41.850 -47.006  10.169  1.00  0.00     0.069 C 
ENDROOT
BRANCH   3  10
HETATM   10  N   UNL     1     -41.776 -51.999  12.818  1.00  0.00    -0.262 NA
HETATM   11  C   UNL     1     -40.594 -52.877  12.765  1.00  0.00     0.088 C 
HETATM   12  C   UNL     1     -41.151 -54.252  13.218  1.00  0.00     0.023 C 
HETATM   13  C   UNL     1     -42.648 -54.043  13.423  1.00  0.00     0.017 C 
HETATM   14  C   UNL     1     -42.953 -52.826  12.570  1.00  0.00     0.098 C 
BRANCH  11  15
HETATM   15  C   UNL     1     -39.464 -52.384  13.680  1.00  0.00     0.184 C 
BRANCH  15  16
HETATM   16  O   UNL     1     -38.481 -51.675  12.923  1.00  0.00    -0.399 OA
HETATM   17  H   UNL     1     -37.652 -52.177  13.009  1.00  0.00     0.209 HD
ENDBRANCH  15  16
ENDBRANCH  11  15
ENDBRANCH   3  10
TORSDOF 3
ENDMDL
MODEL 7
REMARK VINA RESULT:      -4.9      3.291      6.193
REMARK  3 active torsions:
REMARK  status: ('A' for Active; 'I' for Inactive)
REMARK    1  A    between atoms: N_1  and  C_4 
REMARK    2  A    between atoms: C_7  and  C_14 
REMARK    3  A    between atoms: O_12  and  C_14 
ROOT
HETATM    1  N   UNL     1     -41.116 -51.480  11.261  1.00  0.00    -0.290 N 
ATOM      2  HN  UNL     1     -40.386 -51.512  10.549  1.00  0.00     0.188 HD
HETATM    3  C   UNL     1     -41.448 -50.298  11.818  1.00  0.00     0.097 A 
HETATM    4  N   UNL     1     -41.753 -52.657  11.642  1.00  0.00    -0.304 N 
ATOM      5  HN  UNL     1     -41.468 -53.545  11.229  1.00  0.00     0.186 HD
HETATM    6  C   UNL     1     -42.487 -50.264  12.741  1.00  0.00     0.045 A 
HETATM    7  C   UNL     1     -42.743 -52.628  12.554  1.00  0.00     0.022 A 
HETATM    8  C   UNL     1     -43.142 -51.432  13.120  1.00  0.00     0.029 A 
HETATM    9  C   UNL     1     -43.385 -53.912  12.972  1.00  0.00     0.069 C 
ENDROOT
BRANCH   3  10
HETATM   10  N   UNL     1     -40.832 -49.097  11.470  1.00  0.00    -0.262 NA
HETATM   11  C   UNL     1     -39.739 -48.558  12.299  1.00  0.00     0.088 C 
HETATM   12  C   UNL     1     -39.654 -47.075  11.856  1.00  0.00     0.023 C 
HETATM   13  C   UNL     1     -40.779 -46.881  10.844  1.00  0.00     0.017 C 
HETATM   14  C   UNL     1     -41.749 -47.999  11.179  1.00  0.00     0.098 C 
BRANCH  11  15
HETATM   15  C   UNL     1     -38.417 -49.304  12.071  1.00  0.00     0.184 C 
BRANCH  15  16
HETATM   16  O   UNL     1     -38.368 -49.845  10.749  1.00  0.00    -0.399 OA
HETATM   17  H   UNL     1     -37.905 -50.698  10.816  1.00  0.00     0.209 HD
ENDBRANCH  15  16
ENDBRANCH  11  15
ENDBRANCH   3  10
TORSDOF 3
ENDMDL
MODEL 8
REMARK VINA RESULT:      -4.9      2.347      3.275
REMARK  3 active torsions:
REMARK  status: ('A' for Active; 'I' for Inactive)
REMARK    1  A    between atoms: N_1  and  C_4 
REMARK    2  A    between atoms: C_7  and  C_14 
REMARK    3  A    between atoms: O_12  and  C_14 
ROOT
HETATM    1  N   UNL     1     -40.831 -50.923  11.092  1.00  0.00    -0.290 N 
ATOM      2  HN  UNL     1     -40.234 -51.641  10.680  1.00  0.00     0.188 HD
HETATM    3  C   UNL     1     -41.639 -51.244  12.122  1.00  0.00     0.097 A 
HETATM    4  N   UNL     1     -40.798 -49.629  10.581  1.00  0.00    -0.304 N 
ATOM      5  HN  UNL     1     -40.200 -49.412   9.784  1.00  0.00     0.186 HD
HETATM    6  C   UNL     1     -42.401 -50.240  12.710  1.00  0.00     0.045 A 
HETATM    7  C   UNL     1     -41.553 -48.662  11.135  1.00  0.00     0.022 A 
HETATM    8  C   UNL     1     -42.365 -48.939  12.219  1.00  0.00     0.029 A 
HETATM    9  C   UNL     1     -41.526 -47.289  10.545  1.00  0.00     0.069 C 
ENDROOT
BRANCH   3  10
HETATM   10  N   UNL     1     -41.708 -52.529  12.659  1.00  0.00    -0.262 NA
HETATM   11  C   UNL     1     -42.952 -53.001  13.292  1.00  0.00     0.088 C 
HETATM   12  C   UNL     1     -42.486 -54.228  14.119  1.00  0.00     0.023 C 
HETATM   13  C   UNL     1     -40.974 -54.301  13.934  1.00  0.00     0.017 C 
HETATM   14  C   UNL     1     -40.599 -52.884  13.541  1.00  0.00     0.098 C 
BRANCH  11  15
HETATM   15  C   UNL     1     -44.023 -53.375  12.259  1.00  0.00     0.184 C 
BRANCH  15  16
HETATM   16  O   UNL     1     -44.847 -54.432  12.752  1.00  0.00    -0.399 OA
HETATM   17  H   UNL     1     -45.093 -54.188  13.662  1.00  0.00     0.209 HD
ENDBRANCH  15  16
ENDBRANCH  11  15
ENDBRANCH   3  10
TORSDOF 3
ENDMDL
MODEL 9
REMARK VINA RESULT:      -4.8      2.405      3.443
REMARK  3 active torsions:
REMARK  status: ('A' for Active; 'I' for Inactive)
REMARK    1  A    between atoms: N_1  and  C_4 
REMARK    2  A    between atoms: C_7  and  C_14 
REMARK    3  A    between atoms: O_12  and  C_14 
ROOT
HETATM    1  N   UNL     1     -40.883 -50.584  11.269  1.00  0.00    -0.290 N 
ATOM      2  HN  UNL     1     -41.690 -50.525  10.647  1.00  0.00     0.188 HD
HETATM    3  C   UNL     1     -41.040 -51.072  12.515  1.00  0.00     0.097 A 
HETATM    4  N   UNL     1     -39.637 -50.159  10.816  1.00  0.00    -0.304 N 
ATOM      5  HN  UNL     1     -39.544 -49.767   9.879  1.00  0.00     0.186 HD
HETATM    6  C   UNL     1     -39.918 -51.203  13.327  1.00  0.00     0.045 A 
HETATM    7  C   UNL     1     -38.555 -50.263  11.610  1.00  0.00     0.022 A 
HETATM    8  C   UNL     1     -38.665 -50.796  12.881  1.00  0.00     0.029 A 
HETATM    9  C   UNL     1     -37.236 -49.766  11.113  1.00  0.00     0.069 C 
ENDROOT
BRANCH   3  10
HETATM   10  N   UNL     1     -42.270 -51.503  13.010  1.00  0.00    -0.262 NA
HETATM   11  C   UNL     1     -42.864 -52.761  12.525  1.00  0.00     0.088 C 
HETATM   12  C   UNL     1     -44.350 -52.642  12.953  1.00  0.00     0.023 C 
HETATM   13  C   UNL     1     -44.486 -51.264  13.594  1.00  0.00     0.017 C 
HETATM   14  C   UNL     1     -43.321 -50.488  13.008  1.00  0.00     0.098 C 
BRANCH  11  15
HETATM   15  C   UNL     1     -42.186 -53.995  13.135  1.00  0.00     0.184 C 
BRANCH  15  16
HETATM   16  O   UNL     1     -41.125 -54.451  12.294  1.00  0.00    -0.399 OA
HETATM   17  H   UNL     1     -40.547 -55.001  12.851  1.00  0.00     0.209 HD
ENDBRANCH  15  16
ENDBRANCH  11  15
ENDBRANCH   3  10
TORSDOF 3
ENDMDL
