MODEL 1
REMARK VINA RESULT:      -6.2      0.000      0.000
REMARK  3 active torsions:
REMARK  status: ('A' for Active; 'I' for Inactive)
REMARK    1  A    between atoms: C_2  and  N_3 
REMARK    2  A    between atoms: C_2  and  C_15 
REMARK       I    between atoms: N_3  and  C_4 
REMARK       I    between atoms: C_4  and  N_6 
REMARK    3  A    between atoms: N_6  and  C_7 
ROOT
HETATM    1  N   UNL     1     -45.031 -52.630  12.553  1.00  0.00    -0.336 N 
HETATM    2  C   UNL     1     -44.492 -53.859  12.755  1.00  0.00     0.322 C 
HETATM    3  O   UNL     1     -45.164 -54.861  12.998  1.00  0.00    -0.247 OA
HETATM    4  N   UNL     1     -43.127 -53.949  12.703  1.00  0.00    -0.288 N 
HETATM    5  H   UNL     1     -44.386 -51.845  12.562  1.00  0.00     0.164 HD
HETATM    6  H   UNL     1     -42.721 -54.840  12.945  1.00  0.00     0.172 HD
ENDROOT
BRANCH   1   7
HETATM    7  C   UNL     1     -46.438 -52.282  12.720  1.00  0.00     0.111 C 
HETATM    8  C   UNL     1     -46.851 -51.471  11.487  1.00  0.00     0.035 C 
BRANCH   7   9
HETATM    9  C   UNL     1     -46.676 -51.525  14.048  1.00  0.00     0.143 C 
HETATM   10  C   UNL     1     -45.413 -50.967  14.697  1.00  0.00     0.036 C 
HETATM   11  C   UNL     1     -45.648 -51.110  16.189  1.00  0.00     0.029 C 
HETATM   12  C   UNL     1     -47.026 -51.722  16.306  1.00  0.00     0.168 C 
HETATM   13  O   UNL     1     -47.270 -52.370  15.054  1.00  0.00    -0.384 OA
ENDBRANCH   7   9
ENDBRANCH   1   7
BRANCH   4  14
HETATM   14  C   UNL     1     -42.301 -52.891  12.437  1.00  0.00     0.169 A 
HETATM   15  N   UNL     1     -41.878 -52.472  11.269  1.00  0.00    -0.279 N 
HETATM   16  N   UNL     1     -41.152 -51.310  11.362  1.00  0.00    -0.296 N 
ATOM     17  HN  UNL     1     -42.066 -52.954  10.390  1.00  0.00     0.189 HD
HETATM   18  C   UNL     1     -41.069 -50.890  12.606  1.00  0.00     0.066 A 
ATOM     19  HN  UNL     1     -40.730 -50.833  10.566  1.00  0.00     0.187 HD
HETATM   20  C   UNL     1     -40.445 -49.603  13.005  1.00  0.00     0.078 C 
HETATM   21  S   UNL     1     -41.802 -51.942  13.762  1.00  0.00    -0.038 SA
ENDBRANCH   4  14
TORSDOF 3
ENDMDL
MODEL 2
REMARK VINA RESULT:      -5.9      2.185      2.747
REMARK  3 active torsions:
REMARK  status: ('A' for Active; 'I' for Inactive)
REMARK    1  A    between atoms: C_2  and  N_3 
REMARK    2  A    between atoms: C_2  and  C_15 
REMARK       I    between atoms: N_3  and  C_4 
REMARK       I    between atoms: C_4  and  N_6 
REMARK    3  A    between atoms: N_6  and  C_7 
ROOT
HETATM    1  N   UNL     1     -43.533 -54.545  14.540  1.00  0.00    -0.336 N 
HETATM    2  C   UNL     1     -42.478 -55.102  15.187  1.00  0.00     0.322 C 
HETATM    3  O   UNL     1     -42.598 -55.855  16.153  1.00  0.00    -0.247 OA
HETATM    4  N   UNL     1     -41.231 -54.769  14.732  1.00  0.00    -0.288 N 
HETATM    5  H   UNL     1     -43.322 -53.789  13.895  1.00  0.00     0.164 HD
HETATM    6  H   UNL     1     -40.447 -55.107  15.269  1.00  0.00     0.172 HD
ENDROOT
BRANCH   1   7
HETATM    7  C   UNL     1     -44.929 -54.637  14.955  1.00  0.00     0.111 C 
HETATM    8  C   UNL     1     -45.701 -55.282  13.799  1.00  0.00     0.035 C 
BRANCH   7   9
HETATM    9  C   UNL     1     -45.489 -53.251  15.357  1.00  0.00     0.143 C 
HETATM   10  C   UNL     1     -46.807 -52.880  14.686  1.00  0.00     0.036 C 
HETATM   11  C   UNL     1     -46.717 -51.383  14.455  1.00  0.00     0.029 C 
HETATM   12  C   UNL     1     -45.370 -50.987  15.015  1.00  0.00     0.168 C 
HETATM   13  O   UNL     1     -44.583 -52.183  15.016  1.00  0.00    -0.384 OA
ENDBRANCH   7   9
ENDBRANCH   1   7
BRANCH   4  14
HETATM   14  C   UNL     1     -41.002 -53.943  13.666  1.00  0.00     0.169 A 
HETATM   15  N   UNL     1     -40.968 -54.258  12.393  1.00  0.00    -0.279 N 
HETATM   16  N   UNL     1     -40.826 -53.158  11.586  1.00  0.00    -0.296 N 
ATOM     17  HN  UNL     1     -41.039 -55.214  12.043  1.00  0.00     0.189 HD
HETATM   18  C   UNL     1     -40.772 -52.046  12.288  1.00  0.00     0.066 A 
ATOM     19  HN  UNL     1     -40.769 -53.197  10.568  1.00  0.00     0.187 HD
HETATM   20  C   UNL     1     -40.734 -50.689  11.686  1.00  0.00     0.078 C 
HETATM   21  S   UNL     1     -40.803 -52.282  13.997  1.00  0.00    -0.038 SA
ENDBRANCH   4  14
TORSDOF 3
ENDMDL
MODEL 3
REMARK VINA RESULT:      -5.8      4.637      6.615
REMARK  3 active torsions:
REMARK  status: ('A' for Active; 'I' for Inactive)
REMARK    1  A    between atoms: C_2  and  N_3 
REMARK    2  A    between atoms: C_2  and  C_15 
REMARK       I    between atoms: N_3  and  C_4 
REMARK       I    between atoms: C_4  and  N_6 
REMARK    3  A    between atoms: N_6  and  C_7 
ROOT
HETATM    1  N   UNL     1     -39.419 -50.324  11.722  1.00  0.00    -0.336 N 
HETATM    2  C   UNL     1     -40.670 -50.009  11.298  1.00  0.00     0.322 C 
HETATM    3  O   UNL     1     -40.955 -48.934  10.772  1.00  0.00    -0.247 OA
HETATM    4  N   UNL     1     -41.644 -50.947  11.505  1.00  0.00    -0.288 N 
HETATM    5  H   UNL     1     -39.335 -51.142  12.319  1.00  0.00     0.164 HD
HETATM    6  H   UNL     1     -42.589 -50.678  11.277  1.00  0.00     0.172 HD
ENDROOT
BRANCH   1   7
HETATM    7  C   UNL     1     -38.276 -49.417  11.745  1.00  0.00     0.111 C 
HETATM    8  C   UNL     1     -37.168 -50.068  10.911  1.00  0.00     0.035 C 
BRANCH   7   9
HETATM    9  C   UNL     1     -37.837 -49.103  13.195  1.00  0.00     0.143 C 
HETATM   10  C   UNL     1     -37.485 -50.329  14.032  1.00  0.00     0.036 C 
HETATM   11  C   UNL     1     -37.958 -49.992  15.434  1.00  0.00     0.029 C 
HETATM   12  C   UNL     1     -38.535 -48.599  15.321  1.00  0.00     0.168 C 
HETATM   13  O   UNL     1     -38.870 -48.429  13.940  1.00  0.00    -0.384 OA
ENDBRANCH   7   9
ENDBRANCH   1   7
BRANCH   4  14
HETATM   14  C   UNL     1     -41.420 -52.169  12.079  1.00  0.00     0.169 A 
HETATM   15  N   UNL     1     -40.972 -53.260  11.506  1.00  0.00    -0.279 N 
HETATM   16  N   UNL     1     -40.759 -54.274  12.407  1.00  0.00    -0.296 N 
ATOM     17  HN  UNL     1     -40.802 -53.347  10.504  1.00  0.00     0.189 HD
HETATM   18  C   UNL     1     -41.043 -53.897  13.635  1.00  0.00     0.066 A 
ATOM     19  HN  UNL     1     -40.421 -55.202  12.155  1.00  0.00     0.187 HD
HETATM   20  C   UNL     1     -40.804 -54.739  14.835  1.00  0.00     0.078 C 
HETATM   21  S   UNL     1     -41.679 -52.298  13.760  1.00  0.00    -0.038 SA
ENDBRANCH   4  14
TORSDOF 3
ENDMDL
MODEL 4
REMARK VINA RESULT:      -5.7      5.923      7.698
REMARK  3 active torsions:
REMARK  status: ('A' for Active; 'I' for Inactive)
REMARK    1  A    between atoms: C_2  and  N_3 
REMARK    2  A    between atoms: C_2  and  C_15 
REMARK       I    between atoms: N_3  and  C_4 
REMARK       I    between atoms: C_4  and  N_6 
REMARK    3  A    between atoms: N_6  and  C_7 
ROOT
HETATM    1  N   UNL     1     -40.879 -46.564  10.403  1.00  0.00    -0.336 N 
HETATM    2  C   UNL     1     -42.046 -47.243  10.264  1.00  0.00     0.322 C 
HETATM    3  O   UNL     1     -43.093 -46.716   9.889  1.00  0.00    -0.247 OA
HETATM    4  N   UNL     1     -42.028 -48.572  10.590  1.00  0.00    -0.288 N 
HETATM    5  H   UNL     1     -40.135 -47.040  10.907  1.00  0.00     0.164 HD
HETATM    6  H   UNL     1     -42.914 -49.054  10.577  1.00  0.00     0.172 HD
ENDROOT
BRANCH   1   7
HETATM    7  C   UNL     1     -40.713 -45.121  10.265  1.00  0.00     0.111 C 
HETATM    8  C   UNL     1     -39.324 -44.883   9.662  1.00  0.00     0.035 C 
BRANCH   7   9
HETATM    9  C   UNL     1     -40.915 -44.400  11.619  1.00  0.00     0.143 C 
HETATM   10  C   UNL     1     -40.541 -42.922  11.614  1.00  0.00     0.036 C 
HETATM   11  C   UNL     1     -39.956 -42.664  12.990  1.00  0.00     0.029 C 
HETATM   12  C   UNL     1     -40.043 -43.996  13.701  1.00  0.00     0.168 C 
HETATM   13  O   UNL     1     -40.116 -44.983  12.668  1.00  0.00    -0.384 OA
ENDBRANCH   7   9
ENDBRANCH   1   7
BRANCH   4  14
HETATM   14  C   UNL     1     -40.912 -49.241  11.013  1.00  0.00     0.169 A 
HETATM   15  N   UNL     1     -40.079 -49.955  10.295  1.00  0.00    -0.279 N 
HETATM   16  N   UNL     1     -39.002 -50.391  11.025  1.00  0.00    -0.296 N 
ATOM     17  HN  UNL     1     -40.216 -50.164   9.306  1.00  0.00     0.189 HD
HETATM   18  C   UNL     1     -39.059 -49.972  12.270  1.00  0.00     0.066 A 
ATOM     19  HN  UNL     1     -38.250 -50.968  10.648  1.00  0.00     0.187 HD
HETATM   20  C   UNL     1     -37.980 -50.188  13.267  1.00  0.00     0.078 C 
HETATM   21  S   UNL     1     -40.489 -49.086  12.657  1.00  0.00    -0.038 SA
ENDBRANCH   4  14
TORSDOF 3
ENDMDL
MODEL 5
REMARK VINA RESULT:      -5.7      3.052      4.732
REMARK  3 active torsions:
REMARK  status: ('A' for Active; 'I' for Inactive)
REMARK    1  A    between atoms: C_2  and  N_3 
REMARK    2  A    between atoms: C_2  and  C_15 
REMARK       I    between atoms: N_3  and  C_4 
REMARK       I    between atoms: C_4  and  N_6 
REMARK    3  A    between atoms: N_6  and  C_7 
ROOT
HETATM    1  N   UNL     1     -40.713 -51.865  12.812  1.00  0.00    -0.336 N 
HETATM    2  C   UNL     1     -39.421 -51.452  12.854  1.00  0.00     0.322 C 
HETATM    3  O   UNL     1     -38.536 -52.059  13.456  1.00  0.00    -0.247 OA
HETATM    4  N   UNL     1     -39.126 -50.284  12.205  1.00  0.00    -0.288 N 
HETATM    5  H   UNL     1     -41.392 -51.193  12.465  1.00  0.00     0.164 HD
HETATM    6  H   UNL     1     -38.188 -49.928  12.314  1.00  0.00     0.172 HD
ENDROOT
BRANCH   1   7
HETATM    7  C   UNL     1     -41.272 -52.985  13.561  1.00  0.00     0.111 C 
HETATM    8  C   UNL     1     -40.773 -54.270  12.891  1.00  0.00     0.035 C 
BRANCH   7   9
HETATM    9  C   UNL     1     -42.816 -52.901  13.630  1.00  0.00     0.143 C 
HETATM   10  C   UNL     1     -43.492 -54.126  14.236  1.00  0.00     0.036 C 
HETATM   11  C   UNL     1     -44.786 -54.280  13.459  1.00  0.00     0.029 C 
HETATM   12  C   UNL     1     -44.781 -53.135  12.471  1.00  0.00     0.168 C 
HETATM   13  O   UNL     1     -43.409 -52.756  12.324  1.00  0.00    -0.384 OA
ENDBRANCH   7   9
ENDBRANCH   1   7
BRANCH   4  14
HETATM   14  C   UNL     1     -40.043 -49.544  11.509  1.00  0.00     0.169 A 
HETATM   15  N   UNL     1     -40.442 -49.710  10.270  1.00  0.00    -0.279 N 
HETATM   16  N   UNL     1     -41.459 -48.855   9.930  1.00  0.00    -0.296 N 
ATOM     17  HN  UNL     1     -40.040 -50.397   9.632  1.00  0.00     0.189 HD
HETATM   18  C   UNL     1     -41.799 -48.081  10.939  1.00  0.00     0.066 A 
ATOM     19  HN  UNL     1     -41.898 -48.823   9.010  1.00  0.00     0.187 HD
HETATM   20  C   UNL     1     -42.943 -47.135  10.907  1.00  0.00     0.078 C 
HETATM   21  S   UNL     1     -40.831 -48.289  12.352  1.00  0.00    -0.038 SA
ENDBRANCH   4  14
TORSDOF 3
ENDMDL
MODEL 6
REMARK VINA RESULT:      -5.6      3.500      4.459
REMARK  3 active torsions:
REMARK  status: ('A' for Active; 'I' for Inactive)
REMARK    1  A    between atoms: C_2  and  N_3 
REMARK    2  A    between atoms: C_2  and  C_15 
REMARK       I    between atoms: N_3  and  C_4 
REMARK       I    between atoms: C_4  and  N_6 
REMARK    3  A    between atoms: N_6  and  C_7 
ROOT
HETATM    1  N   UNL     1     -42.539 -50.273  12.346  1.00  0.00    -0.336 N 
HETATM    2  C   UNL     1     -41.337 -49.686  12.575  1.00  0.00     0.322 C 
HETATM    3  O   UNL     1     -40.575 -50.034  13.476  1.00  0.00    -0.247 OA
HETATM    4  N   UNL     1     -40.997 -48.641  11.760  1.00  0.00    -0.288 N 
HETATM    5  H   UNL     1     -43.170 -49.783  11.718  1.00  0.00     0.164 HD
HETATM    6  H   UNL     1     -40.148 -48.145  11.987  1.00  0.00     0.172 HD
ENDROOT
BRANCH   1   7
HETATM    7  C   UNL     1     -43.163 -51.288  13.188  1.00  0.00     0.111 C 
HETATM    8  C   UNL     1     -43.077 -52.617  12.430  1.00  0.00     0.035 C 
BRANCH   7   9
HETATM    9  C   UNL     1     -44.613 -50.897  13.560  1.00  0.00     0.143 C 
HETATM   10  C   UNL     1     -44.942 -51.014  15.045  1.00  0.00     0.036 C 
HETATM   11  C   UNL     1     -46.386 -51.476  15.088  1.00  0.00     0.029 C 
HETATM   12  C   UNL     1     -46.800 -51.581  13.638  1.00  0.00     0.168 C 
HETATM   13  O   UNL     1     -45.585 -51.730  12.897  1.00  0.00    -0.384 OA
ENDBRANCH   7   9
ENDBRANCH   1   7
BRANCH   4  14
HETATM   14  C   UNL     1     -41.779 -48.187  10.733  1.00  0.00     0.169 A 
HETATM   15  N   UNL     1     -41.727 -48.528   9.467  1.00  0.00    -0.279 N 
HETATM   16  N   UNL     1     -42.738 -47.961   8.732  1.00  0.00    -0.296 N 
ATOM     17  HN  UNL     1     -41.017 -49.145   9.074  1.00  0.00     0.189 HD
HETATM   18  C   UNL     1     -43.525 -47.220   9.482  1.00  0.00     0.066 A 
ATOM     19  HN  UNL     1     -42.863 -48.097   7.729  1.00  0.00     0.187 HD
HETATM   20  C   UNL     1     -44.768 -46.573   8.989  1.00  0.00     0.078 C 
HETATM   21  S   UNL     1     -43.027 -47.096  11.129  1.00  0.00    -0.038 SA
ENDBRANCH   4  14
TORSDOF 3
ENDMDL
MODEL 7
REMARK VINA RESULT:      -5.5      2.788      5.798
REMARK  3 active torsions:
REMARK  status: ('A' for Active; 'I' for Inactive)
REMARK    1  A    between atoms: C_2  and  N_3 
REMARK    2  A    between atoms: C_2  and  C_15 
REMARK       I    between atoms: N_3  and  C_4 
REMARK       I    between atoms: C_4  and  N_6 
REMARK    3  A    between atoms: N_6  and  C_7 
ROOT
HETATM    1  N   UNL     1     -40.688 -51.868  12.844  1.00  0.00    -0.336 N 
HETATM    2  C   UNL     1     -40.665 -53.192  13.138  1.00  0.00     0.322 C 
HETATM    3  O   UNL     1     -39.626 -53.830  13.309  1.00  0.00    -0.247 OA
HETATM    4  N   UNL     1     -41.875 -53.826  13.216  1.00  0.00    -0.288 N 
HETATM    5  H   UNL     1     -41.575 -51.489  12.526  1.00  0.00     0.164 HD
HETATM    6  H   UNL     1     -41.857 -54.827  13.341  1.00  0.00     0.172 HD
ENDROOT
BRANCH   1   7
HETATM    7  C   UNL     1     -39.520 -51.041  12.560  1.00  0.00     0.111 C 
HETATM    8  C   UNL     1     -39.015 -50.496  13.900  1.00  0.00     0.035 C 
BRANCH   7   9
HETATM    9  C   UNL     1     -39.856 -49.924  11.542  1.00  0.00     0.143 C 
HETATM   10  C   UNL     1     -39.282 -48.554  11.889  1.00  0.00     0.036 C 
HETATM   11  C   UNL     1     -40.334 -47.564  11.427  1.00  0.00     0.029 C 
HETATM   12  C   UNL     1     -41.433 -48.417  10.835  1.00  0.00     0.168 C 
HETATM   13  O   UNL     1     -41.277 -49.713  11.422  1.00  0.00    -0.384 OA
ENDBRANCH   7   9
ENDBRANCH   1   7
BRANCH   4  14
HETATM   14  C   UNL     1     -43.079 -53.200  13.043  1.00  0.00     0.169 A 
HETATM   15  N   UNL     1     -43.794 -53.113  11.947  1.00  0.00    -0.279 N 
HETATM   16  N   UNL     1     -45.007 -52.508  12.160  1.00  0.00    -0.296 N 
ATOM     17  HN  UNL     1     -43.483 -53.455  11.038  1.00  0.00     0.189 HD
HETATM   18  C   UNL     1     -45.166 -52.173  13.423  1.00  0.00     0.066 A 
ATOM     19  HN  UNL     1     -45.700 -52.339  11.431  1.00  0.00     0.187 HD
HETATM   20  C   UNL     1     -46.421 -51.606  13.978  1.00  0.00     0.078 C 
HETATM   21  S   UNL     1     -43.796 -52.498  14.422  1.00  0.00    -0.038 SA
ENDBRANCH   4  14
TORSDOF 3
ENDMDL
MODEL 8
REMARK VINA RESULT:      -5.4      3.704      5.669
REMARK  3 active torsions:
REMARK  status: ('A' for Active; 'I' for Inactive)
REMARK    1  A    between atoms: C_2  and  N_3 
REMARK    2  A    between atoms: C_2  and  C_15 
REMARK       I    between atoms: N_3  and  C_4 
REMARK       I    between atoms: C_4  and  N_6 
REMARK    3  A    between atoms: N_6  and  C_7 
ROOT
HETATM    1  N   UNL     1     -40.802 -50.455  12.983  1.00  0.00    -0.336 N 
HETATM    2  C   UNL     1     -39.953 -51.391  12.491  1.00  0.00     0.322 C 
HETATM    3  O   UNL     1     -38.755 -51.184  12.300  1.00  0.00    -0.247 OA
HETATM    4  N   UNL     1     -40.493 -52.609  12.177  1.00  0.00    -0.288 N 
HETATM    5  H   UNL     1     -41.795 -50.660  12.910  1.00  0.00     0.164 HD
HETATM    6  H   UNL     1     -39.884 -53.273  11.724  1.00  0.00     0.172 HD
ENDROOT
BRANCH   1   7
HETATM    7  C   UNL     1     -40.473 -49.055  13.231  1.00  0.00     0.111 C 
HETATM    8  C   UNL     1     -40.827 -48.761  14.693  1.00  0.00     0.035 C 
BRANCH   7   9
HETATM    9  C   UNL     1     -41.199 -48.121  12.234  1.00  0.00     0.143 C 
HETATM   10  C   UNL     1     -42.681 -47.908  12.527  1.00  0.00     0.036 C 
HETATM   11  C   UNL     1     -43.336 -47.808  11.162  1.00  0.00     0.029 C 
HETATM   12  C   UNL     1     -42.199 -47.954  10.177  1.00  0.00     0.168 C 
HETATM   13  O   UNL     1     -41.156 -48.630  10.886  1.00  0.00    -0.384 OA
ENDBRANCH   7   9
ENDBRANCH   1   7
BRANCH   4  14
HETATM   14  C   UNL     1     -41.811 -52.929  12.357  1.00  0.00     0.169 A 
HETATM   15  N   UNL     1     -42.823 -52.656  11.568  1.00  0.00    -0.279 N 
HETATM   16  N   UNL     1     -43.993 -53.229  12.001  1.00  0.00    -0.296 N 
ATOM     17  HN  UNL     1     -42.750 -52.082  10.728  1.00  0.00     0.189 HD
HETATM   18  C   UNL     1     -43.811 -53.929  13.101  1.00  0.00     0.066 A 
ATOM     19  HN  UNL     1     -44.891 -53.125  11.530  1.00  0.00     0.187 HD
HETATM   20  C   UNL     1     -44.866 -54.755  13.740  1.00  0.00     0.078 C 
HETATM   21  S   UNL     1     -42.205 -53.859  13.730  1.00  0.00    -0.038 SA
ENDBRANCH   4  14
TORSDOF 3
ENDMDL
MODEL 9
REMARK VINA RESULT:      -5.3      7.050      9.054
REMARK  3 active torsions:
REMARK  status: ('A' for Active; 'I' for Inactive)
REMARK    1  A    between atoms: C_2  and  N_3 
REMARK    2  A    between atoms: C_2  and  C_15 
REMARK       I    between atoms: N_3  and  C_4 
REMARK       I    between atoms: C_4  and  N_6 
REMARK    3  A    between atoms: N_6  and  C_7 
ROOT
HETATM    1  N   UNL     1     -42.006 -45.315  11.687  1.00  0.00    -0.336 N 
HETATM    2  C   UNL     1     -41.102 -45.822  10.811  1.00  0.00     0.322 C 
HETATM    3  O   UNL     1     -39.914 -45.500  10.804  1.00  0.00    -0.247 OA
HETATM    4  N   UNL     1     -41.573 -46.714   9.886  1.00  0.00    -0.288 N 
HETATM    5  H   UNL     1     -42.986 -45.489  11.479  1.00  0.00     0.164 HD
HETATM    6  H   UNL     1     -40.923 -47.019   9.177  1.00  0.00     0.172 HD
ENDROOT
BRANCH   1   7
HETATM    7  C   UNL     1     -41.755 -44.242  12.643  1.00  0.00     0.111 C 
HETATM    8  C   UNL     1     -42.773 -44.400  13.777  1.00  0.00     0.035 C 
BRANCH   7   9
HETATM    9  C   UNL     1     -41.819 -42.855  11.961  1.00  0.00     0.143 C 
HETATM   10  C   UNL     1     -40.485 -42.120  11.886  1.00  0.00     0.036 C 
HETATM   11  C   UNL     1     -40.836 -40.656  12.068  1.00  0.00     0.029 C 
HETATM   12  C   UNL     1     -42.340 -40.637  12.221  1.00  0.00     0.168 C 
HETATM   13  O   UNL     1     -42.703 -41.952  12.655  1.00  0.00    -0.384 OA
ENDBRANCH   7   9
ENDBRANCH   1   7
BRANCH   4  14
HETATM   14  C   UNL     1     -42.875 -47.131   9.820  1.00  0.00     0.169 A 
HETATM   15  N   UNL     1     -43.452 -48.087  10.508  1.00  0.00    -0.279 N 
HETATM   16  N   UNL     1     -44.801 -48.160  10.270  1.00  0.00    -0.296 N 
ATOM     17  HN  UNL     1     -42.953 -48.707  11.147  1.00  0.00     0.189 HD
HETATM   18  C   UNL     1     -45.193 -47.239   9.417  1.00  0.00     0.066 A 
ATOM     19  HN  UNL     1     -45.423 -48.844  10.701  1.00  0.00     0.187 HD
HETATM   20  C   UNL     1     -46.612 -46.998   9.052  1.00  0.00     0.078 C 
HETATM   21  S   UNL     1     -43.914 -46.273   8.777  1.00  0.00    -0.038 SA
ENDBRANCH   4  14
TORSDOF 3
ENDMDL
