MODEL 1
REMARK VINA RESULT:      -6.4      0.000      0.000
REMARK  4 active torsions:
REMARK  status: ('A' for Active; 'I' for Inactive)
REMARK    1  A    between atoms: C_2  and  N_3 
REMARK    2  A    between atoms: C_5  and  N_6 
REMARK       I    between atoms: N_6  and  C_7 
REMARK       I    between atoms: C_7  and  N_9 
REMARK    3  A    between atoms: N_9  and  C_10 
REMARK    4  A    between atoms: N_12  and  C_13 
ROOT
HETATM    1  N   UNL     1     -41.741 -47.303   9.852  1.00  0.00    -0.306 N 
HETATM    2  C   UNL     1     -41.453 -48.225  10.833  1.00  0.00     0.321 C 
HETATM    3  O   UNL     1     -42.260 -48.802  11.550  1.00  0.00    -0.247 OA
HETATM    4  N   UNL     1     -40.093 -48.419  10.989  1.00  0.00    -0.336 N 
HETATM    5  H   UNL     1     -40.980 -46.839   9.380  1.00  0.00     0.171 HD
HETATM    6  H   UNL     1     -39.531 -48.302  10.157  1.00  0.00     0.164 HD
ENDROOT
BRANCH   1   7
HETATM    7  C   UNL     1     -43.021 -46.864   9.556  1.00  0.00     0.070 A 
HETATM    8  C   UNL     1     -44.172 -47.610   9.468  1.00  0.00     0.141 A 
HETATM    9  N   UNL     1     -45.184 -46.740   9.194  1.00  0.00    -0.302 N 
HETATM   10  N   UNL     1     -44.769 -45.466   9.064  1.00  0.00    -0.308 N 
HETATM   11  C   UNL     1     -43.452 -45.545   9.284  1.00  0.00     0.138 A 
ATOM     12  HN  UNL     1     -45.325 -44.638   8.850  1.00  0.00     0.186 HD
BRANCH   9  13
HETATM   13  C   UNL     1     -46.586 -47.082   9.057  1.00  0.00     0.143 C 
HETATM   14  C   UNL     1     -46.785 -48.555   8.751  1.00  0.00     0.028 C 
ENDBRANCH   9  13
ENDBRANCH   1   7
BRANCH   4  15
HETATM   15  C   UNL     1     -39.638 -49.388  11.985  1.00  0.00     0.112 C 
HETATM   16  C   UNL     1     -39.196 -48.753  13.307  1.00  0.00     0.152 C 
HETATM   17  N   UNL     1     -38.175 -49.635  13.812  1.00  0.00    -0.345 N 
HETATM   18  C   UNL     1     -37.658 -50.447  12.807  1.00  0.00     0.222 C 
HETATM   19  O   UNL     1     -36.704 -51.207  12.888  1.00  0.00    -0.273 OA
HETATM   20  C   UNL     1     -38.411 -50.170  11.531  1.00  0.00     0.129 C 
BRANCH  17  21
HETATM   21  C   UNL     1     -37.448 -49.284  14.993  1.00  0.00     0.087 A 
HETATM   22  C   UNL     1     -37.957 -48.277  15.987  1.00  0.00     0.027 A 
HETATM   23  C   UNL     1     -36.784 -47.938  15.118  1.00  0.00     0.027 A 
ENDBRANCH  17  21
ENDBRANCH   4  15
TORSDOF 4
ENDMDL
MODEL 2
REMARK VINA RESULT:      -5.9      4.994      6.121
REMARK  4 active torsions:
REMARK  status: ('A' for Active; 'I' for Inactive)
REMARK    1  A    between atoms: C_2  and  N_3 
REMARK    2  A    between atoms: C_5  and  N_6 
REMARK       I    between atoms: N_6  and  C_7 
REMARK       I    between atoms: C_7  and  N_9 
REMARK    3  A    between atoms: N_9  and  C_10 
REMARK    4  A    between atoms: N_12  and  C_13 
ROOT
HETATM    1  N   UNL     1     -41.731 -49.944  11.333  1.00  0.00    -0.306 N 
HETATM    2  C   UNL     1     -42.650 -50.373  12.264  1.00  0.00     0.321 C 
HETATM    3  O   UNL     1     -43.411 -49.667  12.914  1.00  0.00    -0.247 OA
HETATM    4  N   UNL     1     -42.606 -51.741  12.456  1.00  0.00    -0.336 N 
HETATM    5  H   UNL     1     -41.107 -50.619  10.918  1.00  0.00     0.171 HD
HETATM    6  H   UNL     1     -42.334 -52.292  11.654  1.00  0.00     0.164 HD
ENDROOT
BRANCH   1   7
HETATM    7  C   UNL     1     -41.511 -48.613  11.019  1.00  0.00     0.070 A 
HETATM    8  C   UNL     1     -40.569 -47.764  11.548  1.00  0.00     0.141 A 
HETATM    9  N   UNL     1     -40.709 -46.571  10.904  1.00  0.00    -0.302 N 
HETATM   10  N   UNL     1     -41.707 -46.569  10.001  1.00  0.00    -0.308 N 
HETATM   11  C   UNL     1     -42.195 -47.813  10.075  1.00  0.00     0.138 A 
ATOM     12  HN  UNL     1     -42.017 -45.803   9.404  1.00  0.00     0.186 HD
BRANCH   9  13
HETATM   13  C   UNL     1     -39.891 -45.392  11.112  1.00  0.00     0.143 C 
HETATM   14  C   UNL     1     -39.329 -44.853   9.809  1.00  0.00     0.028 C 
ENDBRANCH   9  13
ENDBRANCH   1   7
BRANCH   4  15
HETATM   15  C   UNL     1     -43.543 -52.341  13.405  1.00  0.00     0.112 C 
HETATM   16  C   UNL     1     -42.892 -52.786  14.717  1.00  0.00     0.152 C 
HETATM   17  N   UNL     1     -43.675 -53.914  15.150  1.00  0.00    -0.345 N 
HETATM   18  C   UNL     1     -44.413 -54.456  14.102  1.00  0.00     0.222 C 
HETATM   19  O   UNL     1     -45.075 -55.484  14.118  1.00  0.00    -0.273 OA
HETATM   20  C   UNL     1     -44.189 -53.615  12.872  1.00  0.00     0.129 C 
BRANCH  17  21
HETATM   21  C   UNL     1     -43.276 -54.662  16.302  1.00  0.00     0.087 A 
HETATM   22  C   UNL     1     -41.940 -54.473  16.967  1.00  0.00     0.027 A 
HETATM   23  C   UNL     1     -42.219 -55.730  16.198  1.00  0.00     0.027 A 
ENDBRANCH  17  21
ENDBRANCH   4  15
TORSDOF 4
ENDMDL
MODEL 3
REMARK VINA RESULT:      -5.9      1.813      8.398
REMARK  4 active torsions:
REMARK  status: ('A' for Active; 'I' for Inactive)
REMARK    1  A    between atoms: C_2  and  N_3 
REMARK    2  A    between atoms: C_5  and  N_6 
REMARK       I    between atoms: N_6  and  C_7 
REMARK       I    between atoms: C_7  and  N_9 
REMARK    3  A    between atoms: N_9  and  C_10 
REMARK    4  A    between atoms: N_12  and  C_13 
ROOT
HETATM    1  N   UNL     1     -38.899 -48.472  12.188  1.00  0.00    -0.306 N 
HETATM    2  C   UNL     1     -40.170 -47.952  12.278  1.00  0.00     0.321 C 
HETATM    3  O   UNL     1     -40.859 -47.886  13.288  1.00  0.00    -0.247 OA
HETATM    4  N   UNL     1     -40.655 -47.534  11.053  1.00  0.00    -0.336 N 
HETATM    5  H   UNL     1     -38.462 -48.540  11.281  1.00  0.00     0.171 HD
HETATM    6  H   UNL     1     -39.965 -47.198  10.396  1.00  0.00     0.164 HD
ENDROOT
BRANCH   1   7
HETATM    7  C   UNL     1     -38.218 -49.040  13.253  1.00  0.00     0.070 A 
HETATM    8  C   UNL     1     -37.466 -48.405  14.212  1.00  0.00     0.141 A 
HETATM    9  N   UNL     1     -37.029 -49.368  15.070  1.00  0.00    -0.302 N 
HETATM   10  N   UNL     1     -37.419 -50.608  14.721  1.00  0.00    -0.308 N 
HETATM   11  C   UNL     1     -38.142 -50.405  13.613  1.00  0.00     0.138 A 
ATOM     12  HN  UNL     1     -37.214 -51.490  15.189  1.00  0.00     0.186 HD
BRANCH   9  13
HETATM   13  C   UNL     1     -36.234 -49.147  16.263  1.00  0.00     0.143 C 
HETATM   14  C   UNL     1     -36.460 -47.765  16.849  1.00  0.00     0.028 C 
ENDBRANCH   9  13
ENDBRANCH   1   7
BRANCH   4  15
HETATM   15  C   UNL     1     -41.990 -46.940  11.000  1.00  0.00     0.112 C 
HETATM   16  C   UNL     1     -43.024 -47.810  10.280  1.00  0.00     0.152 C 
HETATM   17  N   UNL     1     -43.948 -46.872   9.696  1.00  0.00    -0.345 N 
HETATM   18  C   UNL     1     -43.394 -45.599   9.604  1.00  0.00     0.222 C 
HETATM   19  O   UNL     1     -43.874 -44.621   9.048  1.00  0.00    -0.273 OA
HETATM   20  C   UNL     1     -42.021 -45.627  10.226  1.00  0.00     0.129 C 
BRANCH  17  21
HETATM   21  C   UNL     1     -44.996 -47.339   8.842  1.00  0.00     0.087 A 
HETATM   22  C   UNL     1     -46.407 -46.830   8.939  1.00  0.00     0.027 A 
HETATM   23  C   UNL     1     -46.088 -48.227   9.377  1.00  0.00     0.027 A 
ENDBRANCH  17  21
ENDBRANCH   4  15
TORSDOF 4
ENDMDL
MODEL 4
REMARK VINA RESULT:      -5.8      4.796      6.700
REMARK  4 active torsions:
REMARK  status: ('A' for Active; 'I' for Inactive)
REMARK    1  A    between atoms: C_2  and  N_3 
REMARK    2  A    between atoms: C_5  and  N_6 
REMARK       I    between atoms: N_6  and  C_7 
REMARK       I    between atoms: C_7  and  N_9 
REMARK    3  A    between atoms: N_9  and  C_10 
REMARK    4  A    between atoms: N_12  and  C_13 
ROOT
HETATM    1  N   UNL     1     -40.863 -51.221  11.383  1.00  0.00    -0.306 N 
HETATM    2  C   UNL     1     -41.875 -51.717  12.175  1.00  0.00     0.321 C 
HETATM    3  O   UNL     1     -42.622 -51.066  12.893  1.00  0.00    -0.247 OA
HETATM    4  N   UNL     1     -41.949 -53.096  12.130  1.00  0.00    -0.336 N 
HETATM    5  H   UNL     1     -40.265 -51.868  10.893  1.00  0.00     0.171 HD
HETATM    6  H   UNL     1     -41.665 -53.527  11.261  1.00  0.00     0.164 HD
ENDROOT
BRANCH   1   7
HETATM    7  C   UNL     1     -40.521 -49.880  11.317  1.00  0.00     0.070 A 
HETATM    8  C   UNL     1     -41.292 -48.830  10.881  1.00  0.00     0.141 A 
HETATM    9  N   UNL     1     -40.545 -47.701  11.037  1.00  0.00    -0.302 N 
HETATM   10  N   UNL     1     -39.313 -47.943  11.522  1.00  0.00    -0.308 N 
HETATM   11  C   UNL     1     -39.300 -49.270  11.689  1.00  0.00     0.138 A 
ATOM     12  HN  UNL     1     -38.567 -47.275  11.715  1.00  0.00     0.186 HD
BRANCH   9  13
HETATM   13  C   UNL     1     -40.977 -46.349  10.745  1.00  0.00     0.143 C 
HETATM   14  C   UNL     1     -39.804 -45.405  10.555  1.00  0.00     0.028 C 
ENDBRANCH   9  13
ENDBRANCH   1   7
BRANCH   4  15
HETATM   15  C   UNL     1     -42.992 -53.762  12.908  1.00  0.00     0.112 C 
HETATM   16  C   UNL     1     -44.368 -53.101  12.789  1.00  0.00     0.152 C 
HETATM   17  N   UNL     1     -45.007 -53.356  14.055  1.00  0.00    -0.345 N 
HETATM   18  C   UNL     1     -44.080 -53.693  15.037  1.00  0.00     0.222 C 
HETATM   19  O   UNL     1     -44.290 -53.845  16.231  1.00  0.00    -0.273 OA
HETATM   20  C   UNL     1     -42.712 -53.746  14.407  1.00  0.00     0.129 C 
BRANCH  17  21
HETATM   21  C   UNL     1     -46.282 -52.776  14.341  1.00  0.00     0.087 A 
HETATM   22  C   UNL     1     -46.806 -51.571  13.611  1.00  0.00     0.027 A 
HETATM   23  C   UNL     1     -46.384 -51.448  15.044  1.00  0.00     0.027 A 
ENDBRANCH  17  21
ENDBRANCH   4  15
TORSDOF 4
ENDMDL
MODEL 5
REMARK VINA RESULT:      -5.7      3.492      7.463
REMARK  4 active torsions:
REMARK  status: ('A' for Active; 'I' for Inactive)
REMARK    1  A    between atoms: C_2  and  N_3 
REMARK    2  A    between atoms: C_5  and  N_6 
REMARK       I    between atoms: N_6  and  C_7 
REMARK       I    between atoms: C_7  and  N_9 
REMARK    3  A    between atoms: N_9  and  C_10 
REMARK    4  A    between atoms: N_12  and  C_13 
ROOT
HETATM    1  N   UNL     1     -41.835 -51.216  12.636  1.00  0.00    -0.306 N 
HETATM    2  C   UNL     1     -41.386 -50.291  11.720  1.00  0.00     0.321 C 
HETATM    3  O   UNL     1     -40.297 -50.290  11.162  1.00  0.00    -0.247 OA
HETATM    4  N   UNL     1     -42.299 -49.274  11.509  1.00  0.00    -0.336 N 
HETATM    5  H   UNL     1     -42.726 -51.066  13.084  1.00  0.00     0.171 HD
HETATM    6  H   UNL     1     -43.272 -49.526  11.609  1.00  0.00     0.164 HD
ENDROOT
BRANCH   1   7
HETATM    7  C   UNL     1     -41.080 -52.285  13.089  1.00  0.00     0.070 A 
HETATM    8  C   UNL     1     -40.340 -52.369  14.245  1.00  0.00     0.141 A 
HETATM    9  N   UNL     1     -39.807 -53.622  14.280  1.00  0.00    -0.302 N 
HETATM   10  N   UNL     1     -40.121 -54.364  13.202  1.00  0.00    -0.308 N 
HETATM   11  C   UNL     1     -40.895 -53.547  12.478  1.00  0.00     0.138 A 
ATOM     12  HN  UNL     1     -39.839 -55.320  12.989  1.00  0.00     0.186 HD
BRANCH   9  13
HETATM   13  C   UNL     1     -38.988 -54.167  15.345  1.00  0.00     0.143 C 
HETATM   14  C   UNL     1     -39.626 -55.385  15.987  1.00  0.00     0.028 C 
ENDBRANCH   9  13
ENDBRANCH   1   7
BRANCH   4  15
HETATM   15  C   UNL     1     -41.963 -48.229  10.544  1.00  0.00     0.112 C 
HETATM   16  C   UNL     1     -41.070 -47.125  11.116  1.00  0.00     0.152 C 
HETATM   17  N   UNL     1     -41.439 -45.940  10.384  1.00  0.00    -0.345 N 
HETATM   18  C   UNL     1     -42.683 -46.081   9.777  1.00  0.00     0.222 C 
HETATM   19  O   UNL     1     -43.323 -45.218   9.194  1.00  0.00    -0.273 OA
HETATM   20  C   UNL     1     -43.189 -47.476  10.039  1.00  0.00     0.129 C 
BRANCH  17  21
HETATM   21  C   UNL     1     -40.875 -44.675  10.742  1.00  0.00     0.087 A 
HETATM   22  C   UNL     1     -40.062 -44.475  11.991  1.00  0.00     0.027 A 
HETATM   23  C   UNL     1     -41.434 -43.880  11.893  1.00  0.00     0.027 A 
ENDBRANCH  17  21
ENDBRANCH   4  15
TORSDOF 4
ENDMDL
MODEL 6
REMARK VINA RESULT:      -5.7      2.339      3.085
REMARK  4 active torsions:
REMARK  status: ('A' for Active; 'I' for Inactive)
REMARK    1  A    between atoms: C_2  and  N_3 
REMARK    2  A    between atoms: C_5  and  N_6 
REMARK       I    between atoms: N_6  and  C_7 
REMARK       I    between atoms: C_7  and  N_9 
REMARK    3  A    between atoms: N_9  and  C_10 
REMARK    4  A    between atoms: N_12  and  C_13 
ROOT
HETATM    1  N   UNL     1     -41.696 -47.618   9.862  1.00  0.00    -0.306 N 
HETATM    2  C   UNL     1     -41.472 -48.551  10.850  1.00  0.00     0.321 C 
HETATM    3  O   UNL     1     -42.310 -49.028  11.603  1.00  0.00    -0.247 OA
HETATM    4  N   UNL     1     -40.135 -48.885  10.964  1.00  0.00    -0.336 N 
HETATM    5  H   UNL     1     -40.908 -47.245   9.356  1.00  0.00     0.171 HD
HETATM    6  H   UNL     1     -39.594 -48.841  10.111  1.00  0.00     0.164 HD
ENDROOT
BRANCH   1   7
HETATM    7  C   UNL     1     -42.933 -47.051   9.601  1.00  0.00     0.070 A 
HETATM    8  C   UNL     1     -44.131 -47.691   9.393  1.00  0.00     0.141 A 
HETATM    9  N   UNL     1     -45.070 -46.720   9.216  1.00  0.00    -0.302 N 
HETATM   10  N   UNL     1     -44.562 -45.475   9.262  1.00  0.00    -0.308 N 
HETATM   11  C   UNL     1     -43.260 -45.679   9.495  1.00  0.00     0.138 A 
ATOM     12  HN  UNL     1     -45.051 -44.588   9.147  1.00  0.00     0.186 HD
BRANCH   9  13
HETATM   13  C   UNL     1     -46.488 -46.937   9.008  1.00  0.00     0.143 C 
HETATM   14  C   UNL     1     -46.821 -48.409   8.842  1.00  0.00     0.028 C 
ENDBRANCH   9  13
ENDBRANCH   1   7
BRANCH   4  15
HETATM   15  C   UNL     1     -39.750 -49.881  11.961  1.00  0.00     0.112 C 
HETATM   16  C   UNL     1     -40.566 -51.175  11.889  1.00  0.00     0.152 C 
HETATM   17  N   UNL     1     -40.604 -51.660  13.245  1.00  0.00    -0.345 N 
HETATM   18  C   UNL     1     -40.304 -50.652  14.157  1.00  0.00     0.222 C 
HETATM   19  O   UNL     1     -40.373 -50.713  15.375  1.00  0.00    -0.273 OA
HETATM   20  C   UNL     1     -39.965 -49.398  13.391  1.00  0.00     0.129 C 
BRANCH  17  21
HETATM   21  C   UNL     1     -41.391 -52.809  13.571  1.00  0.00     0.087 A 
HETATM   22  C   UNL     1     -40.889 -53.906  14.468  1.00  0.00     0.027 A 
HETATM   23  C   UNL     1     -41.054 -54.161  13.000  1.00  0.00     0.027 A 
ENDBRANCH  17  21
ENDBRANCH   4  15
TORSDOF 4
ENDMDL
MODEL 7
REMARK VINA RESULT:      -5.5      2.320      8.047
REMARK  4 active torsions:
REMARK  status: ('A' for Active; 'I' for Inactive)
REMARK    1  A    between atoms: C_2  and  N_3 
REMARK    2  A    between atoms: C_5  and  N_6 
REMARK       I    between atoms: N_6  and  C_7 
REMARK       I    between atoms: C_7  and  N_9 
REMARK    3  A    between atoms: N_9  and  C_10 
REMARK    4  A    between atoms: N_12  and  C_13 
ROOT
HETATM    1  N   UNL     1     -39.659 -49.331  12.592  1.00  0.00    -0.306 N 
HETATM    2  C   UNL     1     -40.891 -48.721  12.514  1.00  0.00     0.321 C 
HETATM    3  O   UNL     1     -41.848 -48.917  13.251  1.00  0.00    -0.247 OA
HETATM    4  N   UNL     1     -40.983 -47.857  11.438  1.00  0.00    -0.336 N 
HETATM    5  H   UNL     1     -38.974 -49.140  11.877  1.00  0.00     0.171 HD
HETATM    6  H   UNL     1     -40.123 -47.405  11.160  1.00  0.00     0.164 HD
ENDROOT
BRANCH   1   7
HETATM    7  C   UNL     1     -39.336 -50.303  13.524  1.00  0.00     0.070 A 
HETATM    8  C   UNL     1     -39.518 -51.662  13.427  1.00  0.00     0.141 A 
HETATM    9  N   UNL     1     -39.012 -52.209  14.567  1.00  0.00    -0.302 N 
HETATM   10  N   UNL     1     -38.534 -51.293  15.429  1.00  0.00    -0.308 N 
HETATM   11  C   UNL     1     -38.734 -50.134  14.792  1.00  0.00     0.138 A 
ATOM     12  HN  UNL     1     -38.118 -51.446  16.348  1.00  0.00     0.186 HD
BRANCH   9  13
HETATM   13  C   UNL     1     -38.952 -53.624  14.877  1.00  0.00     0.143 C 
HETATM   14  C   UNL     1     -39.848 -54.445  13.968  1.00  0.00     0.028 C 
ENDBRANCH   9  13
ENDBRANCH   1   7
BRANCH   4  15
HETATM   15  C   UNL     1     -42.231 -47.122  11.241  1.00  0.00     0.112 C 
HETATM   16  C   UNL     1     -43.298 -47.913  10.480  1.00  0.00     0.152 C 
HETATM   17  N   UNL     1     -44.058 -46.914   9.772  1.00  0.00    -0.345 N 
HETATM   18  C   UNL     1     -43.354 -45.718   9.664  1.00  0.00     0.222 C 
HETATM   19  O   UNL     1     -43.672 -44.728   9.021  1.00  0.00    -0.273 OA
HETATM   20  C   UNL     1     -42.048 -45.862  10.403  1.00  0.00     0.129 C 
BRANCH  17  21
HETATM   21  C   UNL     1     -45.081 -47.311   8.856  1.00  0.00     0.087 A 
HETATM   22  C   UNL     1     -46.471 -46.737   8.895  1.00  0.00     0.027 A 
HETATM   23  C   UNL     1     -46.240 -48.157   9.314  1.00  0.00     0.027 A 
ENDBRANCH  17  21
ENDBRANCH   4  15
TORSDOF 4
ENDMDL
MODEL 8
REMARK VINA RESULT:      -5.5      4.007      6.634
REMARK  4 active torsions:
REMARK  status: ('A' for Active; 'I' for Inactive)
REMARK    1  A    between atoms: C_2  and  N_3 
REMARK    2  A    between atoms: C_5  and  N_6 
REMARK       I    between atoms: N_6  and  C_7 
REMARK       I    between atoms: C_7  and  N_9 
REMARK    3  A    between atoms: N_9  and  C_10 
REMARK    4  A    between atoms: N_12  and  C_13 
ROOT
HETATM    1  N   UNL     1     -41.418 -50.637  11.298  1.00  0.00    -0.306 N 
HETATM    2  C   UNL     1     -41.220 -49.413  11.897  1.00  0.00     0.321 C 
HETATM    3  O   UNL     1     -41.200 -49.186  13.100  1.00  0.00    -0.247 OA
HETATM    4  N   UNL     1     -41.090 -48.391  10.975  1.00  0.00    -0.336 N 
HETATM    5  H   UNL     1     -41.488 -50.682  10.293  1.00  0.00     0.171 HD
HETATM    6  H   UNL     1     -40.679 -48.646  10.087  1.00  0.00     0.164 HD
ENDROOT
BRANCH   1   7
HETATM    7  C   UNL     1     -41.662 -51.808  11.996  1.00  0.00     0.070 A 
HETATM    8  C   UNL     1     -42.792 -52.156  12.697  1.00  0.00     0.141 A 
HETATM    9  N   UNL     1     -42.585 -53.413  13.178  1.00  0.00    -0.302 N 
HETATM   10  N   UNL     1     -41.374 -53.910  12.864  1.00  0.00    -0.308 N 
HETATM   11  C   UNL     1     -40.814 -52.930  12.146  1.00  0.00     0.138 A 
ATOM     12  HN  UNL     1     -40.979 -54.816  13.113  1.00  0.00     0.186 HD
BRANCH   9  13
HETATM   13  C   UNL     1     -43.535 -54.198  13.943  1.00  0.00     0.143 C 
HETATM   14  C   UNL     1     -44.865 -54.339  13.226  1.00  0.00     0.028 C 
ENDBRANCH   9  13
ENDBRANCH   1   7
BRANCH   4  15
HETATM   15  C   UNL     1     -40.855 -47.035  11.468  1.00  0.00     0.112 C 
HETATM   16  C   UNL     1     -42.125 -46.184  11.562  1.00  0.00     0.152 C 
HETATM   17  N   UNL     1     -41.677 -44.834  11.331  1.00  0.00    -0.345 N 
HETATM   18  C   UNL     1     -40.434 -44.807  10.708  1.00  0.00     0.222 C 
HETATM   19  O   UNL     1     -39.846 -43.828  10.271  1.00  0.00    -0.273 OA
HETATM   20  C   UNL     1     -39.943 -46.224  10.554  1.00  0.00     0.129 C 
BRANCH  17  21
HETATM   21  C   UNL     1     -42.631 -43.773  11.234  1.00  0.00     0.087 A 
HETATM   22  C   UNL     1     -42.229 -42.324  11.202  1.00  0.00     0.027 A 
HETATM   23  C   UNL     1     -42.914 -42.881  12.414  1.00  0.00     0.027 A 
ENDBRANCH  17  21
ENDBRANCH   4  15
TORSDOF 4
ENDMDL
MODEL 9
REMARK VINA RESULT:      -5.4      2.168      3.325
REMARK  4 active torsions:
REMARK  status: ('A' for Active; 'I' for Inactive)
REMARK    1  A    between atoms: C_2  and  N_3 
REMARK    2  A    between atoms: C_5  and  N_6 
REMARK       I    between atoms: N_6  and  C_7 
REMARK       I    between atoms: C_7  and  N_9 
REMARK    3  A    between atoms: N_9  and  C_10 
REMARK    4  A    between atoms: N_12  and  C_13 
ROOT
HETATM    1  N   UNL     1     -39.420 -48.096  11.572  1.00  0.00    -0.306 N 
HETATM    2  C   UNL     1     -39.317 -48.210  12.940  1.00  0.00     0.321 C 
HETATM    3  O   UNL     1     -40.156 -47.871  13.764  1.00  0.00    -0.247 OA
HETATM    4  N   UNL     1     -38.093 -48.719  13.335  1.00  0.00    -0.336 N 
HETATM    5  H   UNL     1     -38.626 -48.342  11.001  1.00  0.00     0.171 HD
HETATM    6  H   UNL     1     -37.654 -49.363  12.691  1.00  0.00     0.164 HD
ENDROOT
BRANCH   1   7
HETATM    7  C   UNL     1     -40.507 -47.534  10.923  1.00  0.00     0.070 A 
HETATM    8  C   UNL     1     -41.622 -48.171  10.432  1.00  0.00     0.141 A 
HETATM    9  N   UNL     1     -42.432 -47.205   9.916  1.00  0.00    -0.302 N 
HETATM   10  N   UNL     1     -41.908 -45.968  10.007  1.00  0.00    -0.308 N 
HETATM   11  C   UNL     1     -40.736 -46.172  10.619  1.00  0.00     0.138 A 
ATOM     12  HN  UNL     1     -42.309 -45.087   9.687  1.00  0.00     0.186 HD
BRANCH   9  13
HETATM   13  C   UNL     1     -43.740 -47.417   9.328  1.00  0.00     0.143 C 
HETATM   14  C   UNL     1     -43.650 -47.809   7.864  1.00  0.00     0.028 C 
ENDBRANCH   9  13
ENDBRANCH   1   7
BRANCH   4  15
HETATM   15  C   UNL     1     -37.849 -48.914  14.763  1.00  0.00     0.112 C 
HETATM   16  C   UNL     1     -37.052 -47.780  15.413  1.00  0.00     0.152 C 
HETATM   17  N   UNL     1     -36.315 -48.414  16.476  1.00  0.00    -0.345 N 
HETATM   18  C   UNL     1     -36.229 -49.790  16.288  1.00  0.00     0.222 C 
HETATM   19  O   UNL     1     -35.572 -50.586  16.943  1.00  0.00    -0.273 OA
HETATM   20  C   UNL     1     -37.014 -50.156  15.055  1.00  0.00     0.129 C 
BRANCH  17  21
HETATM   21  C   UNL     1     -35.363 -47.661  17.233  1.00  0.00     0.087 A 
HETATM   22  C   UNL     1     -35.103 -47.919  18.691  1.00  0.00     0.027 A 
HETATM   23  C   UNL     1     -35.817 -46.669  18.271  1.00  0.00     0.027 A 
ENDBRANCH  17  21
ENDBRANCH   4  15
TORSDOF 4
ENDMDL
