MODEL 1
REMARK VINA RESULT:      -5.4      0.000      0.000
REMARK  3 active torsions:
REMARK  status: ('A' for Active; 'I' for Inactive)
REMARK    1  A    between atoms: C_6  and  N_7 
REMARK    2  A    between atoms: N_7  and  C_8 
REMARK    3  A    between atoms: C_8  and  C_9 
ROOT
HETATM    1  C   UNL     1     -44.798 -46.925   9.055  1.00  0.00     0.181 C 
HETATM    2  N   UNL     1     -43.502 -46.985   9.703  1.00  0.00    -0.261 N 
HETATM    3  N   UNL     1     -43.039 -48.232  10.040  1.00  0.00    -0.305 N 
ATOM      4  HN  UNL     1     -43.598 -49.069   9.877  1.00  0.00     0.186 HD
HETATM    5  C   UNL     1     -41.863 -48.296  10.572  1.00  0.00     0.132 A 
HETATM    6  C   UNL     1     -40.950 -47.160  10.852  1.00  0.00     0.053 A 
HETATM    7  C   UNL     1     -41.440 -45.961  10.511  1.00  0.00     0.126 A 
HETATM    8 CL   UNL     1     -40.512 -44.522  10.763  1.00  0.00    -0.076 Cl
HETATM    9  C   UNL     1     -42.801 -45.803   9.921  1.00  0.00     0.285 A 
HETATM   10  O   UNL     1     -43.249 -44.693   9.639  1.00  0.00    -0.265 OA
ENDROOT
BRANCH   6  11
HETATM   11  N   UNL     1     -39.683 -47.472  11.343  1.00  0.00    -0.288 NA
HETATM   12  H   UNL     1     -39.045 -46.691  11.162  1.00  0.00     0.127 HD
BRANCH  11  13
HETATM   13  C   UNL     1     -39.489 -47.867  12.750  1.00  0.00     0.124 C 
BRANCH  13  14
HETATM   14  C   UNL     1     -38.258 -48.767  12.898  1.00  0.00     0.134 C 
HETATM   15  C   UNL     1     -37.877 -49.480  11.607  1.00  0.00     0.035 C 
HETATM   16  C   UNL     1     -37.367 -50.837  12.056  1.00  0.00     0.029 C 
HETATM   17  C   UNL     1     -37.491 -50.813  13.565  1.00  0.00     0.168 C 
HETATM   18  O   UNL     1     -38.491 -49.829  13.842  1.00  0.00    -0.385 OA
ENDBRANCH  13  14
ENDBRANCH  11  13
ENDBRANCH   6  11
TORSDOF 3
ENDMDL
MODEL 2
REMARK VINA RESULT:      -5.2      5.927      7.681
REMARK  3 active torsions:
REMARK  status: ('A' for Active; 'I' for Inactive)
REMARK    1  A    between atoms: C_6  and  N_7 
REMARK    2  A    between atoms: N_7  and  C_8 
REMARK    3  A    between atoms: C_8  and  C_9 
ROOT
HETATM    1  C   UNL     1     -41.954 -56.013  16.908  1.00  0.00     0.181 C 
HETATM    2  N   UNL     1     -41.703 -55.249  15.701  1.00  0.00    -0.261 N 
HETATM    3  N   UNL     1     -40.399 -54.909  15.449  1.00  0.00    -0.305 N 
ATOM      4  HN  UNL     1     -39.650 -55.148  16.099  1.00  0.00     0.186 HD
HETATM    5  C   UNL     1     -40.162 -54.271  14.350  1.00  0.00     0.132 A 
HETATM    6  C   UNL     1     -41.155 -53.873  13.321  1.00  0.00     0.053 A 
HETATM    7  C   UNL     1     -42.416 -54.222  13.607  1.00  0.00     0.126 A 
HETATM    8 CL   UNL     1     -43.708 -53.841  12.519  1.00  0.00    -0.076 Cl
HETATM    9  C   UNL     1     -42.772 -54.931  14.870  1.00  0.00     0.285 A 
HETATM   10  O   UNL     1     -43.939 -55.220  15.133  1.00  0.00    -0.265 OA
ENDROOT
BRANCH   6  11
HETATM   11  N   UNL     1     -40.661 -53.276  12.162  1.00  0.00    -0.288 NA
HETATM   12  H   UNL     1     -41.005 -53.786  11.342  1.00  0.00     0.127 HD
BRANCH  11  13
HETATM   13  C   UNL     1     -40.875 -51.842  11.896  1.00  0.00     0.124 C 
BRANCH  13  14
HETATM   14  C   UNL     1     -39.727 -51.005  12.470  1.00  0.00     0.134 C 
HETATM   15  C   UNL     1     -39.338 -49.830  11.581  1.00  0.00     0.035 C 
HETATM   16  C   UNL     1     -37.833 -49.713  11.740  1.00  0.00     0.029 C 
HETATM   17  C   UNL     1     -37.462 -50.822  12.701  1.00  0.00     0.168 C 
HETATM   18  O   UNL     1     -38.520 -51.779  12.594  1.00  0.00    -0.385 OA
ENDBRANCH  13  14
ENDBRANCH  11  13
ENDBRANCH   6  11
TORSDOF 3
ENDMDL
MODEL 3
REMARK VINA RESULT:      -5.1      5.941      7.081
REMARK  3 active torsions:
REMARK  status: ('A' for Active; 'I' for Inactive)
REMARK    1  A    between atoms: C_6  and  N_7 
REMARK    2  A    between atoms: N_7  and  C_8 
REMARK    3  A    between atoms: C_8  and  C_9 
ROOT
HETATM    1  C   UNL     1     -46.500 -54.706  14.843  1.00  0.00     0.181 C 
HETATM    2  N   UNL     1     -45.394 -54.208  14.048  1.00  0.00    -0.261 N 
HETATM    3  N   UNL     1     -45.709 -53.352  13.023  1.00  0.00    -0.305 N 
ATOM      4  HN  UNL     1     -46.677 -53.111  12.809  1.00  0.00     0.186 HD
HETATM    5  C   UNL     1     -44.724 -52.866  12.342  1.00  0.00     0.132 A 
HETATM    6  C   UNL     1     -43.280 -53.128  12.556  1.00  0.00     0.053 A 
HETATM    7  C   UNL     1     -43.015 -53.970  13.563  1.00  0.00     0.126 A 
HETATM    8 CL   UNL     1     -41.383 -54.390  13.961  1.00  0.00    -0.076 Cl
HETATM    9  C   UNL     1     -44.099 -54.597  14.375  1.00  0.00     0.285 A 
HETATM   10  O   UNL     1     -43.842 -55.390  15.279  1.00  0.00    -0.265 OA
ENDROOT
BRANCH   6  11
HETATM   11  N   UNL     1     -42.382 -52.417  11.761  1.00  0.00    -0.288 NA
HETATM   12  H   UNL     1     -42.815 -52.216  10.854  1.00  0.00     0.127 HD
BRANCH  11  13
HETATM   13  C   UNL     1     -41.778 -51.158  12.236  1.00  0.00     0.124 C 
BRANCH  13  14
HETATM   14  C   UNL     1     -40.258 -51.181  12.051  1.00  0.00     0.134 C 
HETATM   15  C   UNL     1     -39.494 -51.222  13.368  1.00  0.00     0.035 C 
HETATM   16  C   UNL     1     -38.252 -50.387  13.117  1.00  0.00     0.029 C 
HETATM   17  C   UNL     1     -38.387 -49.923  11.682  1.00  0.00     0.168 C 
HETATM   18  O   UNL     1     -39.787 -49.986  11.399  1.00  0.00    -0.385 OA
ENDBRANCH  13  14
ENDBRANCH  11  13
ENDBRANCH   6  11
TORSDOF 3
ENDMDL
MODEL 4
REMARK VINA RESULT:      -5.1      6.066      7.001
REMARK  3 active torsions:
REMARK  status: ('A' for Active; 'I' for Inactive)
REMARK    1  A    between atoms: C_6  and  N_7 
REMARK    2  A    between atoms: N_7  and  C_8 
REMARK    3  A    between atoms: C_8  and  C_9 
ROOT
HETATM    1  C   UNL     1     -40.303 -48.968  11.522  1.00  0.00     0.181 C 
HETATM    2  N   UNL     1     -41.105 -50.143  11.805  1.00  0.00    -0.261 N 
HETATM    3  N   UNL     1     -40.581 -51.352  11.425  1.00  0.00    -0.305 N 
ATOM      4  HN  UNL     1     -39.689 -51.415  10.933  1.00  0.00     0.186 HD
HETATM    5  C   UNL     1     -41.267 -52.407  11.719  1.00  0.00     0.132 A 
HETATM    6  C   UNL     1     -42.566 -52.452  12.435  1.00  0.00     0.053 A 
HETATM    7  C   UNL     1     -43.044 -51.251  12.786  1.00  0.00     0.126 A 
HETATM    8 CL   UNL     1     -44.548 -51.110  13.632  1.00  0.00    -0.076 Cl
HETATM    9  C   UNL     1     -42.326 -49.987  12.455  1.00  0.00     0.285 A 
HETATM   10  O   UNL     1     -42.791 -48.889  12.758  1.00  0.00    -0.265 OA
ENDROOT
BRANCH   6  11
HETATM   11  N   UNL     1     -43.082 -53.712  12.732  1.00  0.00    -0.288 NA
HETATM   12  H   UNL     1     -42.863 -54.359  11.968  1.00  0.00     0.127 HD
BRANCH  11  13
HETATM   13  C   UNL     1     -42.736 -54.400  13.989  1.00  0.00     0.124 C 
BRANCH  13  14
HETATM   14  C   UNL     1     -43.999 -54.794  14.760  1.00  0.00     0.134 C 
HETATM   15  C   UNL     1     -45.220 -54.964  13.865  1.00  0.00     0.035 C 
HETATM   16  C   UNL     1     -46.382 -54.462  14.703  1.00  0.00     0.029 C 
HETATM   17  C   UNL     1     -45.753 -54.038  16.014  1.00  0.00     0.168 C 
HETATM   18  O   UNL     1     -44.382 -53.775  15.702  1.00  0.00    -0.385 OA
ENDBRANCH  13  14
ENDBRANCH  11  13
ENDBRANCH   6  11
TORSDOF 3
ENDMDL
MODEL 5
REMARK VINA RESULT:      -5.1      5.489      7.550
REMARK  3 active torsions:
REMARK  status: ('A' for Active; 'I' for Inactive)
REMARK    1  A    between atoms: C_6  and  N_7 
REMARK    2  A    between atoms: N_7  and  C_8 
REMARK    3  A    between atoms: C_8  and  C_9 
ROOT
HETATM    1  C   UNL     1     -38.674 -49.398  12.851  1.00  0.00     0.181 C 
HETATM    2  N   UNL     1     -39.794 -50.310  12.720  1.00  0.00    -0.261 N 
HETATM    3  N   UNL     1     -40.998 -49.760  12.358  1.00  0.00    -0.305 N 
ATOM      4  HN  UNL     1     -41.105 -48.753  12.228  1.00  0.00     0.186 HD
HETATM    5  C   UNL     1     -41.988 -50.573  12.191  1.00  0.00     0.132 A 
HETATM    6  C   UNL     1     -41.961 -52.049  12.341  1.00  0.00     0.053 A 
HETATM    7  C   UNL     1     -40.769 -52.546  12.697  1.00  0.00     0.126 A 
HETATM    8 CL   UNL     1     -40.550 -54.250  12.915  1.00  0.00    -0.076 Cl
HETATM    9  C   UNL     1     -39.588 -51.669  12.938  1.00  0.00     0.285 A 
HETATM   10  O   UNL     1     -38.507 -52.137  13.293  1.00  0.00    -0.265 OA
ENDROOT
BRANCH   6  11
HETATM   11  N   UNL     1     -43.127 -52.740  12.015  1.00  0.00    -0.288 NA
HETATM   12  H   UNL     1     -42.961 -53.317  11.184  1.00  0.00     0.127 HD
BRANCH  11  13
HETATM   13  C   UNL     1     -43.804 -53.598  13.004  1.00  0.00     0.124 C 
BRANCH  13  14
HETATM   14  C   UNL     1     -45.274 -53.195  13.159  1.00  0.00     0.134 C 
HETATM   15  C   UNL     1     -45.484 -51.686  13.180  1.00  0.00     0.035 C 
HETATM   16  C   UNL     1     -46.626 -51.472  14.156  1.00  0.00     0.029 C 
HETATM   17  C   UNL     1     -46.991 -52.863  14.630  1.00  0.00     0.168 C 
HETATM   18  O   UNL     1     -45.817 -53.651  14.412  1.00  0.00    -0.385 OA
ENDBRANCH  13  14
ENDBRANCH  11  13
ENDBRANCH   6  11
TORSDOF 3
ENDMDL
MODEL 6
REMARK VINA RESULT:      -5.0      2.122      2.660
REMARK  3 active torsions:
REMARK  status: ('A' for Active; 'I' for Inactive)
REMARK    1  A    between atoms: C_6  and  N_7 
REMARK    2  A    between atoms: N_7  and  C_8 
REMARK    3  A    between atoms: C_8  and  C_9 
ROOT
HETATM    1  C   UNL     1     -42.559 -43.467  11.270  1.00  0.00     0.181 C 
HETATM    2  N   UNL     1     -42.263 -44.849  10.945  1.00  0.00    -0.261 N 
HETATM    3  N   UNL     1     -41.362 -45.493  11.755  1.00  0.00    -0.305 N 
ATOM      4  HN  UNL     1     -40.895 -45.009  12.523  1.00  0.00     0.186 HD
HETATM    5  C   UNL     1     -41.131 -46.739  11.501  1.00  0.00     0.132 A 
HETATM    6  C   UNL     1     -41.747 -47.556  10.427  1.00  0.00     0.053 A 
HETATM    7  C   UNL     1     -42.618 -46.891   9.658  1.00  0.00     0.126 A 
HETATM    8 CL   UNL     1     -43.436 -47.685   8.355  1.00  0.00    -0.076 Cl
HETATM    9  C   UNL     1     -42.913 -45.443   9.868  1.00  0.00     0.285 A 
HETATM   10  O   UNL     1     -43.694 -44.838   9.136  1.00  0.00    -0.265 OA
ENDROOT
BRANCH   6  11
HETATM   11  N   UNL     1     -41.423 -48.912  10.397  1.00  0.00    -0.288 NA
HETATM   12  H   UNL     1     -40.602 -49.053   9.800  1.00  0.00     0.127 HD
BRANCH  11  13
HETATM   13  C   UNL     1     -41.181 -49.663  11.642  1.00  0.00     0.124 C 
BRANCH  13  14
HETATM   14  C   UNL     1     -39.814 -50.353  11.606  1.00  0.00     0.134 C 
HETATM   15  C   UNL     1     -39.464 -51.063  12.908  1.00  0.00     0.035 C 
HETATM   16  C   UNL     1     -37.965 -50.877  13.054  1.00  0.00     0.029 C 
HETATM   17  C   UNL     1     -37.558 -50.075  11.836  1.00  0.00     0.168 C 
HETATM   18  O   UNL     1     -38.748 -49.404  11.416  1.00  0.00    -0.385 OA
ENDBRANCH  13  14
ENDBRANCH  11  13
ENDBRANCH   6  11
TORSDOF 3
ENDMDL
MODEL 7
REMARK VINA RESULT:      -5.0      5.333      7.288
REMARK  3 active torsions:
REMARK  status: ('A' for Active; 'I' for Inactive)
REMARK    1  A    between atoms: C_6  and  N_7 
REMARK    2  A    between atoms: N_7  and  C_8 
REMARK    3  A    between atoms: C_8  and  C_9 
ROOT
HETATM    1  C   UNL     1     -38.609 -50.948  14.213  1.00  0.00     0.181 C 
HETATM    2  N   UNL     1     -39.853 -51.346  13.583  1.00  0.00    -0.261 N 
HETATM    3  N   UNL     1     -39.914 -52.628  13.097  1.00  0.00    -0.305 N 
ATOM      4  HN  UNL     1     -39.109 -53.254  13.142  1.00  0.00     0.186 HD
HETATM    5  C   UNL     1     -41.036 -53.005  12.579  1.00  0.00     0.132 A 
HETATM    6  C   UNL     1     -42.277 -52.199  12.462  1.00  0.00     0.053 A 
HETATM    7  C   UNL     1     -42.175 -50.955  12.945  1.00  0.00     0.126 A 
HETATM    8 CL   UNL     1     -43.524 -49.872  12.895  1.00  0.00    -0.076 Cl
HETATM    9  C   UNL     1     -40.903 -50.436  13.529  1.00  0.00     0.285 A 
HETATM   10  O   UNL     1     -40.816 -49.281  13.944  1.00  0.00    -0.265 OA
ENDROOT
BRANCH   6  11
HETATM   11  N   UNL     1     -43.404 -52.844  11.955  1.00  0.00    -0.288 NA
HETATM   12  H   UNL     1     -43.200 -53.200  11.015  1.00  0.00     0.127 HD
BRANCH  11  13
HETATM   13  C   UNL     1     -44.052 -53.940  12.697  1.00  0.00     0.124 C 
BRANCH  13  14
HETATM   14  C   UNL     1     -45.309 -53.442  13.418  1.00  0.00     0.134 C 
HETATM   15  C   UNL     1     -46.125 -52.457  12.590  1.00  0.00     0.035 C 
HETATM   16  C   UNL     1     -46.677 -51.471  13.603  1.00  0.00     0.029 C 
HETATM   17  C   UNL     1     -46.142 -51.951  14.936  1.00  0.00     0.168 C 
HETATM   18  O   UNL     1     -44.977 -52.716  14.616  1.00  0.00    -0.385 OA
ENDBRANCH  13  14
ENDBRANCH  11  13
ENDBRANCH   6  11
TORSDOF 3
ENDMDL
MODEL 8
REMARK VINA RESULT:      -4.9      2.562      5.896
REMARK  3 active torsions:
REMARK  status: ('A' for Active; 'I' for Inactive)
REMARK    1  A    between atoms: C_6  and  N_7 
REMARK    2  A    between atoms: N_7  and  C_8 
REMARK    3  A    between atoms: C_8  and  C_9 
ROOT
HETATM    1  C   UNL     1     -38.965 -46.099  15.759  1.00  0.00     0.181 C 
HETATM    2  N   UNL     1     -39.315 -46.312  14.368  1.00  0.00    -0.261 N 
HETATM    3  N   UNL     1     -39.563 -47.606  13.987  1.00  0.00    -0.305 N 
ATOM      4  HN  UNL     1     -39.466 -48.382  14.642  1.00  0.00     0.186 HD
HETATM    5  C   UNL     1     -39.924 -47.797  12.760  1.00  0.00     0.132 A 
HETATM    6  C   UNL     1     -40.109 -46.759  11.716  1.00  0.00     0.053 A 
HETATM    7  C   UNL     1     -39.855 -45.510  12.128  1.00  0.00     0.126 A 
HETATM    8 CL   UNL     1     -40.021 -44.170  11.044  1.00  0.00    -0.076 Cl
HETATM    9  C   UNL     1     -39.404 -45.213  13.518  1.00  0.00     0.285 A 
HETATM   10  O   UNL     1     -39.146 -44.065  13.874  1.00  0.00    -0.265 OA
ENDROOT
BRANCH   6  11
HETATM   11  N   UNL     1     -40.600 -47.183  10.482  1.00  0.00    -0.288 NA
HETATM   12  H   UNL     1     -39.902 -47.777  10.023  1.00  0.00     0.127 HD
BRANCH  11  13
HETATM   13  C   UNL     1     -41.894 -47.882  10.377  1.00  0.00     0.124 C 
BRANCH  13  14
HETATM   14  C   UNL     1     -43.048 -46.880  10.285  1.00  0.00     0.134 C 
HETATM   15  C   UNL     1     -44.372 -47.523   9.890  1.00  0.00     0.035 C 
HETATM   16  C   UNL     1     -45.059 -46.483   9.024  1.00  0.00     0.029 C 
HETATM   17  C   UNL     1     -44.089 -45.321   8.978  1.00  0.00     0.168 C 
HETATM   18  O   UNL     1     -42.810 -45.892   9.265  1.00  0.00    -0.385 OA
ENDBRANCH  13  14
ENDBRANCH  11  13
ENDBRANCH   6  11
TORSDOF 3
ENDMDL
MODEL 9
REMARK VINA RESULT:      -4.8      5.699      6.493
REMARK  3 active torsions:
REMARK  status: ('A' for Active; 'I' for Inactive)
REMARK    1  A    between atoms: C_6  and  N_7 
REMARK    2  A    between atoms: N_7  and  C_8 
REMARK    3  A    between atoms: C_8  and  C_9 
ROOT
HETATM    1  C   UNL     1     -46.830 -53.892  14.773  1.00  0.00     0.181 C 
HETATM    2  N   UNL     1     -45.644 -53.470  14.053  1.00  0.00    -0.261 N 
HETATM    3  N   UNL     1     -44.966 -54.441  13.361  1.00  0.00    -0.305 N 
ATOM      4  HN  UNL     1     -45.260 -55.417  13.386  1.00  0.00     0.186 HD
HETATM    5  C   UNL     1     -43.937 -54.062  12.677  1.00  0.00     0.132 A 
HETATM    6  C   UNL     1     -43.412 -52.680  12.552  1.00  0.00     0.053 A 
HETATM    7  C   UNL     1     -44.100 -51.763  13.244  1.00  0.00     0.126 A 
HETATM    8 CL   UNL     1     -43.634 -50.096  13.213  1.00  0.00    -0.076 Cl
HETATM    9  C   UNL     1     -45.280 -52.127  14.082  1.00  0.00     0.285 A 
HETATM   10  O   UNL     1     -45.886 -51.279  14.735  1.00  0.00    -0.265 OA
ENDROOT
BRANCH   6  11
HETATM   11  N   UNL     1     -42.343 -52.485  11.679  1.00  0.00    -0.288 NA
HETATM   12  H   UNL     1     -42.573 -51.735  11.019  1.00  0.00     0.127 HD
BRANCH  11  13
HETATM   13  C   UNL     1     -40.987 -52.207  12.186  1.00  0.00     0.124 C 
BRANCH  13  14
HETATM   14  C   UNL     1     -40.687 -53.050  13.429  1.00  0.00     0.134 C 
HETATM   15  C   UNL     1     -40.366 -52.213  14.661  1.00  0.00     0.035 C 
HETATM   16  C   UNL     1     -39.313 -53.014  15.404  1.00  0.00     0.029 C 
HETATM   17  C   UNL     1     -39.100 -54.248  14.554  1.00  0.00     0.168 C 
HETATM   18  O   UNL     1     -39.522 -53.874  13.240  1.00  0.00    -0.385 OA
ENDBRANCH  13  14
ENDBRANCH  11  13
ENDBRANCH   6  11
TORSDOF 3
ENDMDL
