MODEL 1
REMARK VINA RESULT:      -5.6      0.000      0.000
REMARK  4 active torsions:
REMARK  status: ('A' for Active; 'I' for Inactive)
REMARK    1  A    between atoms: C_2  and  N_3 
REMARK    2  A    between atoms: C_2  and  C_12 
REMARK    3  A    between atoms: N_3  and  C_4 
REMARK    4  A    between atoms: C_10  and  N_11 
ROOT
HETATM    1  C   UNL     1     -41.715 -54.317  13.774  1.00  0.00     0.032 C 
HETATM    2  C   UNL     1     -41.632 -54.680  15.120  1.00  0.00     0.042 C 
HETATM    3  C   UNL     1     -40.388 -54.757  15.731  1.00  0.00     0.089 C 
HETATM    4  N   UNL     1     -39.226 -54.483  15.106  1.00  0.00    -0.373 N 
ATOM      5  HN  UNL     1     -38.325 -54.577  15.576  1.00  0.00     0.164 HD
HETATM    6  C   UNL     1     -39.323 -54.077  13.821  1.00  0.00     0.112 C 
HETATM    7  C   UNL     1     -40.526 -53.901  13.133  1.00  0.00     0.043 C 
ENDROOT
BRANCH   1   8
HETATM    8  N   UNL     1     -42.936 -54.202  13.072  1.00  0.00    -0.285 NA
HETATM    9  H   UNL     1     -43.049 -55.046  12.508  1.00  0.00     0.128 HD
BRANCH   8  10
HETATM   10  C   UNL     1     -44.182 -53.885  13.796  1.00  0.00     0.085 C 
HETATM   11  C   UNL     1     -45.132 -55.085  13.709  1.00  0.00     0.029 C 
BRANCH  10  12
HETATM   12  C   UNL     1     -44.832 -52.621  13.190  1.00  0.00     0.139 C 
HETATM   13  C   UNL     1     -45.576 -51.760  14.211  1.00  0.00     0.035 C 
HETATM   14  C   UNL     1     -46.874 -51.377  13.530  1.00  0.00     0.029 C 
HETATM   15  C   UNL     1     -46.716 -51.868  12.111  1.00  0.00     0.168 C 
HETATM   16  O   UNL     1     -45.810 -52.971  12.191  1.00  0.00    -0.384 OA
ENDBRANCH  10  12
ENDBRANCH   8  10
ENDBRANCH   1   8
BRANCH   7  17
HETATM   17  N   UNL     1     -40.538 -53.525  11.767  1.00  0.00    -0.300 NA
HETATM   18  H   UNL     1     -39.636 -53.171  11.456  1.00  0.00     0.124 HD
HETATM   19  H   UNL     1     -41.270 -52.840  11.598  1.00  0.00     0.124 HD
ENDBRANCH   7  17
TORSDOF 4
ENDMDL
MODEL 2
REMARK VINA RESULT:      -5.3      2.397      5.586
REMARK  4 active torsions:
REMARK  status: ('A' for Active; 'I' for Inactive)
REMARK    1  A    between atoms: C_2  and  N_3 
REMARK    2  A    between atoms: C_2  and  C_12 
REMARK    3  A    between atoms: N_3  and  C_4 
REMARK    4  A    between atoms: C_10  and  N_11 
ROOT
HETATM    1  C   UNL     1     -44.562 -53.532  12.984  1.00  0.00     0.032 C 
HETATM    2  C   UNL     1     -44.942 -54.757  13.537  1.00  0.00     0.042 C 
HETATM    3  C   UNL     1     -46.127 -54.843  14.255  1.00  0.00     0.089 C 
HETATM    4  N   UNL     1     -46.966 -53.808  14.448  1.00  0.00    -0.373 N 
ATOM      5  HN  UNL     1     -47.816 -53.898  15.005  1.00  0.00     0.164 HD
HETATM    6  C   UNL     1     -46.617 -52.642  13.860  1.00  0.00     0.112 C 
HETATM    7  C   UNL     1     -45.484 -52.463  13.062  1.00  0.00     0.043 C 
ENDROOT
BRANCH   1   8
HETATM    8  N   UNL     1     -43.381 -53.350  12.230  1.00  0.00    -0.285 NA
HETATM    9  H   UNL     1     -43.615 -52.773  11.421  1.00  0.00     0.128 HD
BRANCH   8  10
HETATM   10  C   UNL     1     -42.150 -52.862  12.884  1.00  0.00     0.085 C 
HETATM   11  C   UNL     1     -41.391 -51.957  11.908  1.00  0.00     0.029 C 
BRANCH  10  12
HETATM   12  C   UNL     1     -41.278 -54.062  13.317  1.00  0.00     0.139 C 
HETATM   13  C   UNL     1     -41.432 -54.435  14.792  1.00  0.00     0.035 C 
HETATM   14  C   UNL     1     -40.021 -54.682  15.285  1.00  0.00     0.029 C 
HETATM   15  C   UNL     1     -39.171 -54.628  14.037  1.00  0.00     0.168 C 
HETATM   16  O   UNL     1     -39.878 -53.776  13.134  1.00  0.00    -0.384 OA
ENDBRANCH  10  12
ENDBRANCH   8  10
ENDBRANCH   1   8
BRANCH   7  17
HETATM   17  N   UNL     1     -45.160 -51.193  12.527  1.00  0.00    -0.300 NA
HETATM   18  H   UNL     1     -45.771 -50.932  11.756  1.00  0.00     0.124 HD
HETATM   19  H   UNL     1     -44.186 -51.173  12.234  1.00  0.00     0.124 HD
ENDBRANCH   7  17
TORSDOF 4
ENDMDL
MODEL 3
REMARK VINA RESULT:      -5.1      3.189      4.025
REMARK  4 active torsions:
REMARK  status: ('A' for Active; 'I' for Inactive)
REMARK    1  A    between atoms: C_2  and  N_3 
REMARK    2  A    between atoms: C_2  and  C_12 
REMARK    3  A    between atoms: N_3  and  C_4 
REMARK    4  A    between atoms: C_10  and  N_11 
ROOT
HETATM    1  C   UNL     1     -39.518 -51.104  12.369  1.00  0.00     0.032 C 
HETATM    2  C   UNL     1     -38.745 -51.029  13.530  1.00  0.00     0.042 C 
HETATM    3  C   UNL     1     -38.044 -49.863  13.807  1.00  0.00     0.089 C 
HETATM    4  N   UNL     1     -38.070 -48.766  13.026  1.00  0.00    -0.373 N 
ATOM      5  HN  UNL     1     -37.520 -47.935  13.244  1.00  0.00     0.164 HD
HETATM    6  C   UNL     1     -38.866 -48.832  11.936  1.00  0.00     0.112 C 
HETATM    7  C   UNL     1     -39.664 -49.928  11.600  1.00  0.00     0.043 C 
ENDROOT
BRANCH   1   8
HETATM    8  N   UNL     1     -40.273 -52.244  12.009  1.00  0.00    -0.285 NA
HETATM    9  H   UNL     1     -39.616 -52.976  11.732  1.00  0.00     0.128 HD
BRANCH   8  10
HETATM   10  C   UNL     1     -41.295 -52.779  12.930  1.00  0.00     0.085 C 
HETATM   11  C   UNL     1     -41.129 -54.299  13.034  1.00  0.00     0.029 C 
BRANCH  10  12
HETATM   12  C   UNL     1     -42.706 -52.411  12.416  1.00  0.00     0.139 C 
HETATM   13  C   UNL     1     -43.343 -51.234  13.154  1.00  0.00     0.035 C 
HETATM   14  C   UNL     1     -44.777 -51.655  13.400  1.00  0.00     0.029 C 
HETATM   15  C   UNL     1     -44.930 -52.946  12.630  1.00  0.00     0.168 C 
HETATM   16  O   UNL     1     -43.619 -53.513  12.579  1.00  0.00    -0.384 OA
ENDBRANCH  10  12
ENDBRANCH   8  10
ENDBRANCH   1   8
BRANCH   7  17
HETATM   17  N   UNL     1     -40.429 -49.937  10.408  1.00  0.00    -0.300 NA
HETATM   18  H   UNL     1     -40.224 -50.746   9.825  1.00  0.00     0.124 HD
HETATM   19  H   UNL     1     -40.283 -49.074   9.890  1.00  0.00     0.124 HD
ENDBRANCH   7  17
TORSDOF 4
ENDMDL
MODEL 4
REMARK VINA RESULT:      -5.1      3.647      5.841
REMARK  4 active torsions:
REMARK  status: ('A' for Active; 'I' for Inactive)
REMARK    1  A    between atoms: C_2  and  N_3 
REMARK    2  A    between atoms: C_2  and  C_12 
REMARK    3  A    between atoms: N_3  and  C_4 
REMARK    4  A    between atoms: C_10  and  N_11 
ROOT
HETATM    1  C   UNL     1     -41.922 -52.514  12.368  1.00  0.00     0.032 C 
HETATM    2  C   UNL     1     -43.297 -52.317  12.514  1.00  0.00     0.042 C 
HETATM    3  C   UNL     1     -44.043 -53.232  13.245  1.00  0.00     0.089 C 
HETATM    4  N   UNL     1     -43.520 -54.314  13.852  1.00  0.00    -0.373 N 
ATOM      5  HN  UNL     1     -44.101 -54.983  14.358  1.00  0.00     0.164 HD
HETATM    6  C   UNL     1     -42.181 -54.463  13.751  1.00  0.00     0.112 C 
HETATM    7  C   UNL     1     -41.329 -53.569  13.098  1.00  0.00     0.043 C 
ENDROOT
BRANCH   1   8
HETATM    8  N   UNL     1     -41.081 -51.633  11.652  1.00  0.00    -0.285 NA
HETATM    9  H   UNL     1     -41.417 -51.599  10.688  1.00  0.00     0.128 HD
BRANCH   8  10
HETATM   10  C   UNL     1     -40.822 -50.273  12.165  1.00  0.00     0.085 C 
HETATM   11  C   UNL     1     -41.250 -49.249  11.108  1.00  0.00     0.029 C 
BRANCH  10  12
HETATM   12  C   UNL     1     -39.322 -50.120  12.506  1.00  0.00     0.139 C 
HETATM   13  C   UNL     1     -38.571 -49.171  11.572  1.00  0.00     0.035 C 
HETATM   14  C   UNL     1     -37.267 -49.877  11.261  1.00  0.00     0.029 C 
HETATM   15  C   UNL     1     -37.261 -51.080  12.174  1.00  0.00     0.168 C 
HETATM   16  O   UNL     1     -38.638 -51.384  12.408  1.00  0.00    -0.384 OA
ENDBRANCH  10  12
ENDBRANCH   8  10
ENDBRANCH   1   8
BRANCH   7  17
HETATM   17  N   UNL     1     -39.941 -53.828  12.990  1.00  0.00    -0.300 NA
HETATM   18  H   UNL     1     -39.418 -53.007  12.692  1.00  0.00     0.124 HD
HETATM   19  H   UNL     1     -39.777 -54.607  12.357  1.00  0.00     0.124 HD
ENDBRANCH   7  17
TORSDOF 4
ENDMDL
MODEL 5
REMARK VINA RESULT:      -5.0      1.782      1.920
REMARK  4 active torsions:
REMARK  status: ('A' for Active; 'I' for Inactive)
REMARK    1  A    between atoms: C_2  and  N_3 
REMARK    2  A    between atoms: C_2  and  C_12 
REMARK    3  A    between atoms: N_3  and  C_4 
REMARK    4  A    between atoms: C_10  and  N_11 
ROOT
HETATM    1  C   UNL     1     -41.384 -52.742  13.730  1.00  0.00     0.032 C 
HETATM    2  C   UNL     1     -41.241 -51.947  14.869  1.00  0.00     0.042 C 
HETATM    3  C   UNL     1     -40.265 -50.960  14.894  1.00  0.00     0.089 C 
HETATM    4  N   UNL     1     -39.436 -50.696  13.865  1.00  0.00    -0.373 N 
ATOM      5  HN  UNL     1     -38.710 -49.982  13.926  1.00  0.00     0.164 HD
HETATM    6  C   UNL     1     -39.622 -51.434  12.748  1.00  0.00     0.112 C 
HETATM    7  C   UNL     1     -40.615 -52.403  12.593  1.00  0.00     0.043 C 
ENDROOT
BRANCH   1   8
HETATM    8  N   UNL     1     -42.354 -53.762  13.609  1.00  0.00    -0.285 NA
HETATM    9  H   UNL     1     -41.935 -54.630  13.947  1.00  0.00     0.128 HD
BRANCH   8  10
HETATM   10  C   UNL     1     -43.703 -53.576  14.180  1.00  0.00     0.085 C 
HETATM   11  C   UNL     1     -44.421 -54.929  14.221  1.00  0.00     0.029 C 
BRANCH  10  12
HETATM   12  C   UNL     1     -44.494 -52.556  13.331  1.00  0.00     0.139 C 
HETATM   13  C   UNL     1     -45.296 -51.553  14.160  1.00  0.00     0.035 C 
HETATM   14  C   UNL     1     -46.643 -51.463  13.473  1.00  0.00     0.029 C 
HETATM   15  C   UNL     1     -46.472 -52.257  12.200  1.00  0.00     0.168 C 
HETATM   16  O   UNL     1     -45.456 -53.220  12.488  1.00  0.00    -0.384 OA
ENDBRANCH  10  12
ENDBRANCH   8  10
ENDBRANCH   1   8
BRANCH   7  17
HETATM   17  N   UNL     1     -40.708 -53.172  11.407  1.00  0.00    -0.300 NA
HETATM   18  H   UNL     1     -39.985 -53.887  11.353  1.00  0.00     0.124 HD
HETATM   19  H   UNL     1     -40.674 -52.565  10.591  1.00  0.00     0.124 HD
ENDBRANCH   7  17
TORSDOF 4
ENDMDL
MODEL 6
REMARK VINA RESULT:      -5.0      9.163     10.296
REMARK  4 active torsions:
REMARK  status: ('A' for Active; 'I' for Inactive)
REMARK    1  A    between atoms: C_2  and  N_3 
REMARK    2  A    between atoms: C_2  and  C_12 
REMARK    3  A    between atoms: N_3  and  C_4 
REMARK    4  A    between atoms: C_10  and  N_11 
ROOT
HETATM    1  C   UNL     1     -42.704 -45.945  10.894  1.00  0.00     0.032 C 
HETATM    2  C   UNL     1     -42.033 -47.155  11.085  1.00  0.00     0.042 C 
HETATM    3  C   UNL     1     -42.098 -48.132  10.100  1.00  0.00     0.089 C 
HETATM    4  N   UNL     1     -42.764 -47.986   8.939  1.00  0.00    -0.373 N 
ATOM      5  HN  UNL     1     -42.815 -48.735   8.248  1.00  0.00     0.164 HD
HETATM    6  C   UNL     1     -43.361 -46.790   8.742  1.00  0.00     0.112 C 
HETATM    7  C   UNL     1     -43.302 -45.717   9.634  1.00  0.00     0.043 C 
ENDROOT
BRANCH   1   8
HETATM    8  N   UNL     1     -42.687 -44.890  11.834  1.00  0.00    -0.285 NA
HETATM    9  H   UNL     1     -43.213 -45.196  12.654  1.00  0.00     0.128 HD
BRANCH   8  10
HETATM   10  C   UNL     1     -41.407 -44.271  12.234  1.00  0.00     0.085 C 
HETATM   11  C   UNL     1     -41.444 -43.972  13.736  1.00  0.00     0.029 C 
BRANCH  10  12
HETATM   12  C   UNL     1     -41.173 -42.979  11.419  1.00  0.00     0.139 C 
HETATM   13  C   UNL     1     -40.349 -41.925  12.157  1.00  0.00     0.035 C 
HETATM   14  C   UNL     1     -41.061 -40.614  11.895  1.00  0.00     0.029 C 
HETATM   15  C   UNL     1     -42.123 -40.959  10.877  1.00  0.00     0.168 C 
HETATM   16  O   UNL     1     -42.422 -42.339  11.095  1.00  0.00    -0.384 OA
ENDBRANCH  10  12
ENDBRANCH   8  10
ENDBRANCH   1   8
BRANCH   7  17
HETATM   17  N   UNL     1     -44.003 -44.513   9.378  1.00  0.00    -0.300 NA
HETATM   18  H   UNL     1     -45.009 -44.657   9.322  1.00  0.00     0.124 HD
HETATM   19  H   UNL     1     -43.655 -44.079   8.526  1.00  0.00     0.124 HD
ENDBRANCH   7  17
TORSDOF 4
ENDMDL
MODEL 7
REMARK VINA RESULT:      -5.0      8.615      9.981
REMARK  4 active torsions:
REMARK  status: ('A' for Active; 'I' for Inactive)
REMARK    1  A    between atoms: C_2  and  N_3 
REMARK    2  A    between atoms: C_2  and  C_12 
REMARK    3  A    between atoms: N_3  and  C_4 
REMARK    4  A    between atoms: C_10  and  N_11 
ROOT
HETATM    1  C   UNL     1     -42.248 -45.556  10.448  1.00  0.00     0.032 C 
HETATM    2  C   UNL     1     -41.418 -46.625  10.793  1.00  0.00     0.042 C 
HETATM    3  C   UNL     1     -41.741 -47.905  10.364  1.00  0.00     0.089 C 
HETATM    4  N   UNL     1     -42.817 -48.194   9.607  1.00  0.00    -0.373 N 
ATOM      5  HN  UNL     1     -43.042 -49.151   9.332  1.00  0.00     0.164 HD
HETATM    6  C   UNL     1     -43.580 -47.144   9.232  1.00  0.00     0.112 C 
HETATM    7  C   UNL     1     -43.309 -45.812   9.551  1.00  0.00     0.043 C 
ENDROOT
BRANCH   1   8
HETATM    8  N   UNL     1     -41.994 -44.219  10.830  1.00  0.00    -0.285 NA
HETATM    9  H   UNL     1     -42.356 -43.612  10.092  1.00  0.00     0.128 HD
BRANCH   8  10
HETATM   10  C   UNL     1     -42.414 -43.734  12.160  1.00  0.00     0.085 C 
HETATM   11  C   UNL     1     -43.096 -42.370  12.003  1.00  0.00     0.029 C 
BRANCH  10  12
HETATM   12  C   UNL     1     -41.184 -43.632  13.091  1.00  0.00     0.139 C 
HETATM   13  C   UNL     1     -39.867 -43.401  12.350  1.00  0.00     0.035 C 
HETATM   14  C   UNL     1     -38.875 -44.335  13.012  1.00  0.00     0.029 C 
HETATM   15  C   UNL     1     -39.618 -44.895  14.201  1.00  0.00     0.168 C 
HETATM   16  O   UNL     1     -41.000 -44.849  13.839  1.00  0.00    -0.384 OA
ENDBRANCH  10  12
ENDBRANCH   8  10
ENDBRANCH   1   8
BRANCH   7  17
HETATM   17  N   UNL     1     -44.192 -44.773   9.165  1.00  0.00    -0.300 NA
HETATM   18  H   UNL     1     -43.761 -43.854   9.240  1.00  0.00     0.124 HD
HETATM   19  H   UNL     1     -45.045 -44.815   9.717  1.00  0.00     0.124 HD
ENDBRANCH   7  17
TORSDOF 4
ENDMDL
MODEL 8
REMARK VINA RESULT:      -4.9      2.318      5.740
REMARK  4 active torsions:
REMARK  status: ('A' for Active; 'I' for Inactive)
REMARK    1  A    between atoms: C_2  and  N_3 
REMARK    2  A    between atoms: C_2  and  C_12 
REMARK    3  A    between atoms: N_3  and  C_4 
REMARK    4  A    between atoms: C_10  and  N_11 
ROOT
HETATM    1  C   UNL     1     -44.646 -53.630  13.117  1.00  0.00     0.032 C 
HETATM    2  C   UNL     1     -45.417 -52.501  12.830  1.00  0.00     0.042 C 
HETATM    3  C   UNL     1     -46.650 -52.342  13.448  1.00  0.00     0.089 C 
HETATM    4  N   UNL     1     -47.161 -53.211  14.341  1.00  0.00    -0.373 N 
ATOM      5  HN  UNL     1     -48.083 -53.079  14.756  1.00  0.00     0.164 HD
HETATM    6  C   UNL     1     -46.381 -54.270  14.653  1.00  0.00     0.112 C 
HETATM    7  C   UNL     1     -45.100 -54.491  14.142  1.00  0.00     0.043 C 
ENDROOT
BRANCH   1   8
HETATM    8  N   UNL     1     -43.377 -53.873  12.545  1.00  0.00    -0.285 NA
HETATM    9  H   UNL     1     -43.466 -53.759  11.534  1.00  0.00     0.128 HD
BRANCH   8  10
HETATM   10  C   UNL     1     -42.187 -53.159  13.049  1.00  0.00     0.085 C 
HETATM   11  C   UNL     1     -41.600 -52.304  11.921  1.00  0.00     0.029 C 
BRANCH  10  12
HETATM   12  C   UNL     1     -41.147 -54.179  13.567  1.00  0.00     0.139 C 
HETATM   13  C   UNL     1     -41.142 -54.336  15.088  1.00  0.00     0.035 C 
HETATM   14  C   UNL     1     -39.679 -54.353  15.477  1.00  0.00     0.029 C 
HETATM   15  C   UNL     1     -38.938 -54.401  14.161  1.00  0.00     0.168 C 
HETATM   16  O   UNL     1     -39.809 -53.777  13.215  1.00  0.00    -0.384 OA
ENDBRANCH  10  12
ENDBRANCH   8  10
ENDBRANCH   1   8
BRANCH   7  17
HETATM   17  N   UNL     1     -44.369 -55.656  14.480  1.00  0.00    -0.300 NA
HETATM   18  H   UNL     1     -43.690 -55.905  13.764  1.00  0.00     0.124 HD
HETATM   19  H   UNL     1     -45.005 -56.431  14.656  1.00  0.00     0.124 HD
ENDBRANCH   7  17
TORSDOF 4
ENDMDL
MODEL 9
REMARK VINA RESULT:      -4.9      4.832      6.635
REMARK  4 active torsions:
REMARK  status: ('A' for Active; 'I' for Inactive)
REMARK    1  A    between atoms: C_2  and  N_3 
REMARK    2  A    between atoms: C_2  and  C_12 
REMARK    3  A    between atoms: N_3  and  C_4 
REMARK    4  A    between atoms: C_10  and  N_11 
ROOT
HETATM    1  C   UNL     1     -42.366 -48.610  11.828  1.00  0.00     0.032 C 
HETATM    2  C   UNL     1     -42.748 -48.126  13.081  1.00  0.00     0.042 C 
HETATM    3  C   UNL     1     -43.024 -46.774  13.235  1.00  0.00     0.089 C 
HETATM    4  N   UNL     1     -42.965 -45.876  12.233  1.00  0.00    -0.373 N 
ATOM      5  HN  UNL     1     -43.147 -44.884  12.385  1.00  0.00     0.164 HD
HETATM    6  C   UNL     1     -42.651 -46.366  11.013  1.00  0.00     0.112 C 
HETATM    7  C   UNL     1     -42.420 -47.715  10.735  1.00  0.00     0.043 C 
ENDROOT
BRANCH   1   8
HETATM    8  N   UNL     1     -42.076 -49.969  11.574  1.00  0.00    -0.285 NA
HETATM    9  H   UNL     1     -41.980 -50.082  10.563  1.00  0.00     0.128 HD
BRANCH   8  10
HETATM   10  C   UNL     1     -40.966 -50.637  12.282  1.00  0.00     0.085 C 
HETATM   11  C   UNL     1     -39.634 -50.115  11.732  1.00  0.00     0.029 C 
BRANCH  10  12
HETATM   12  C   UNL     1     -41.076 -52.168  12.102  1.00  0.00     0.139 C 
HETATM   13  C   UNL     1     -42.420 -52.745  12.545  1.00  0.00     0.035 C 
HETATM   14  C   UNL     1     -42.072 -53.999  13.321  1.00  0.00     0.029 C 
HETATM   15  C   UNL     1     -40.586 -54.171  13.115  1.00  0.00     0.168 C 
HETATM   16  O   UNL     1     -40.081 -52.853  12.887  1.00  0.00    -0.384 OA
ENDBRANCH  10  12
ENDBRANCH   8  10
ENDBRANCH   1   8
BRANCH   7  17
HETATM   17  N   UNL     1     -42.041 -48.140   9.438  1.00  0.00    -0.300 NA
HETATM   18  H   UNL     1     -42.724 -47.879   8.731  1.00  0.00     0.124 HD
HETATM   19  H   UNL     1     -41.883 -49.145   9.430  1.00  0.00     0.124 HD
ENDBRANCH   7  17
TORSDOF 4
ENDMDL
