MODEL 1
REMARK VINA RESULT:      -6.5      0.000      0.000
REMARK  3 active torsions:
REMARK  status: ('A' for Active; 'I' for Inactive)
REMARK       I    between atoms: C_2  and  N_3 
REMARK       I    between atoms: C_2  and  N_12 
REMARK    1  A    between atoms: N_3  and  C_4 
REMARK    2  A    between atoms: N_12  and  C_13 
REMARK    3  A    between atoms: C_16  and  N_20 
ROOT
HETATM    1  O   UNL     1     -42.364 -49.616  13.570  1.00  0.00    -0.247 OA
HETATM    2  C   UNL     1     -42.366 -50.071  12.432  1.00  0.00     0.321 C 
HETATM    3  N   UNL     1     -42.612 -51.407  12.189  1.00  0.00    -0.330 N 
HETATM    4  N   UNL     1     -42.100 -49.360  11.283  1.00  0.00    -0.308 N 
HETATM    5  H   UNL     1     -43.147 -51.606  11.351  1.00  0.00     0.165 HD
HETATM    6  H   UNL     1     -41.760 -49.900  10.501  1.00  0.00     0.170 HD
ENDROOT
BRANCH   4   7
HETATM    7  C   UNL     1     -41.964 -47.950  11.227  1.00  0.00     0.051 A 
HETATM    8  C   UNL     1     -40.734 -47.315  11.177  1.00  0.00     0.035 A 
HETATM    9  C   UNL     1     -40.666 -45.920  11.116  1.00  0.00     0.051 A 
HETATM   10  C   UNL     1     -41.817 -45.143  11.135  1.00  0.00     0.103 A 
HETATM   11  N   UNL     1     -43.025 -45.750  11.192  1.00  0.00    -0.350 N 
HETATM   12  C   UNL     1     -43.073 -47.115  11.237  1.00  0.00     0.119 A 
ATOM     13  HN  UNL     1     -43.884 -45.199  11.200  1.00  0.00     0.166 HD
BRANCH  10  14
HETATM   14  N   UNL     1     -41.738 -43.766  11.035  1.00  0.00    -0.363 N 
HETATM   15  C   UNL     1     -40.512 -43.030  11.380  1.00  0.00     0.150 C 
HETATM   16  C   UNL     1     -40.693 -42.255  12.694  1.00  0.00     0.187 C 
HETATM   17  O   UNL     1     -41.841 -41.396  12.646  1.00  0.00    -0.388 OA
HETATM   18  C   UNL     1     -43.030 -42.178  12.432  1.00  0.00     0.187 C 
HETATM   19  C   UNL     1     -42.963 -42.955  11.107  1.00  0.00     0.150 C 
ENDBRANCH  10  14
ENDBRANCH   4   7
BRANCH   3  20
HETATM   20  C   UNL     1     -42.919 -52.265  13.345  1.00  0.00     0.172 C 
HETATM   21  C   UNL     1     -42.099 -53.553  13.262  1.00  0.00     0.034 C 
HETATM   22  C   UNL     1     -42.067 -54.288  14.596  1.00  0.00     0.004 C 
HETATM   23  C   UNL     1     -43.258 -55.208  14.831  1.00  0.00     0.015 C 
HETATM   24  C   UNL     1     -44.588 -54.765  14.239  1.00  0.00     0.095 C 
HETATM   25  N   UNL     1     -44.917 -53.362  14.387  1.00  0.00    -0.261 NA
HETATM   26  C   UNL     1     -44.441 -52.441  13.483  1.00  0.00     0.220 C 
HETATM   27  H   UNL     1     -45.912 -53.211  14.504  1.00  0.00     0.130 HD
HETATM   28  O   UNL     1     -45.239 -51.681  12.927  1.00  0.00    -0.278 OA
ENDBRANCH   3  20
TORSDOF 3
ENDMDL
MODEL 2
REMARK VINA RESULT:      -6.4      2.571      9.469
REMARK  3 active torsions:
REMARK  status: ('A' for Active; 'I' for Inactive)
REMARK       I    between atoms: C_2  and  N_3 
REMARK       I    between atoms: C_2  and  N_12 
REMARK    1  A    between atoms: N_3  and  C_4 
REMARK    2  A    between atoms: N_12  and  C_13 
REMARK    3  A    between atoms: C_16  and  N_20 
ROOT
HETATM    1  O   UNL     1     -41.237 -46.967  12.729  1.00  0.00    -0.247 OA
HETATM    2  C   UNL     1     -40.229 -46.927  12.032  1.00  0.00     0.321 C 
HETATM    3  N   UNL     1     -39.678 -45.729  11.627  1.00  0.00    -0.330 N 
HETATM    4  N   UNL     1     -39.548 -48.020  11.542  1.00  0.00    -0.308 N 
HETATM    5  H   UNL     1     -38.665 -45.703  11.594  1.00  0.00     0.165 HD
HETATM    6  H   UNL     1     -39.007 -47.860  10.706  1.00  0.00     0.170 HD
ENDROOT
BRANCH   4   7
HETATM    7  C   UNL     1     -39.806 -49.360  11.923  1.00  0.00     0.051 A 
HETATM    8  C   UNL     1     -39.219 -49.955  13.027  1.00  0.00     0.035 A 
HETATM    9  C   UNL     1     -39.521 -51.280  13.354  1.00  0.00     0.051 A 
HETATM   10  C   UNL     1     -40.384 -52.035  12.571  1.00  0.00     0.103 A 
HETATM   11  N   UNL     1     -40.959 -51.469  11.485  1.00  0.00    -0.350 N 
HETATM   12  C   UNL     1     -40.664 -50.169  11.188  1.00  0.00     0.119 A 
ATOM     13  HN  UNL     1     -41.601 -52.003  10.899  1.00  0.00     0.166 HD
BRANCH  10  14
HETATM   14  N   UNL     1     -40.705 -53.332  12.927  1.00  0.00    -0.363 N 
HETATM   15  C   UNL     1     -42.100 -53.793  13.012  1.00  0.00     0.150 C 
HETATM   16  C   UNL     1     -42.518 -53.998  14.477  1.00  0.00     0.187 C 
HETATM   17  O   UNL     1     -41.617 -54.878  15.164  1.00  0.00    -0.388 OA
HETATM   18  C   UNL     1     -40.290 -54.321  15.161  1.00  0.00     0.187 C 
HETATM   19  C   UNL     1     -39.763 -54.125  13.731  1.00  0.00     0.150 C 
ENDBRANCH  10  14
ENDBRANCH   4   7
BRANCH   3  20
HETATM   20  C   UNL     1     -40.318 -44.490  12.100  1.00  0.00     0.172 C 
HETATM   21  C   UNL     1     -40.461 -43.508  10.937  1.00  0.00     0.034 C 
HETATM   22  C   UNL     1     -41.451 -42.395  11.256  1.00  0.00     0.004 C 
HETATM   23  C   UNL     1     -40.846 -41.219  12.011  1.00  0.00     0.015 C 
HETATM   24  C   UNL     1     -39.723 -41.541  12.986  1.00  0.00     0.095 C 
HETATM   25  N   UNL     1     -39.917 -42.710  13.819  1.00  0.00    -0.261 NA
HETATM   26  C   UNL     1     -39.586 -43.959  13.345  1.00  0.00     0.220 C 
HETATM   27  H   UNL     1     -39.507 -42.599  14.739  1.00  0.00     0.130 HD
HETATM   28  O   UNL     1     -38.834 -44.673  14.014  1.00  0.00    -0.278 OA
ENDBRANCH   3  20
TORSDOF 3
ENDMDL
MODEL 3
REMARK VINA RESULT:      -6.4      2.027      2.544
REMARK  3 active torsions:
REMARK  status: ('A' for Active; 'I' for Inactive)
REMARK       I    between atoms: C_2  and  N_3 
REMARK       I    between atoms: C_2  and  N_12 
REMARK    1  A    between atoms: N_3  and  C_4 
REMARK    2  A    between atoms: N_12  and  C_13 
REMARK    3  A    between atoms: C_16  and  N_20 
ROOT
HETATM    1  O   UNL     1     -41.228 -51.056  13.181  1.00  0.00    -0.247 OA
HETATM    2  C   UNL     1     -40.933 -51.425  12.049  1.00  0.00     0.321 C 
HETATM    3  N   UNL     1     -40.903 -52.762  11.711  1.00  0.00    -0.330 N 
HETATM    4  N   UNL     1     -40.570 -50.603  11.006  1.00  0.00    -0.308 N 
HETATM    5  H   UNL     1     -41.225 -52.983  10.775  1.00  0.00     0.165 HD
HETATM    6  H   UNL     1     -39.999 -51.028  10.290  1.00  0.00     0.170 HD
ENDROOT
BRANCH   4   7
HETATM    7  C   UNL     1     -40.659 -49.188  11.033  1.00  0.00     0.051 A 
HETATM    8  C   UNL     1     -39.774 -48.393  11.741  1.00  0.00     0.035 A 
HETATM    9  C   UNL     1     -39.911 -47.002  11.720  1.00  0.00     0.051 A 
HETATM   10  C   UNL     1     -40.946 -46.391  11.023  1.00  0.00     0.103 A 
HETATM   11  N   UNL     1     -41.822 -47.157  10.334  1.00  0.00    -0.350 N 
HETATM   12  C   UNL     1     -41.665 -48.514  10.353  1.00  0.00     0.119 A 
ATOM     13  HN  UNL     1     -42.586 -46.729   9.809  1.00  0.00     0.166 HD
BRANCH  10  14
HETATM   14  N   UNL     1     -41.048 -45.012  10.980  1.00  0.00    -0.363 N 
HETATM   15  C   UNL     1     -39.923 -44.137  11.347  1.00  0.00     0.150 C 
HETATM   16  C   UNL     1     -40.188 -43.446  12.693  1.00  0.00     0.187 C 
HETATM   17  O   UNL     1     -41.439 -42.743  12.688  1.00  0.00    -0.388 OA
HETATM   18  C   UNL     1     -42.518 -43.663  12.449  1.00  0.00     0.187 C 
HETATM   19  C   UNL     1     -42.367 -44.372  11.093  1.00  0.00     0.150 C 
ENDBRANCH  10  14
ENDBRANCH   4   7
BRANCH   3  20
HETATM   20  C   UNL     1     -41.285 -53.736  12.747  1.00  0.00     0.172 C 
HETATM   21  C   UNL     1     -42.646 -53.358  13.333  1.00  0.00     0.034 C 
HETATM   22  C   UNL     1     -43.270 -54.514  14.104  1.00  0.00     0.004 C 
HETATM   23  C   UNL     1     -42.814 -54.616  15.554  1.00  0.00     0.015 C 
HETATM   24  C   UNL     1     -41.384 -54.189  15.849  1.00  0.00     0.095 C 
HETATM   25  N   UNL     1     -40.378 -54.632  14.905  1.00  0.00    -0.261 NA
HETATM   26  C   UNL     1     -40.139 -53.909  13.759  1.00  0.00     0.220 C 
HETATM   27  H   UNL     1     -39.488 -54.824  15.352  1.00  0.00     0.130 HD
HETATM   28  O   UNL     1     -38.985 -53.556  13.503  1.00  0.00    -0.278 OA
ENDBRANCH   3  20
TORSDOF 3
ENDMDL
MODEL 4
REMARK VINA RESULT:      -6.2      2.144      9.420
REMARK  3 active torsions:
REMARK  status: ('A' for Active; 'I' for Inactive)
REMARK       I    between atoms: C_2  and  N_3 
REMARK       I    between atoms: C_2  and  N_12 
REMARK    1  A    between atoms: N_3  and  C_4 
REMARK    2  A    between atoms: N_12  and  C_13 
REMARK    3  A    between atoms: C_16  and  N_20 
ROOT
HETATM    1  O   UNL     1     -41.020 -45.969  12.258  1.00  0.00    -0.247 OA
HETATM    2  C   UNL     1     -42.191 -45.731  12.532  1.00  0.00     0.321 C 
HETATM    3  N   UNL     1     -42.699 -44.450  12.481  1.00  0.00    -0.330 N 
HETATM    4  N   UNL     1     -43.122 -46.658  12.948  1.00  0.00    -0.308 N 
HETATM    5  H   UNL     1     -43.654 -44.372  12.148  1.00  0.00     0.165 HD
HETATM    6  H   UNL     1     -43.890 -46.294  13.493  1.00  0.00     0.170 HD
ENDROOT
BRANCH   4   7
HETATM    7  C   UNL     1     -42.912 -48.060  12.945  1.00  0.00     0.051 A 
HETATM    8  C   UNL     1     -43.014 -48.837  14.087  1.00  0.00     0.035 A 
HETATM    9  C   UNL     1     -42.803 -50.217  14.017  1.00  0.00     0.051 A 
HETATM   10  C   UNL     1     -42.459 -50.832  12.820  1.00  0.00     0.103 A 
HETATM   11  N   UNL     1     -42.349 -50.084  11.699  1.00  0.00    -0.350 N 
HETATM   12  C   UNL     1     -42.572 -48.738  11.782  1.00  0.00     0.119 A 
ATOM     13  HN  UNL     1     -42.104 -50.515  10.808  1.00  0.00     0.166 HD
BRANCH  10  14
HETATM   14  N   UNL     1     -42.291 -52.204  12.756  1.00  0.00    -0.363 N 
HETATM   15  C   UNL     1     -43.123 -53.127  13.544  1.00  0.00     0.150 C 
HETATM   16  C   UNL     1     -42.309 -53.752  14.688  1.00  0.00     0.187 C 
HETATM   17  O   UNL     1     -41.116 -54.383  14.202  1.00  0.00    -0.388 OA
HETATM   18  C   UNL     1     -40.278 -53.413  13.549  1.00  0.00     0.187 C 
HETATM   19  C   UNL     1     -40.993 -52.764  12.352  1.00  0.00     0.150 C 
ENDBRANCH  10  14
ENDBRANCH   4   7
BRANCH   3  20
HETATM   20  C   UNL     1     -41.795 -43.375  12.038  1.00  0.00     0.172 C 
HETATM   21  C   UNL     1     -41.337 -42.558  13.247  1.00  0.00     0.034 C 
HETATM   22  C   UNL     1     -40.118 -41.704  12.922  1.00  0.00     0.004 C 
HETATM   23  C   UNL     1     -40.448 -40.357  12.293  1.00  0.00     0.015 C 
HETATM   24  C   UNL     1     -41.672 -40.310  11.390  1.00  0.00     0.095 C 
HETATM   25  N   UNL     1     -41.832 -41.419  10.473  1.00  0.00    -0.261 NA
HETATM   26  C   UNL     1     -42.441 -42.580  10.891  1.00  0.00     0.220 C 
HETATM   27  H   UNL     1     -42.255 -41.135   9.596  1.00  0.00     0.130 HD
HETATM   28  O   UNL     1     -43.388 -43.028  10.239  1.00  0.00    -0.278 OA
ENDBRANCH   3  20
TORSDOF 3
ENDMDL
MODEL 5
REMARK VINA RESULT:      -6.1      3.191      9.337
REMARK  3 active torsions:
REMARK  status: ('A' for Active; 'I' for Inactive)
REMARK       I    between atoms: C_2  and  N_3 
REMARK       I    between atoms: C_2  and  N_12 
REMARK    1  A    between atoms: N_3  and  C_4 
REMARK    2  A    between atoms: N_12  and  C_13 
REMARK    3  A    between atoms: C_16  and  N_20 
ROOT
HETATM    1  O   UNL     1     -42.541 -50.177  12.376  1.00  0.00    -0.247 OA
HETATM    2  C   UNL     1     -41.525 -50.076  11.697  1.00  0.00     0.321 C 
HETATM    3  N   UNL     1     -41.357 -49.043  10.799  1.00  0.00    -0.330 N 
HETATM    4  N   UNL     1     -40.467 -50.958  11.701  1.00  0.00    -0.308 N 
HETATM    5  H   UNL     1     -40.413 -48.679  10.725  1.00  0.00     0.165 HD
HETATM    6  H   UNL     1     -39.910 -50.978  10.860  1.00  0.00     0.170 HD
ENDROOT
BRANCH   4   7
HETATM    7  C   UNL     1     -40.311 -52.018  12.629  1.00  0.00     0.051 A 
HETATM    8  C   UNL     1     -41.042 -53.193  12.556  1.00  0.00     0.035 A 
HETATM    9  C   UNL     1     -40.836 -54.206  13.498  1.00  0.00     0.051 A 
HETATM   10  C   UNL     1     -39.928 -54.049  14.536  1.00  0.00     0.103 A 
HETATM   11  N   UNL     1     -39.213 -52.903  14.623  1.00  0.00    -0.350 N 
HETATM   12  C   UNL     1     -39.416 -51.929  13.687  1.00  0.00     0.119 A 
ATOM     13  HN  UNL     1     -38.536 -52.769  15.374  1.00  0.00     0.166 HD
BRANCH  10  14
HETATM   14  N   UNL     1     -39.706 -55.073  15.438  1.00  0.00    -0.363 N 
HETATM   15  C   UNL     1     -40.751 -55.531  16.368  1.00  0.00     0.150 C 
HETATM   16  C   UNL     1     -40.429 -55.094  17.806  1.00  0.00     0.187 C 
HETATM   17  O   UNL     1     -39.122 -55.527  18.209  1.00  0.00    -0.388 OA
HETATM   18  C   UNL     1     -38.126 -54.952  17.344  1.00  0.00     0.187 C 
HETATM   19  C   UNL     1     -38.336 -55.375  15.881  1.00  0.00     0.150 C 
ENDBRANCH  10  14
ENDBRANCH   4   7
BRANCH   3  20
HETATM   20  C   UNL     1     -42.423 -48.031  10.716  1.00  0.00     0.172 C 
HETATM   21  C   UNL     1     -42.809 -47.810   9.253  1.00  0.00     0.034 C 
HETATM   22  C   UNL     1     -44.146 -47.092   9.124  1.00  0.00     0.004 C 
HETATM   23  C   UNL     1     -44.051 -45.574   9.199  1.00  0.00     0.015 C 
HETATM   24  C   UNL     1     -42.966 -45.004  10.102  1.00  0.00     0.095 C 
HETATM   25  N   UNL     1     -42.804 -45.648  11.390  1.00  0.00    -0.261 NA
HETATM   26  C   UNL     1     -42.022 -46.774  11.507  1.00  0.00     0.220 C 
HETATM   27  H   UNL     1     -42.532 -44.994  12.115  1.00  0.00     0.130 HD
HETATM   28  O   UNL     1     -41.123 -46.794  12.351  1.00  0.00    -0.278 OA
ENDBRANCH   3  20
TORSDOF 3
ENDMDL
MODEL 6
REMARK VINA RESULT:      -5.7      2.248      9.527
REMARK  3 active torsions:
REMARK  status: ('A' for Active; 'I' for Inactive)
REMARK       I    between atoms: C_2  and  N_3 
REMARK       I    between atoms: C_2  and  N_12 
REMARK    1  A    between atoms: N_3  and  C_4 
REMARK    2  A    between atoms: N_12  and  C_13 
REMARK    3  A    between atoms: C_16  and  N_20 
ROOT
HETATM    1  O   UNL     1     -41.702 -45.168  12.648  1.00  0.00    -0.247 OA
HETATM    2  C   UNL     1     -41.001 -45.028  11.651  1.00  0.00     0.321 C 
HETATM    3  N   UNL     1     -40.685 -43.777  11.162  1.00  0.00    -0.330 N 
HETATM    4  N   UNL     1     -40.479 -46.048  10.887  1.00  0.00    -0.308 N 
HETATM    5  H   UNL     1     -39.748 -43.680  10.785  1.00  0.00     0.165 HD
HETATM    6  H   UNL     1     -40.270 -45.814   9.928  1.00  0.00     0.170 HD
ENDROOT
BRANCH   4   7
HETATM    7  C   UNL     1     -40.523 -47.419  11.244  1.00  0.00     0.051 A 
HETATM    8  C   UNL     1     -39.554 -48.023  12.028  1.00  0.00     0.035 A 
HETATM    9  C   UNL     1     -39.659 -49.378  12.352  1.00  0.00     0.051 A 
HETATM   10  C   UNL     1     -40.708 -50.153  11.874  1.00  0.00     0.103 A 
HETATM   11  N   UNL     1     -41.656 -49.578  11.100  1.00  0.00    -0.350 N 
HETATM   12  C   UNL     1     -41.547 -48.248  10.805  1.00  0.00     0.119 A 
ATOM     13  HN  UNL     1     -42.439 -50.126  10.743  1.00  0.00     0.166 HD
BRANCH  10  14
HETATM   14  N   UNL     1     -40.821 -51.484  12.233  1.00  0.00    -0.363 N 
HETATM   15  C   UNL     1     -42.095 -52.213  12.127  1.00  0.00     0.150 C 
HETATM   16  C   UNL     1     -42.687 -52.479  13.519  1.00  0.00     0.187 C 
HETATM   17  O   UNL     1     -41.750 -53.154  14.371  1.00  0.00    -0.388 OA
HETATM   18  C   UNL     1     -40.573 -52.344  14.544  1.00  0.00     0.187 C 
HETATM   19  C   UNL     1     -39.878 -52.064  13.202  1.00  0.00     0.150 C 
ENDBRANCH  10  14
ENDBRANCH   4   7
BRANCH   3  20
HETATM   20  C   UNL     1     -41.181 -42.608  11.906  1.00  0.00     0.172 C 
HETATM   21  C   UNL     1     -41.844 -41.626  10.940  1.00  0.00     0.034 C 
HETATM   22  C   UNL     1     -42.712 -40.611  11.673  1.00  0.00     0.004 C 
HETATM   23  C   UNL     1     -41.952 -39.397  12.189  1.00  0.00     0.015 C 
HETATM   24  C   UNL     1     -40.516 -39.631  12.634  1.00  0.00     0.095 C 
HETATM   25  N   UNL     1     -40.277 -40.825  13.418  1.00  0.00    -0.261 NA
HETATM   26  C   UNL     1     -40.063 -42.032  12.793  1.00  0.00     0.220 C 
HETATM   27  H   UNL     1     -39.549 -40.692  14.111  1.00  0.00     0.130 HD
HETATM   28  O   UNL     1     -39.057 -42.686  13.080  1.00  0.00    -0.278 OA
ENDBRANCH   3  20
TORSDOF 3
ENDMDL
MODEL 7
REMARK VINA RESULT:      -5.6      2.570      3.299
REMARK  3 active torsions:
REMARK  status: ('A' for Active; 'I' for Inactive)
REMARK       I    between atoms: C_2  and  N_3 
REMARK       I    between atoms: C_2  and  N_12 
REMARK    1  A    between atoms: N_3  and  C_4 
REMARK    2  A    between atoms: N_12  and  C_13 
REMARK    3  A    between atoms: C_16  and  N_20 
ROOT
HETATM    1  O   UNL     1     -41.153 -51.005  14.754  1.00  0.00    -0.247 OA
HETATM    2  C   UNL     1     -40.330 -51.619  14.083  1.00  0.00     0.321 C 
HETATM    3  N   UNL     1     -39.968 -52.913  14.392  1.00  0.00    -0.330 N 
HETATM    4  N   UNL     1     -39.649 -51.119  12.995  1.00  0.00    -0.308 N 
HETATM    5  H   UNL     1     -39.797 -53.520  13.597  1.00  0.00     0.165 HD
HETATM    6  H   UNL     1     -38.764 -51.559  12.792  1.00  0.00     0.170 HD
ENDROOT
BRANCH   4   7
HETATM    7  C   UNL     1     -39.932 -49.876  12.375  1.00  0.00     0.051 A 
HETATM    8  C   UNL     1     -39.460 -48.668  12.861  1.00  0.00     0.035 A 
HETATM    9  C   UNL     1     -39.769 -47.477  12.198  1.00  0.00     0.051 A 
HETATM   10  C   UNL     1     -40.574 -47.471  11.066  1.00  0.00     0.103 A 
HETATM   11  N   UNL     1     -41.049 -48.643  10.586  1.00  0.00    -0.350 N 
HETATM   12  C   UNL     1     -40.725 -49.800  11.237  1.00  0.00     0.119 A 
ATOM     13  HN  UNL     1     -41.636 -48.663   9.752  1.00  0.00     0.166 HD
BRANCH  10  14
HETATM   14  N   UNL     1     -40.840 -46.290  10.397  1.00  0.00    -0.363 N 
HETATM   15  C   UNL     1     -39.816 -45.249  10.220  1.00  0.00     0.150 C 
HETATM   16  C   UNL     1     -40.116 -44.032  11.110  1.00  0.00     0.187 C 
HETATM   17  O   UNL     1     -41.441 -43.529  10.886  1.00  0.00    -0.388 OA
HETATM   18  C   UNL     1     -42.411 -44.546  11.193  1.00  0.00     0.187 C 
HETATM   19  C   UNL     1     -42.221 -45.792  10.313  1.00  0.00     0.150 C 
ENDBRANCH  10  14
ENDBRANCH   4   7
BRANCH   3  20
HETATM   20  C   UNL     1     -40.641 -53.556  15.532  1.00  0.00     0.172 C 
HETATM   21  C   UNL     1     -39.595 -54.104  16.505  1.00  0.00     0.034 C 
HETATM   22  C   UNL     1     -40.201 -54.418  17.867  1.00  0.00     0.004 C 
HETATM   23  C   UNL     1     -40.835 -55.799  17.966  1.00  0.00     0.015 C 
HETATM   24  C   UNL     1     -41.485 -56.341  16.702  1.00  0.00     0.095 C 
HETATM   25  N   UNL     1     -42.286 -55.402  15.943  1.00  0.00    -0.261 NA
HETATM   26  C   UNL     1     -41.688 -54.564  15.029  1.00  0.00     0.220 C 
HETATM   27  H   UNL     1     -43.080 -55.847  15.496  1.00  0.00     0.130 HD
HETATM   28  O   UNL     1     -42.116 -54.538  13.872  1.00  0.00    -0.278 OA
ENDBRANCH   3  20
TORSDOF 3
ENDMDL
MODEL 8
REMARK VINA RESULT:      -5.6      6.922     10.447
REMARK  3 active torsions:
REMARK  status: ('A' for Active; 'I' for Inactive)
REMARK       I    between atoms: C_2  and  N_3 
REMARK       I    between atoms: C_2  and  N_12 
REMARK    1  A    between atoms: N_3  and  C_4 
REMARK    2  A    between atoms: N_12  and  C_13 
REMARK    3  A    between atoms: C_16  and  N_20 
ROOT
HETATM    1  O   UNL     1     -38.184 -56.985  17.058  1.00  0.00    -0.247 OA
HETATM    2  C   UNL     1     -37.548 -55.937  17.088  1.00  0.00     0.321 C 
HETATM    3  N   UNL     1     -36.300 -55.867  17.672  1.00  0.00    -0.330 N 
HETATM    4  N   UNL     1     -37.978 -54.723  16.600  1.00  0.00    -0.308 N 
HETATM    5  H   UNL     1     -35.634 -55.259  17.207  1.00  0.00     0.165 HD
HETATM    6  H   UNL     1     -37.557 -53.908  17.020  1.00  0.00     0.170 HD
ENDROOT
BRANCH   4   7
HETATM    7  C   UNL     1     -39.149 -54.542  15.823  1.00  0.00     0.051 A 
HETATM    8  C   UNL     1     -39.136 -54.513  14.438  1.00  0.00     0.035 A 
HETATM    9  C   UNL     1     -40.328 -54.339  13.729  1.00  0.00     0.051 A 
HETATM   10  C   UNL     1     -41.537 -54.161  14.387  1.00  0.00     0.103 A 
HETATM   11  N   UNL     1     -41.564 -54.178  15.740  1.00  0.00    -0.350 N 
HETATM   12  C   UNL     1     -40.392 -54.364  16.418  1.00  0.00     0.119 A 
ATOM     13  HN  UNL     1     -42.442 -54.056  16.244  1.00  0.00     0.166 HD
BRANCH  10  14
HETATM   14  N   UNL     1     -42.715 -54.028  13.674  1.00  0.00    -0.363 N 
HETATM   15  C   UNL     1     -42.916 -52.942  12.701  1.00  0.00     0.150 C 
HETATM   16  C   UNL     1     -43.910 -51.902  13.242  1.00  0.00     0.187 C 
HETATM   17  O   UNL     1     -45.148 -52.511  13.635  1.00  0.00    -0.388 OA
HETATM   18  C   UNL     1     -44.913 -53.476  14.676  1.00  0.00     0.187 C 
HETATM   19  C   UNL     1     -43.963 -54.591  14.209  1.00  0.00     0.150 C 
ENDBRANCH  10  14
ENDBRANCH   4   7
BRANCH   3  20
HETATM   20  C   UNL     1     -35.733 -57.110  18.220  1.00  0.00     0.172 C 
HETATM   21  C   UNL     1     -35.847 -57.099  19.745  1.00  0.00     0.034 C 
HETATM   22  C   UNL     1     -35.651 -58.489  20.336  1.00  0.00     0.004 C 
HETATM   23  C   UNL     1     -34.196 -58.869  20.572  1.00  0.00     0.015 C 
HETATM   24  C   UNL     1     -33.179 -58.312  19.586  1.00  0.00     0.095 C 
HETATM   25  N   UNL     1     -33.556 -58.352  18.188  1.00  0.00    -0.261 NA
HETATM   26  C   UNL     1     -34.323 -57.344  17.650  1.00  0.00     0.220 C 
HETATM   27  H   UNL     1     -32.761 -58.507  17.579  1.00  0.00     0.130 HD
HETATM   28  O   UNL     1     -33.926 -56.766  16.635  1.00  0.00    -0.278 OA
ENDBRANCH   3  20
TORSDOF 3
ENDMDL
MODEL 9
REMARK VINA RESULT:      -5.5      4.780      5.921
REMARK  3 active torsions:
REMARK  status: ('A' for Active; 'I' for Inactive)
REMARK       I    between atoms: C_2  and  N_3 
REMARK       I    between atoms: C_2  and  N_12 
REMARK    1  A    between atoms: N_3  and  C_4 
REMARK    2  A    between atoms: N_12  and  C_13 
REMARK    3  A    between atoms: C_16  and  N_20 
ROOT
HETATM    1  O   UNL     1     -42.796 -51.651  14.528  1.00  0.00    -0.247 OA
HETATM    2  C   UNL     1     -42.685 -51.427  13.327  1.00  0.00     0.321 C 
HETATM    3  N   UNL     1     -43.743 -51.600  12.460  1.00  0.00    -0.330 N 
HETATM    4  N   UNL     1     -41.532 -51.025  12.690  1.00  0.00    -0.308 N 
HETATM    5  H   UNL     1     -43.807 -50.921  11.710  1.00  0.00     0.165 HD
HETATM    6  H   UNL     1     -41.473 -51.251  11.708  1.00  0.00     0.170 HD
ENDROOT
BRANCH   4   7
HETATM    7  C   UNL     1     -40.344 -50.631  13.355  1.00  0.00     0.051 A 
HETATM    8  C   UNL     1     -39.271 -51.486  13.546  1.00  0.00     0.035 A 
HETATM    9  C   UNL     1     -38.123 -51.034  14.204  1.00  0.00     0.051 A 
HETATM   10  C   UNL     1     -38.044 -49.741  14.705  1.00  0.00     0.103 A 
HETATM   11  N   UNL     1     -39.088 -48.899  14.533  1.00  0.00    -0.350 N 
HETATM   12  C   UNL     1     -40.197 -49.352  13.875  1.00  0.00     0.119 A 
ATOM     13  HN  UNL     1     -39.049 -47.943  14.888  1.00  0.00     0.166 HD
BRANCH  10  14
HETATM   14  N   UNL     1     -36.888 -49.294  15.320  1.00  0.00    -0.363 N 
HETATM   15  C   UNL     1     -36.085 -50.165  16.193  1.00  0.00     0.150 C 
HETATM   16  C   UNL     1     -36.232 -49.747  17.664  1.00  0.00     0.187 C 
HETATM   17  O   UNL     1     -35.919 -48.359  17.852  1.00  0.00    -0.388 OA
HETATM   18  C   UNL     1     -36.814 -47.545  17.074  1.00  0.00     0.187 C 
HETATM   19  C   UNL     1     -36.702 -47.858  15.573  1.00  0.00     0.150 C 
ENDBRANCH  10  14
ENDBRANCH   4   7
BRANCH   3  20
HETATM   20  C   UNL     1     -45.033 -52.019  13.033  1.00  0.00     0.172 C 
HETATM   21  C   UNL     1     -45.285 -51.265  14.340  1.00  0.00     0.034 C 
HETATM   22  C   UNL     1     -46.744 -51.350  14.768  1.00  0.00     0.004 C 
HETATM   23  C   UNL     1     -47.090 -52.599  15.568  1.00  0.00     0.015 C 
HETATM   24  C   UNL     1     -46.327 -53.867  15.212  1.00  0.00     0.095 C 
HETATM   25  N   UNL     1     -46.148 -54.129  13.799  1.00  0.00    -0.261 NA
HETATM   26  C   UNL     1     -45.101 -53.554  13.116  1.00  0.00     0.220 C 
HETATM   27  H   UNL     1     -46.161 -55.121  13.587  1.00  0.00     0.130 HD
HETATM   28  O   UNL     1     -44.342 -54.277  12.464  1.00  0.00    -0.278 OA
ENDBRANCH   3  20
TORSDOF 3
ENDMDL
