MODEL 1
REMARK VINA RESULT:      -6.5      0.000      0.000
REMARK  5 active torsions:
REMARK  status: ('A' for Active; 'I' for Inactive)
REMARK    1  A    between atoms: N_6  and  C_7 
REMARK    2  A    between atoms: C_7  and  C_8 
REMARK       I    between atoms: C_8  and  N_10 
REMARK    3  A    between atoms: N_10  and  C_11 
REMARK    4  A    between atoms: C_11  and  C_12 
REMARK    5  A    between atoms: C_12  and  N_13 
ROOT
HETATM    1  C   UNL     1     -41.403 -50.159  12.097  1.00  0.00     0.237 C 
HETATM    2  O   UNL     1     -41.914 -49.739  13.134  1.00  0.00    -0.272 OA
HETATM    3  N   UNL     1     -41.391 -51.502  11.772  1.00  0.00    -0.358 N 
HETATM    4  H   UNL     1     -40.870 -51.812  10.959  1.00  0.00     0.162 HD
ENDROOT
BRANCH   3   5
HETATM    5  C   UNL     1     -41.929 -52.488  12.701  1.00  0.00     0.142 C 
BRANCH   5   6
HETATM    6  C   UNL     1     -43.382 -52.863  12.397  1.00  0.00     0.145 C 
BRANCH   6   7
HETATM    7  N   UNL     1     -44.366 -52.370  13.368  1.00  0.00    -0.351 N 
HETATM    8  C   UNL     1     -43.954 -52.300  14.772  1.00  0.00     0.126 C 
HETATM    9  C   UNL     1     -44.290 -50.969  15.433  1.00  0.00     0.020 C 
HETATM   10  C   UNL     1     -45.702 -50.905  16.010  1.00  0.00     0.002 C 
HETATM   11  C   UNL     1     -46.762 -51.661  15.216  1.00  0.00     0.009 C 
HETATM   12  C   UNL     1     -46.661 -51.437  13.720  1.00  0.00     0.103 C 
HETATM   13  C   UNL     1     -45.691 -52.324  12.957  1.00  0.00     0.219 C 
HETATM   14  O   UNL     1     -46.059 -52.857  11.907  1.00  0.00    -0.273 OA
ENDBRANCH   6   7
ENDBRANCH   5   6
ENDBRANCH   3   5
BRANCH   1  15
HETATM   15  C   UNL     1     -40.734 -49.235  11.108  1.00  0.00     0.251 C 
BRANCH  15  16
HETATM   16  N   UNL     1     -41.619 -48.162  10.713  1.00  0.00    -0.288 N 
HETATM   17  C   UNL     1     -41.335 -46.823  10.592  1.00  0.00     0.027 A 
HETATM   18  C   UNL     1     -42.491 -46.238  10.126  1.00  0.00     0.052 A 
HETATM   19  C   UNL     1     -40.023 -46.215  10.933  1.00  0.00     0.070 C 
HETATM   20  C   UNL     1     -43.416 -47.296   9.982  1.00  0.00     0.024 A 
HETATM   21  C   UNL     1     -44.817 -47.220   9.508  1.00  0.00     0.070 C 
HETATM   22  N   UNL     1     -42.880 -48.470  10.330  1.00  0.00    -0.303 N 
ATOM     23  HN  UNL     1     -43.320 -49.389  10.312  1.00  0.00     0.186 HD
ENDBRANCH  15  16
ENDBRANCH   1  15
TORSDOF 5
ENDMDL
MODEL 2
REMARK VINA RESULT:      -6.3      1.811      2.578
REMARK  5 active torsions:
REMARK  status: ('A' for Active; 'I' for Inactive)
REMARK    1  A    between atoms: N_6  and  C_7 
REMARK    2  A    between atoms: C_7  and  C_8 
REMARK       I    between atoms: C_8  and  N_10 
REMARK    3  A    between atoms: N_10  and  C_11 
REMARK    4  A    between atoms: C_11  and  C_12 
REMARK    5  A    between atoms: C_12  and  N_13 
ROOT
HETATM    1  C   UNL     1     -41.545 -52.691  13.332  1.00  0.00     0.237 C 
HETATM    2  O   UNL     1     -41.835 -51.920  14.245  1.00  0.00    -0.272 OA
HETATM    3  N   UNL     1     -41.848 -54.039  13.381  1.00  0.00    -0.358 N 
HETATM    4  H   UNL     1     -41.500 -54.654  12.654  1.00  0.00     0.162 HD
ENDROOT
BRANCH   3   5
HETATM    5  C   UNL     1     -42.466 -54.610  14.571  1.00  0.00     0.142 C 
BRANCH   5   6
HETATM    6  C   UNL     1     -43.959 -54.898  14.387  1.00  0.00     0.145 C 
BRANCH   6   7
HETATM    7  N   UNL     1     -44.837 -53.731  14.528  1.00  0.00    -0.351 N 
HETATM    8  C   UNL     1     -45.586 -53.595  15.780  1.00  0.00     0.126 C 
HETATM    9  C   UNL     1     -45.491 -52.202  16.390  1.00  0.00     0.020 C 
HETATM   10  C   UNL     1     -46.527 -51.219  15.850  1.00  0.00     0.002 C 
HETATM   11  C   UNL     1     -46.880 -51.393  14.376  1.00  0.00     0.009 C 
HETATM   12  C   UNL     1     -45.667 -51.609  13.493  1.00  0.00     0.103 C 
HETATM   13  C   UNL     1     -45.152 -53.033  13.369  1.00  0.00     0.219 C 
HETATM   14  O   UNL     1     -44.879 -53.482  12.253  1.00  0.00    -0.273 OA
ENDBRANCH   6   7
ENDBRANCH   5   6
ENDBRANCH   3   5
BRANCH   1  15
HETATM   15  C   UNL     1     -40.818 -52.224  12.094  1.00  0.00     0.251 C 
BRANCH  15  16
HETATM   16  N   UNL     1     -40.962 -50.796  11.911  1.00  0.00    -0.288 N 
HETATM   17  C   UNL     1     -39.976 -49.856  11.734  1.00  0.00     0.027 A 
HETATM   18  C   UNL     1     -40.633 -48.661  11.541  1.00  0.00     0.052 A 
HETATM   19  C   UNL     1     -38.522 -50.155  11.773  1.00  0.00     0.070 C 
HETATM   20  C   UNL     1     -42.009 -48.973  11.605  1.00  0.00     0.024 A 
HETATM   21  C   UNL     1     -43.158 -48.051  11.458  1.00  0.00     0.070 C 
HETATM   22  N   UNL     1     -42.208 -50.278  11.820  1.00  0.00    -0.303 N 
ATOM     23  HN  UNL     1     -43.098 -50.770  11.899  1.00  0.00     0.186 HD
ENDBRANCH  15  16
ENDBRANCH   1  15
TORSDOF 5
ENDMDL
MODEL 3
REMARK VINA RESULT:      -6.0      1.338      2.134
REMARK  5 active torsions:
REMARK  status: ('A' for Active; 'I' for Inactive)
REMARK    1  A    between atoms: N_6  and  C_7 
REMARK    2  A    between atoms: C_7  and  C_8 
REMARK       I    between atoms: C_8  and  N_10 
REMARK    3  A    between atoms: N_10  and  C_11 
REMARK    4  A    between atoms: C_11  and  C_12 
REMARK    5  A    between atoms: C_12  and  N_13 
ROOT
HETATM    1  C   UNL     1     -41.895 -49.325  11.726  1.00  0.00     0.237 C 
HETATM    2  O   UNL     1     -40.690 -49.271  11.961  1.00  0.00    -0.272 OA
HETATM    3  N   UNL     1     -42.650 -50.451  11.996  1.00  0.00    -0.358 N 
HETATM    4  H   UNL     1     -43.617 -50.486  11.692  1.00  0.00     0.162 HD
ENDROOT
BRANCH   3   5
HETATM    5  C   UNL     1     -42.013 -51.657  12.509  1.00  0.00     0.142 C 
BRANCH   5   6
HETATM    6  C   UNL     1     -43.018 -52.755  12.870  1.00  0.00     0.145 C 
BRANCH   6   7
HETATM    7  N   UNL     1     -44.151 -52.313  13.691  1.00  0.00    -0.351 N 
HETATM    8  C   UNL     1     -43.920 -52.147  15.129  1.00  0.00     0.126 C 
HETATM    9  C   UNL     1     -44.447 -50.826  15.675  1.00  0.00     0.020 C 
HETATM   10  C   UNL     1     -45.919 -50.866  16.077  1.00  0.00     0.002 C 
HETATM   11  C   UNL     1     -46.806 -51.748  15.204  1.00  0.00     0.009 C 
HETATM   12  C   UNL     1     -46.543 -51.579  13.721  1.00  0.00     0.103 C 
HETATM   13  C   UNL     1     -45.415 -52.405  13.125  1.00  0.00     0.219 C 
HETATM   14  O   UNL     1     -45.606 -53.013  12.068  1.00  0.00    -0.273 OA
ENDBRANCH   6   7
ENDBRANCH   5   6
ENDBRANCH   3   5
BRANCH   1  15
HETATM   15  C   UNL     1     -42.639 -48.166  11.106  1.00  0.00     0.251 C 
BRANCH  15  16
HETATM   16  N   UNL     1     -41.881 -46.939  11.215  1.00  0.00    -0.288 N 
HETATM   17  C   UNL     1     -41.927 -45.995  12.212  1.00  0.00     0.027 A 
HETATM   18  C   UNL     1     -40.971 -45.060  11.882  1.00  0.00     0.052 A 
HETATM   19  C   UNL     1     -42.861 -46.045  13.366  1.00  0.00     0.070 C 
HETATM   20  C   UNL     1     -40.389 -45.524  10.682  1.00  0.00     0.024 A 
HETATM   21  C   UNL     1     -39.304 -44.895   9.896  1.00  0.00     0.070 C 
HETATM   22  N   UNL     1     -40.938 -46.675  10.282  1.00  0.00    -0.303 N 
ATOM     23  HN  UNL     1     -40.701 -47.229   9.459  1.00  0.00     0.186 HD
ENDBRANCH  15  16
ENDBRANCH   1  15
TORSDOF 5
ENDMDL
MODEL 4
REMARK VINA RESULT:      -5.8      2.975      6.885
REMARK  5 active torsions:
REMARK  status: ('A' for Active; 'I' for Inactive)
REMARK    1  A    between atoms: N_6  and  C_7 
REMARK    2  A    between atoms: C_7  and  C_8 
REMARK       I    between atoms: C_8  and  N_10 
REMARK    3  A    between atoms: N_10  and  C_11 
REMARK    4  A    between atoms: C_11  and  C_12 
REMARK    5  A    between atoms: C_12  and  N_13 
ROOT
HETATM    1  C   UNL     1     -41.458 -51.461  12.115  1.00  0.00     0.237 C 
HETATM    2  O   UNL     1     -42.266 -50.982  12.907  1.00  0.00    -0.272 OA
HETATM    3  N   UNL     1     -40.767 -50.682  11.205  1.00  0.00    -0.358 N 
HETATM    4  H   UNL     1     -40.189 -51.132  10.504  1.00  0.00     0.162 HD
ENDROOT
BRANCH   3   5
HETATM    5  C   UNL     1     -41.037 -49.254  11.107  1.00  0.00     0.142 C 
BRANCH   5   6
HETATM    6  C   UNL     1     -39.926 -48.394  11.717  1.00  0.00     0.145 C 
BRANCH   6   7
HETATM    7  N   UNL     1     -39.163 -49.039  12.792  1.00  0.00    -0.351 N 
HETATM    8  C   UNL     1     -39.455 -48.630  14.168  1.00  0.00     0.126 C 
HETATM    9  C   UNL     1     -39.650 -49.805  15.118  1.00  0.00     0.020 C 
HETATM   10  C   UNL     1     -38.352 -50.336  15.720  1.00  0.00     0.002 C 
HETATM   11  C   UNL     1     -37.140 -50.285  14.795  1.00  0.00     0.009 C 
HETATM   12  C   UNL     1     -37.443 -50.756  13.387  1.00  0.00     0.103 C 
HETATM   13  C   UNL     1     -38.013 -49.727  12.426  1.00  0.00     0.219 C 
HETATM   14  O   UNL     1     -37.541 -49.634  11.290  1.00  0.00    -0.273 OA
ENDBRANCH   6   7
ENDBRANCH   5   6
ENDBRANCH   3   5
BRANCH   1  15
HETATM   15  C   UNL     1     -41.171 -52.943  12.065  1.00  0.00     0.251 C 
BRANCH  15  16
HETATM   16  N   UNL     1     -42.024 -53.671  12.978  1.00  0.00    -0.288 N 
HETATM   17  C   UNL     1     -41.720 -54.154  14.227  1.00  0.00     0.027 A 
HETATM   18  C   UNL     1     -42.887 -54.709  14.706  1.00  0.00     0.052 A 
HETATM   19  C   UNL     1     -40.376 -54.063  14.852  1.00  0.00     0.070 C 
HETATM   20  C   UNL     1     -43.844 -54.507  13.687  1.00  0.00     0.024 A 
HETATM   21  C   UNL     1     -45.269 -54.909  13.687  1.00  0.00     0.070 C 
HETATM   22  N   UNL     1     -43.320 -53.865  12.638  1.00  0.00    -0.303 N 
ATOM     23  HN  UNL     1     -43.789 -53.585  11.777  1.00  0.00     0.186 HD
ENDBRANCH  15  16
ENDBRANCH   1  15
TORSDOF 5
ENDMDL
MODEL 5
REMARK VINA RESULT:      -5.7      2.841      4.824
REMARK  5 active torsions:
REMARK  status: ('A' for Active; 'I' for Inactive)
REMARK    1  A    between atoms: N_6  and  C_7 
REMARK    2  A    between atoms: C_7  and  C_8 
REMARK       I    between atoms: C_8  and  N_10 
REMARK    3  A    between atoms: N_10  and  C_11 
REMARK    4  A    between atoms: C_11  and  C_12 
REMARK    5  A    between atoms: C_12  and  N_13 
ROOT
HETATM    1  C   UNL     1     -42.309 -50.606  12.913  1.00  0.00     0.237 C 
HETATM    2  O   UNL     1     -42.004 -50.523  14.100  1.00  0.00    -0.272 OA
HETATM    3  N   UNL     1     -43.179 -51.571  12.441  1.00  0.00    -0.358 N 
HETATM    4  H   UNL     1     -43.322 -51.666  11.441  1.00  0.00     0.162 HD
ENDROOT
BRANCH   3   5
HETATM    5  C   UNL     1     -43.714 -52.583  13.343  1.00  0.00     0.142 C 
BRANCH   5   6
HETATM    6  C   UNL     1     -43.034 -53.946  13.179  1.00  0.00     0.145 C 
BRANCH   6   7
HETATM    7  N   UNL     1     -41.817 -54.131  13.977  1.00  0.00    -0.351 N 
HETATM    8  C   UNL     1     -41.959 -54.145  15.435  1.00  0.00     0.126 C 
HETATM    9  C   UNL     1     -41.234 -55.308  16.100  1.00  0.00     0.020 C 
HETATM   10  C   UNL     1     -39.765 -55.027  16.406  1.00  0.00     0.002 C 
HETATM   11  C   UNL     1     -39.046 -54.152  15.384  1.00  0.00     0.009 C 
HETATM   12  C   UNL     1     -39.348 -54.538  13.950  1.00  0.00     0.103 C 
HETATM   13  C   UNL     1     -40.603 -53.946  13.329  1.00  0.00     0.219 C 
HETATM   14  O   UNL     1     -40.543 -53.455  12.199  1.00  0.00    -0.273 OA
ENDBRANCH   6   7
ENDBRANCH   5   6
ENDBRANCH   3   5
BRANCH   1  15
HETATM   15  C   UNL     1     -41.740 -49.668  11.875  1.00  0.00     0.251 C 
BRANCH  15  16
HETATM   16  N   UNL     1     -40.301 -49.578  11.985  1.00  0.00    -0.288 N 
HETATM   17  C   UNL     1     -39.504 -48.467  11.857  1.00  0.00     0.027 A 
HETATM   18  C   UNL     1     -38.221 -48.897  12.114  1.00  0.00     0.052 A 
HETATM   19  C   UNL     1     -40.008 -47.117  11.497  1.00  0.00     0.070 C 
HETATM   20  C   UNL     1     -38.337 -50.275  12.400  1.00  0.00     0.024 A 
HETATM   21  C   UNL     1     -37.256 -51.225  12.749  1.00  0.00     0.070 C 
HETATM   22  N   UNL     1     -39.607 -50.687  12.331  1.00  0.00    -0.303 N 
ATOM     23  HN  UNL     1     -39.971 -51.625  12.500  1.00  0.00     0.186 HD
ENDBRANCH  15  16
ENDBRANCH   1  15
TORSDOF 5
ENDMDL
MODEL 6
REMARK VINA RESULT:      -5.6      2.898      6.186
REMARK  5 active torsions:
REMARK  status: ('A' for Active; 'I' for Inactive)
REMARK    1  A    between atoms: N_6  and  C_7 
REMARK    2  A    between atoms: C_7  and  C_8 
REMARK       I    between atoms: C_8  and  N_10 
REMARK    3  A    between atoms: N_10  and  C_11 
REMARK    4  A    between atoms: C_11  and  C_12 
REMARK    5  A    between atoms: C_12  and  N_13 
ROOT
HETATM    1  C   UNL     1     -43.946 -54.802  14.330  1.00  0.00     0.237 C 
HETATM    2  O   UNL     1     -43.578 -55.432  15.319  1.00  0.00    -0.272 OA
HETATM    3  N   UNL     1     -43.055 -54.164  13.488  1.00  0.00    -0.358 N 
HETATM    4  H   UNL     1     -43.409 -53.572  12.745  1.00  0.00     0.162 HD
ENDROOT
BRANCH   3   5
HETATM    5  C   UNL     1     -41.630 -54.157  13.796  1.00  0.00     0.142 C 
BRANCH   5   6
HETATM    6  C   UNL     1     -41.198 -52.922  14.591  1.00  0.00     0.145 C 
BRANCH   6   7
HETATM    7  N   UNL     1     -41.683 -51.642  14.061  1.00  0.00    -0.351 N 
HETATM    8  C   UNL     1     -40.752 -50.846  13.258  1.00  0.00     0.126 C 
HETATM    9  C   UNL     1     -41.360 -50.343  11.954  1.00  0.00     0.020 C 
HETATM   10  C   UNL     1     -42.117 -49.025  12.094  1.00  0.00     0.002 C 
HETATM   11  C   UNL     1     -42.861 -48.840  13.413  1.00  0.00     0.009 C 
HETATM   12  C   UNL     1     -43.623 -50.076  13.847  1.00  0.00     0.103 C 
HETATM   13  C   UNL     1     -42.845 -51.126  14.621  1.00  0.00     0.219 C 
HETATM   14  O   UNL     1     -43.335 -51.608  15.646  1.00  0.00    -0.273 OA
ENDBRANCH   6   7
ENDBRANCH   5   6
ENDBRANCH   3   5
BRANCH   1  15
HETATM   15  C   UNL     1     -45.406 -54.664  13.970  1.00  0.00     0.251 C 
BRANCH  15  16
HETATM   16  N   UNL     1     -45.962 -53.439  14.501  1.00  0.00    -0.288 N 
HETATM   17  C   UNL     1     -46.437 -52.349  13.813  1.00  0.00     0.027 A 
HETATM   18  C   UNL     1     -46.914 -51.482  14.771  1.00  0.00     0.052 A 
HETATM   19  C   UNL     1     -46.392 -52.212  12.335  1.00  0.00     0.070 C 
HETATM   20  C   UNL     1     -46.698 -52.132  16.007  1.00  0.00     0.024 A 
HETATM   21  C   UNL     1     -47.032 -51.641  17.363  1.00  0.00     0.070 C 
HETATM   22  N   UNL     1     -46.127 -53.330  15.840  1.00  0.00    -0.303 N 
ATOM     23  HN  UNL     1     -45.873 -54.008  16.558  1.00  0.00     0.186 HD
ENDBRANCH  15  16
ENDBRANCH   1  15
TORSDOF 5
ENDMDL
MODEL 7
REMARK VINA RESULT:      -5.6      2.677      3.936
REMARK  5 active torsions:
REMARK  status: ('A' for Active; 'I' for Inactive)
REMARK    1  A    between atoms: N_6  and  C_7 
REMARK    2  A    between atoms: C_7  and  C_8 
REMARK       I    between atoms: C_8  and  N_10 
REMARK    3  A    between atoms: N_10  and  C_11 
REMARK    4  A    between atoms: C_11  and  C_12 
REMARK    5  A    between atoms: C_12  and  N_13 
ROOT
HETATM    1  C   UNL     1     -42.780 -49.575  12.382  1.00  0.00     0.237 C 
HETATM    2  O   UNL     1     -43.790 -49.870  13.018  1.00  0.00    -0.272 OA
HETATM    3  N   UNL     1     -41.928 -50.533  11.864  1.00  0.00    -0.358 N 
HETATM    4  H   UNL     1     -41.055 -50.243  11.437  1.00  0.00     0.162 HD
ENDROOT
BRANCH   3   5
HETATM    5  C   UNL     1     -42.167 -51.946  12.125  1.00  0.00     0.142 C 
BRANCH   5   6
HETATM    6  C   UNL     1     -40.877 -52.732  12.380  1.00  0.00     0.145 C 
BRANCH   6   7
HETATM    7  N   UNL     1     -40.863 -53.513  13.623  1.00  0.00    -0.351 N 
HETATM    8  C   UNL     1     -42.081 -53.511  14.437  1.00  0.00     0.126 C 
HETATM    9  C   UNL     1     -42.513 -54.904  14.877  1.00  0.00     0.020 C 
HETATM   10  C   UNL     1     -41.844 -55.380  16.164  1.00  0.00     0.002 C 
HETATM   11  C   UNL     1     -40.401 -54.926  16.352  1.00  0.00     0.009 C 
HETATM   12  C   UNL     1     -39.563 -55.063  15.096  1.00  0.00     0.103 C 
HETATM   13  C   UNL     1     -39.623 -53.915  14.102  1.00  0.00     0.219 C 
HETATM   14  O   UNL     1     -38.574 -53.471  13.628  1.00  0.00    -0.273 OA
ENDBRANCH   6   7
ENDBRANCH   5   6
ENDBRANCH   3   5
BRANCH   1  15
HETATM   15  C   UNL     1     -42.385 -48.139  12.134  1.00  0.00     0.251 C 
BRANCH  15  16
HETATM   16  N   UNL     1     -43.111 -47.583  11.013  1.00  0.00    -0.288 N 
HETATM   17  C   UNL     1     -42.731 -46.566  10.172  1.00  0.00     0.027 A 
HETATM   18  C   UNL     1     -43.736 -46.463   9.236  1.00  0.00     0.052 A 
HETATM   19  C   UNL     1     -41.481 -45.780  10.325  1.00  0.00     0.070 C 
HETATM   20  C   UNL     1     -44.674 -47.462   9.579  1.00  0.00     0.024 A 
HETATM   21  C   UNL     1     -45.946 -47.788   8.895  1.00  0.00     0.070 C 
HETATM   22  N   UNL     1     -44.286 -48.152  10.657  1.00  0.00    -0.303 N 
ATOM     23  HN  UNL     1     -44.767 -48.929  11.109  1.00  0.00     0.186 HD
ENDBRANCH  15  16
ENDBRANCH   1  15
TORSDOF 5
ENDMDL
MODEL 8
REMARK VINA RESULT:      -5.6      3.301      4.588
REMARK  5 active torsions:
REMARK  status: ('A' for Active; 'I' for Inactive)
REMARK    1  A    between atoms: N_6  and  C_7 
REMARK    2  A    between atoms: C_7  and  C_8 
REMARK       I    between atoms: C_8  and  N_10 
REMARK    3  A    between atoms: N_10  and  C_11 
REMARK    4  A    between atoms: C_11  and  C_12 
REMARK    5  A    between atoms: C_12  and  N_13 
ROOT
HETATM    1  C   UNL     1     -42.465 -52.861  12.870  1.00  0.00     0.237 C 
HETATM    2  O   UNL     1     -42.682 -51.855  13.542  1.00  0.00    -0.272 OA
HETATM    3  N   UNL     1     -43.476 -53.553  12.230  1.00  0.00    -0.358 N 
HETATM    4  H   UNL     1     -43.264 -54.433  11.773  1.00  0.00     0.162 HD
ENDROOT
BRANCH   3   5
HETATM    5  C   UNL     1     -44.865 -53.146  12.397  1.00  0.00     0.142 C 
BRANCH   5   6
HETATM    6  C   UNL     1     -45.576 -53.902  13.524  1.00  0.00     0.145 C 
BRANCH   6   7
HETATM    7  N   UNL     1     -45.713 -53.156  14.780  1.00  0.00    -0.351 N 
HETATM    8  C   UNL     1     -46.137 -51.756  14.693  1.00  0.00     0.126 C 
HETATM    9  C   UNL     1     -47.261 -51.407  15.661  1.00  0.00     0.020 C 
HETATM   10  C   UNL     1     -46.777 -51.008  17.052  1.00  0.00     0.002 C 
HETATM   11  C   UNL     1     -45.538 -51.749  17.545  1.00  0.00     0.009 C 
HETATM   12  C   UNL     1     -45.588 -53.239  17.278  1.00  0.00     0.103 C 
HETATM   13  C   UNL     1     -45.122 -53.707  15.909  1.00  0.00     0.219 C 
HETATM   14  O   UNL     1     -44.350 -54.667  15.830  1.00  0.00    -0.273 OA
ENDBRANCH   6   7
ENDBRANCH   5   6
ENDBRANCH   3   5
BRANCH   1  15
HETATM   15  C   UNL     1     -41.074 -53.426  12.707  1.00  0.00     0.251 C 
BRANCH  15  16
HETATM   16  N   UNL     1     -40.068 -52.414  12.943  1.00  0.00    -0.288 N 
HETATM   17  C   UNL     1     -39.160 -52.338  13.971  1.00  0.00     0.027 A 
HETATM   18  C   UNL     1     -38.388 -51.229  13.704  1.00  0.00     0.052 A 
HETATM   19  C   UNL     1     -39.104 -53.294  15.107  1.00  0.00     0.070 C 
HETATM   20  C   UNL     1     -38.889 -50.704  12.493  1.00  0.00     0.024 A 
HETATM   21  C   UNL     1     -38.415 -49.513  11.753  1.00  0.00     0.070 C 
HETATM   22  N   UNL     1     -39.907 -51.434  12.024  1.00  0.00    -0.303 N 
ATOM     23  HN  UNL     1     -40.442 -51.285  11.169  1.00  0.00     0.186 HD
ENDBRANCH  15  16
ENDBRANCH   1  15
TORSDOF 5
ENDMDL
MODEL 9
REMARK VINA RESULT:      -5.5      2.300      2.838
REMARK  5 active torsions:
REMARK  status: ('A' for Active; 'I' for Inactive)
REMARK    1  A    between atoms: N_6  and  C_7 
REMARK    2  A    between atoms: C_7  and  C_8 
REMARK       I    between atoms: C_8  and  N_10 
REMARK    3  A    between atoms: N_10  and  C_11 
REMARK    4  A    between atoms: C_11  and  C_12 
REMARK    5  A    between atoms: C_12  and  N_13 
ROOT
HETATM    1  C   UNL     1     -41.494 -51.188  12.484  1.00  0.00     0.237 C 
HETATM    2  O   UNL     1     -41.446 -51.126  13.711  1.00  0.00    -0.272 OA
HETATM    3  N   UNL     1     -42.005 -52.289  11.822  1.00  0.00    -0.358 N 
HETATM    4  H   UNL     1     -41.931 -52.340  10.812  1.00  0.00     0.162 HD
ENDROOT
BRANCH   3   5
HETATM    5  C   UNL     1     -42.442 -53.460  12.571  1.00  0.00     0.142 C 
BRANCH   5   6
HETATM    6  C   UNL     1     -43.947 -53.719  12.448  1.00  0.00     0.145 C 
BRANCH   6   7
HETATM    7  N   UNL     1     -44.785 -52.952  13.377  1.00  0.00    -0.351 N 
HETATM    8  C   UNL     1     -44.503 -53.083  14.809  1.00  0.00     0.126 C 
HETATM    9  C   UNL     1     -44.421 -51.744  15.532  1.00  0.00     0.020 C 
HETATM   10  C   UNL     1     -45.772 -51.216  16.009  1.00  0.00     0.002 C 
HETATM   11  C   UNL     1     -46.950 -51.527  15.091  1.00  0.00     0.009 C 
HETATM   12  C   UNL     1     -46.643 -51.295  13.625  1.00  0.00     0.103 C 
HETATM   13  C   UNL     1     -45.972 -52.433  12.876  1.00  0.00     0.219 C 
HETATM   14  O   UNL     1     -46.404 -52.765  11.769  1.00  0.00    -0.273 OA
ENDBRANCH   6   7
ENDBRANCH   5   6
ENDBRANCH   3   5
BRANCH   1  15
HETATM   15  C   UNL     1     -40.981 -50.072  11.607  1.00  0.00     0.251 C 
BRANCH  15  16
HETATM   16  N   UNL     1     -40.132 -49.169  12.354  1.00  0.00    -0.288 N 
HETATM   17  C   UNL     1     -38.761 -49.097  12.359  1.00  0.00     0.027 A 
HETATM   18  C   UNL     1     -38.447 -48.035  13.177  1.00  0.00     0.052 A 
HETATM   19  C   UNL     1     -37.874 -50.028  11.614  1.00  0.00     0.070 C 
HETATM   20  C   UNL     1     -39.686 -47.517  13.612  1.00  0.00     0.024 A 
HETATM   21  C   UNL     1     -39.925 -46.364  14.510  1.00  0.00     0.070 C 
HETATM   22  N   UNL     1     -40.714 -48.203  13.101  1.00  0.00    -0.303 N 
ATOM     23  HN  UNL     1     -41.710 -48.036  13.243  1.00  0.00     0.186 HD
ENDBRANCH  15  16
ENDBRANCH   1  15
TORSDOF 5
ENDMDL
