MODEL 1
REMARK VINA RESULT:      -6.1      0.000      0.000
REMARK  3 active torsions:
REMARK  status: ('A' for Active; 'I' for Inactive)
REMARK    1  A    between atoms: C_2  and  N_6 
REMARK       I    between atoms: N_6  and  C_7 
REMARK       I    between atoms: C_7  and  N_9 
REMARK    2  A    between atoms: N_9  and  C_10 
REMARK    3  A    between atoms: C_16  and  N_17 
ROOT
HETATM    1  N   UNL     1     -41.779 -48.210   9.777  1.00  0.00    -0.334 N 
HETATM    2  C   UNL     1     -41.488 -48.903  10.931  1.00  0.00     0.321 C 
HETATM    3  O   UNL     1     -41.939 -48.611  12.029  1.00  0.00    -0.247 OA
HETATM    4  N   UNL     1     -40.673 -49.991  10.683  1.00  0.00    -0.306 N 
HETATM    5  H   UNL     1     -41.145 -48.362   9.004  1.00  0.00     0.165 HD
HETATM    6  H   UNL     1     -40.916 -50.463   9.813  1.00  0.00     0.170 HD
ENDROOT
BRANCH   4   7
HETATM    7  C   UNL     1     -40.254 -50.837  11.749  1.00  0.00     0.072 A 
HETATM    8  C   UNL     1     -41.046 -51.939  12.092  1.00  0.00     0.049 A 
HETATM    9  C   UNL     1     -40.619 -52.785  13.102  1.00  0.00     0.090 A 
HETATM   10  N   UNL     1     -39.468 -52.611  13.786  1.00  0.00    -0.373 N 
HETATM   11  C   UNL     1     -38.712 -51.538  13.449  1.00  0.00     0.126 A 
ATOM     12  HN  UNL     1     -39.181 -53.258  14.521  1.00  0.00     0.164 HD
HETATM   13  C   UNL     1     -39.072 -50.621  12.469  1.00  0.00     0.144 A 
BRANCH  13  14
HETATM   14  N   UNL     1     -38.171 -49.512  12.192  1.00  0.00    -0.112 N 
HETATM   15  O   UNL     1     -37.465 -49.576  11.172  1.00  0.00    -0.532 OA
HETATM   16  O   UNL     1     -38.166 -48.556  12.980  1.00  0.00    -0.532 OA
ENDBRANCH  13  14
ENDBRANCH   4   7
BRANCH   1  17
HETATM   17  C   UNL     1     -42.735 -47.070   9.737  1.00  0.00     0.031 C 
HETATM   18  C   UNL     1     -42.137 -45.816  10.360  1.00  0.00     0.038 C 
HETATM   19  C   UNL     1     -43.319 -46.828   8.319  1.00  0.00     0.031 C 
HETATM   20  C   UNL     1     -44.581 -47.601   8.727  1.00  0.00     0.005 C 
HETATM   21  C   UNL     1     -44.168 -47.449  10.200  1.00  0.00     0.031 C 
ENDBRANCH   1  17
TORSDOF 3
ENDMDL
MODEL 2
REMARK VINA RESULT:      -6.0      1.588      2.497
REMARK  3 active torsions:
REMARK  status: ('A' for Active; 'I' for Inactive)
REMARK    1  A    between atoms: C_2  and  N_6 
REMARK       I    between atoms: N_6  and  C_7 
REMARK       I    between atoms: C_7  and  N_9 
REMARK    2  A    between atoms: N_9  and  C_10 
REMARK    3  A    between atoms: C_16  and  N_17 
ROOT
HETATM    1  N   UNL     1     -41.894 -48.262   9.661  1.00  0.00    -0.334 N 
HETATM    2  C   UNL     1     -41.211 -48.650  10.792  1.00  0.00     0.321 C 
HETATM    3  O   UNL     1     -41.275 -48.059  11.861  1.00  0.00    -0.247 OA
HETATM    4  N   UNL     1     -40.491 -49.811  10.582  1.00  0.00    -0.306 N 
HETATM    5  H   UNL     1     -41.552 -48.645   8.791  1.00  0.00     0.165 HD
HETATM    6  H   UNL     1     -40.996 -50.476   9.999  1.00  0.00     0.170 HD
ENDROOT
BRANCH   4   7
HETATM    7  C   UNL     1     -39.710 -50.376  11.630  1.00  0.00     0.072 A 
HETATM    8  C   UNL     1     -38.343 -50.081  11.693  1.00  0.00     0.049 A 
HETATM    9  C   UNL     1     -37.591 -50.598  12.735  1.00  0.00     0.090 A 
HETATM   10  N   UNL     1     -38.102 -51.381  13.708  1.00  0.00    -0.373 N 
HETATM   11  C   UNL     1     -39.425 -51.665  13.634  1.00  0.00     0.126 A 
ATOM     12  HN  UNL     1     -37.520 -51.741  14.465  1.00  0.00     0.164 HD
HETATM   13  C   UNL     1     -40.253 -51.213  12.613  1.00  0.00     0.144 A 
BRANCH  13  14
HETATM   14  N   UNL     1     -41.661 -51.580  12.648  1.00  0.00    -0.112 N 
HETATM   15  O   UNL     1     -42.387 -51.023  13.488  1.00  0.00    -0.532 OA
HETATM   16  O   UNL     1     -42.064 -52.416  11.828  1.00  0.00    -0.532 OA
ENDBRANCH  13  14
ENDBRANCH   4   7
BRANCH   1  17
HETATM   17  C   UNL     1     -42.844 -47.116   9.644  1.00  0.00     0.031 C 
HETATM   18  C   UNL     1     -42.189 -45.838  10.147  1.00  0.00     0.038 C 
HETATM   19  C   UNL     1     -43.547 -46.943   8.271  1.00  0.00     0.031 C 
HETATM   20  C   UNL     1     -44.773 -47.682   8.825  1.00  0.00     0.005 C 
HETATM   21  C   UNL     1     -44.235 -47.458  10.247  1.00  0.00     0.031 C 
ENDBRANCH   1  17
TORSDOF 3
ENDMDL
MODEL 3
REMARK VINA RESULT:      -5.7      2.084      6.107
REMARK  3 active torsions:
REMARK  status: ('A' for Active; 'I' for Inactive)
REMARK    1  A    between atoms: C_2  and  N_6 
REMARK       I    between atoms: N_6  and  C_7 
REMARK       I    between atoms: C_7  and  N_9 
REMARK    2  A    between atoms: N_9  and  C_10 
REMARK    3  A    between atoms: C_16  and  N_17 
ROOT
HETATM    1  N   UNL     1     -40.405 -49.590  10.812  1.00  0.00    -0.334 N 
HETATM    2  C   UNL     1     -41.485 -48.737  10.857  1.00  0.00     0.321 C 
HETATM    3  O   UNL     1     -42.130 -48.512  11.871  1.00  0.00    -0.247 OA
HETATM    4  N   UNL     1     -41.711 -48.133   9.635  1.00  0.00    -0.306 N 
HETATM    5  H   UNL     1     -40.137 -49.908   9.891  1.00  0.00     0.165 HD
HETATM    6  H   UNL     1     -40.843 -47.885   9.162  1.00  0.00     0.170 HD
ENDROOT
BRANCH   4   7
HETATM    7  C   UNL     1     -42.787 -47.216   9.471  1.00  0.00     0.072 A 
HETATM    8  C   UNL     1     -43.979 -47.665   8.890  1.00  0.00     0.049 A 
HETATM    9  C   UNL     1     -45.041 -46.784   8.767  1.00  0.00     0.090 A 
HETATM   10  N   UNL     1     -44.997 -45.499   9.178  1.00  0.00    -0.373 N 
HETATM   11  C   UNL     1     -43.837 -45.073   9.733  1.00  0.00     0.126 A 
ATOM     12  HN  UNL     1     -45.801 -44.878   9.077  1.00  0.00     0.164 HD
HETATM   13  C   UNL     1     -42.712 -45.876   9.874  1.00  0.00     0.144 A 
BRANCH  13  14
HETATM   14  N   UNL     1     -41.525 -45.306  10.494  1.00  0.00    -0.112 N 
HETATM   15  O   UNL     1     -40.533 -45.101   9.774  1.00  0.00    -0.532 OA
HETATM   16  O   UNL     1     -41.570 -45.040  11.703  1.00  0.00    -0.532 OA
ENDBRANCH  13  14
ENDBRANCH   4   7
BRANCH   1  17
HETATM   17  C   UNL     1     -39.866 -50.276  12.018  1.00  0.00     0.031 C 
HETATM   18  C   UNL     1     -40.671 -51.521  12.361  1.00  0.00     0.038 C 
HETATM   19  C   UNL     1     -38.339 -50.542  11.921  1.00  0.00     0.031 C 
HETATM   20  C   UNL     1     -38.085 -49.292  12.775  1.00  0.00     0.005 C 
HETATM   21  C   UNL     1     -39.564 -49.308  13.195  1.00  0.00     0.031 C 
ENDBRANCH   1  17
TORSDOF 3
ENDMDL
MODEL 4
REMARK VINA RESULT:      -5.5      4.800      6.121
REMARK  3 active torsions:
REMARK  status: ('A' for Active; 'I' for Inactive)
REMARK    1  A    between atoms: C_2  and  N_6 
REMARK       I    between atoms: N_6  and  C_7 
REMARK       I    between atoms: C_7  and  N_9 
REMARK    2  A    between atoms: N_9  and  C_10 
REMARK    3  A    between atoms: C_16  and  N_17 
ROOT
HETATM    1  N   UNL     1     -44.525 -52.956  15.093  1.00  0.00    -0.334 N 
HETATM    2  C   UNL     1     -43.408 -53.705  14.799  1.00  0.00     0.321 C 
HETATM    3  O   UNL     1     -43.405 -54.639  14.010  1.00  0.00    -0.247 OA
HETATM    4  N   UNL     1     -42.289 -53.238  15.463  1.00  0.00    -0.306 N 
HETATM    5  H   UNL     1     -44.476 -52.413  15.944  1.00  0.00     0.165 HD
HETATM    6  H   UNL     1     -42.265 -52.220  15.505  1.00  0.00     0.170 HD
ENDROOT
BRANCH   4   7
HETATM    7  C   UNL     1     -41.029 -53.879  15.296  1.00  0.00     0.072 A 
HETATM    8  C   UNL     1     -40.632 -54.846  16.228  1.00  0.00     0.049 A 
HETATM    9  C   UNL     1     -39.425 -55.500  16.044  1.00  0.00     0.090 A 
HETATM   10  N   UNL     1     -38.595 -55.260  15.007  1.00  0.00    -0.373 N 
HETATM   11  C   UNL     1     -38.987 -54.318  14.115  1.00  0.00     0.126 A 
ATOM     12  HN  UNL     1     -37.714 -55.764  14.900  1.00  0.00     0.164 HD
HETATM   13  C   UNL     1     -40.166 -53.593  14.230  1.00  0.00     0.144 A 
BRANCH  13  14
HETATM   14  N   UNL     1     -40.482 -52.612  13.202  1.00  0.00    -0.112 N 
HETATM   15  O   UNL     1     -40.661 -51.435  13.556  1.00  0.00    -0.532 OA
HETATM   16  O   UNL     1     -40.541 -53.000  12.027  1.00  0.00    -0.532 OA
ENDBRANCH  13  14
ENDBRANCH   4   7
BRANCH   1  17
HETATM   17  C   UNL     1     -45.837 -53.165  14.421  1.00  0.00     0.031 C 
HETATM   18  C   UNL     1     -46.457 -54.500  14.805  1.00  0.00     0.038 C 
HETATM   19  C   UNL     1     -46.803 -51.965  14.613  1.00  0.00     0.031 C 
HETATM   20  C   UNL     1     -46.410 -51.448  13.222  1.00  0.00     0.005 C 
HETATM   21  C   UNL     1     -45.814 -52.829  12.905  1.00  0.00     0.031 C 
ENDBRANCH   1  17
TORSDOF 3
ENDMDL
MODEL 5
REMARK VINA RESULT:      -5.4      2.380      6.117
REMARK  3 active torsions:
REMARK  status: ('A' for Active; 'I' for Inactive)
REMARK    1  A    between atoms: C_2  and  N_6 
REMARK       I    between atoms: N_6  and  C_7 
REMARK       I    between atoms: C_7  and  N_9 
REMARK    2  A    between atoms: N_9  and  C_10 
REMARK    3  A    between atoms: C_16  and  N_17 
ROOT
HETATM    1  N   UNL     1     -41.482 -51.188  11.556  1.00  0.00    -0.334 N 
HETATM    2  C   UNL     1     -41.612 -49.837  11.786  1.00  0.00     0.321 C 
HETATM    3  O   UNL     1     -42.080 -49.365  12.812  1.00  0.00    -0.247 OA
HETATM    4  N   UNL     1     -41.102 -49.089  10.742  1.00  0.00    -0.306 N 
HETATM    5  H   UNL     1     -41.353 -51.457  10.591  1.00  0.00     0.165 HD
HETATM    6  H   UNL     1     -40.250 -49.495  10.359  1.00  0.00     0.170 HD
ENDROOT
BRANCH   4   7
HETATM    7  C   UNL     1     -41.144 -47.667  10.784  1.00  0.00     0.072 A 
HETATM    8  C   UNL     1     -40.075 -46.973  11.363  1.00  0.00     0.049 A 
HETATM    9  C   UNL     1     -40.095 -45.589  11.369  1.00  0.00     0.090 A 
HETATM   10  N   UNL     1     -41.098 -44.854  10.843  1.00  0.00    -0.373 N 
HETATM   11  C   UNL     1     -42.131 -45.535  10.290  1.00  0.00     0.126 A 
ATOM     12  HN  UNL     1     -41.079 -43.834  10.859  1.00  0.00     0.164 HD
HETATM   13  C   UNL     1     -42.210 -46.922  10.262  1.00  0.00     0.144 A 
BRANCH  13  14
HETATM   14  N   UNL     1     -43.368 -47.539   9.632  1.00  0.00    -0.112 N 
HETATM   15  O   UNL     1     -44.418 -47.615  10.292  1.00  0.00    -0.532 OA
HETATM   16  O   UNL     1     -43.251 -47.942   8.467  1.00  0.00    -0.532 OA
ENDBRANCH  13  14
ENDBRANCH   4   7
BRANCH   1  17
HETATM   17  C   UNL     1     -41.836 -52.218  12.571  1.00  0.00     0.031 C 
HETATM   18  C   UNL     1     -43.327 -52.526  12.561  1.00  0.00     0.038 C 
HETATM   19  C   UNL     1     -40.950 -53.489  12.467  1.00  0.00     0.031 C 
HETATM   20  C   UNL     1     -40.082 -52.956  13.616  1.00  0.00     0.005 C 
HETATM   21  C   UNL     1     -41.199 -51.958  13.963  1.00  0.00     0.031 C 
ENDBRANCH   1  17
TORSDOF 3
ENDMDL
MODEL 6
REMARK VINA RESULT:      -5.4      3.108      3.944
REMARK  3 active torsions:
REMARK  status: ('A' for Active; 'I' for Inactive)
REMARK    1  A    between atoms: C_2  and  N_6 
REMARK       I    between atoms: N_6  and  C_7 
REMARK       I    between atoms: C_7  and  N_9 
REMARK    2  A    between atoms: N_9  and  C_10 
REMARK    3  A    between atoms: C_16  and  N_17 
ROOT
HETATM    1  N   UNL     1     -41.830 -50.015  11.423  1.00  0.00    -0.334 N 
HETATM    2  C   UNL     1     -42.354 -50.829  12.403  1.00  0.00     0.321 C 
HETATM    3  O   UNL     1     -42.735 -50.422  13.492  1.00  0.00    -0.247 OA
HETATM    4  N   UNL     1     -42.443 -52.143  11.983  1.00  0.00    -0.306 N 
HETATM    5  H   UNL     1     -41.303 -50.484  10.701  1.00  0.00     0.165 HD
HETATM    6  H   UNL     1     -42.727 -52.216  11.007  1.00  0.00     0.170 HD
ENDROOT
BRANCH   4   7
HETATM    7  C   UNL     1     -42.957 -53.146  12.853  1.00  0.00     0.072 A 
HETATM    8  C   UNL     1     -44.306 -53.504  12.753  1.00  0.00     0.049 A 
HETATM    9  C   UNL     1     -44.798 -54.508  13.570  1.00  0.00     0.090 A 
HETATM   10  N   UNL     1     -44.045 -55.173  14.471  1.00  0.00    -0.373 N 
HETATM   11  C   UNL     1     -42.741 -54.814  14.564  1.00  0.00     0.126 A 
ATOM     12  HN  UNL     1     -44.438 -55.912  15.055  1.00  0.00     0.164 HD
HETATM   13  C   UNL     1     -42.166 -53.803  13.805  1.00  0.00     0.144 A 
BRANCH  13  14
HETATM   14  N   UNL     1     -40.752 -53.515  13.989  1.00  0.00    -0.112 N 
HETATM   15  O   UNL     1     -40.335 -53.362  15.149  1.00  0.00    -0.532 OA
HETATM   16  O   UNL     1     -40.035 -53.451  12.981  1.00  0.00    -0.532 OA
ENDBRANCH  13  14
ENDBRANCH   4   7
BRANCH   1  17
HETATM   17  C   UNL     1     -41.739 -48.536  11.565  1.00  0.00     0.031 C 
HETATM   18  C   UNL     1     -40.496 -48.123  12.339  1.00  0.00     0.038 C 
HETATM   19  C   UNL     1     -41.890 -47.796  10.209  1.00  0.00     0.031 C 
HETATM   20  C   UNL     1     -43.365 -47.527  10.539  1.00  0.00     0.005 C 
HETATM   21  C   UNL     1     -43.074 -47.875  12.008  1.00  0.00     0.031 C 
ENDBRANCH   1  17
TORSDOF 3
ENDMDL
MODEL 7
REMARK VINA RESULT:      -5.3      3.374      4.842
REMARK  3 active torsions:
REMARK  status: ('A' for Active; 'I' for Inactive)
REMARK    1  A    between atoms: C_2  and  N_6 
REMARK       I    between atoms: N_6  and  C_7 
REMARK       I    between atoms: C_7  and  N_9 
REMARK    2  A    between atoms: N_9  and  C_10 
REMARK    3  A    between atoms: C_16  and  N_17 
ROOT
HETATM    1  N   UNL     1     -42.015 -50.046  11.481  1.00  0.00    -0.334 N 
HETATM    2  C   UNL     1     -42.315 -50.826  12.576  1.00  0.00     0.321 C 
HETATM    3  O   UNL     1     -42.353 -50.402  13.722  1.00  0.00    -0.247 OA
HETATM    4  N   UNL     1     -42.616 -52.125  12.211  1.00  0.00    -0.306 N 
HETATM    5  H   UNL     1     -41.741 -50.549  10.648  1.00  0.00     0.165 HD
HETATM    6  H   UNL     1     -43.160 -52.166  11.350  1.00  0.00     0.170 HD
ENDROOT
BRANCH   4   7
HETATM    7  C   UNL     1     -42.951 -53.093  13.200  1.00  0.00     0.072 A 
HETATM    8  C   UNL     1     -41.929 -53.859  13.774  1.00  0.00     0.049 A 
HETATM    9  C   UNL     1     -42.249 -54.773  14.764  1.00  0.00     0.090 A 
HETATM   10  N   UNL     1     -43.504 -54.974  15.218  1.00  0.00    -0.373 N 
HETATM   11  C   UNL     1     -44.486 -54.232  14.652  1.00  0.00     0.126 A 
ATOM     12  HN  UNL     1     -43.703 -55.653  15.954  1.00  0.00     0.164 HD
HETATM   13  C   UNL     1     -44.265 -53.311  13.635  1.00  0.00     0.144 A 
BRANCH  13  14
HETATM   14  N   UNL     1     -45.402 -52.568  13.112  1.00  0.00    -0.112 N 
HETATM   15  O   UNL     1     -45.851 -51.633  13.796  1.00  0.00    -0.532 OA
HETATM   16  O   UNL     1     -45.853 -52.896  12.007  1.00  0.00    -0.532 OA
ENDBRANCH  13  14
ENDBRANCH   4   7
BRANCH   1  17
HETATM   17  C   UNL     1     -41.773 -48.581  11.575  1.00  0.00     0.031 C 
HETATM   18  C   UNL     1     -40.402 -48.275  12.159  1.00  0.00     0.038 C 
HETATM   19  C   UNL     1     -42.046 -47.844  10.236  1.00  0.00     0.031 C 
HETATM   20  C   UNL     1     -43.430 -47.438  10.761  1.00  0.00     0.005 C 
HETATM   21  C   UNL     1     -42.969 -47.796  12.183  1.00  0.00     0.031 C 
ENDBRANCH   1  17
TORSDOF 3
ENDMDL
MODEL 8
REMARK VINA RESULT:      -5.3      2.947      5.201
REMARK  3 active torsions:
REMARK  status: ('A' for Active; 'I' for Inactive)
REMARK    1  A    between atoms: C_2  and  N_6 
REMARK       I    between atoms: N_6  and  C_7 
REMARK       I    between atoms: C_7  and  N_9 
REMARK    2  A    between atoms: N_9  and  C_10 
REMARK    3  A    between atoms: C_16  and  N_17 
ROOT
HETATM    1  N   UNL     1     -43.509 -52.327  12.554  1.00  0.00    -0.334 N 
HETATM    2  C   UNL     1     -42.846 -51.124  12.645  1.00  0.00     0.321 C 
HETATM    3  O   UNL     1     -43.073 -50.287  13.508  1.00  0.00    -0.247 OA
HETATM    4  N   UNL     1     -41.863 -51.007  11.680  1.00  0.00    -0.306 N 
HETATM    5  H   UNL     1     -43.440 -52.798  11.663  1.00  0.00     0.165 HD
HETATM    6  H   UNL     1     -41.373 -51.886  11.522  1.00  0.00     0.170 HD
ENDROOT
BRANCH   4   7
HETATM    7  C   UNL     1     -41.063 -49.832  11.603  1.00  0.00     0.072 A 
HETATM    8  C   UNL     1     -41.602 -48.683  11.012  1.00  0.00     0.049 A 
HETATM    9  C   UNL     1     -40.840 -47.527  10.972  1.00  0.00     0.090 A 
HETATM   10  N   UNL     1     -39.590 -47.438  11.475  1.00  0.00    -0.373 N 
HETATM   11  C   UNL     1     -39.077 -48.558  12.040  1.00  0.00     0.126 A 
ATOM     12  HN  UNL     1     -39.058 -46.569  11.434  1.00  0.00     0.164 HD
HETATM   13  C   UNL     1     -39.756 -49.768  12.103  1.00  0.00     0.144 A 
BRANCH  13  14
HETATM   14  N   UNL     1     -39.101 -50.900  12.742  1.00  0.00    -0.112 N 
HETATM   15  O   UNL     1     -38.045 -51.320  12.242  1.00  0.00    -0.532 OA
HETATM   16  O   UNL     1     -39.623 -51.375  13.760  1.00  0.00    -0.532 OA
ENDBRANCH  13  14
ENDBRANCH   4   7
BRANCH   1  17
HETATM   17  C   UNL     1     -44.530 -52.765  13.545  1.00  0.00     0.031 C 
HETATM   18  C   UNL     1     -45.740 -51.843  13.547  1.00  0.00     0.038 C 
HETATM   19  C   UNL     1     -44.904 -54.264  13.395  1.00  0.00     0.031 C 
HETATM   20  C   UNL     1     -43.945 -54.600  14.546  1.00  0.00     0.005 C 
HETATM   21  C   UNL     1     -43.930 -53.113  14.936  1.00  0.00     0.031 C 
ENDBRANCH   1  17
TORSDOF 3
ENDMDL
MODEL 9
REMARK VINA RESULT:      -5.2      3.049      5.437
REMARK  3 active torsions:
REMARK  status: ('A' for Active; 'I' for Inactive)
REMARK    1  A    between atoms: C_2  and  N_6 
REMARK       I    between atoms: N_6  and  C_7 
REMARK       I    between atoms: C_7  and  N_9 
REMARK    2  A    between atoms: N_9  and  C_10 
REMARK    3  A    between atoms: C_16  and  N_17 
ROOT
HETATM    1  N   UNL     1     -43.853 -52.477  12.537  1.00  0.00    -0.334 N 
HETATM    2  C   UNL     1     -42.839 -51.602  12.858  1.00  0.00     0.321 C 
HETATM    3  O   UNL     1     -42.706 -51.092  13.961  1.00  0.00    -0.247 OA
HETATM    4  N   UNL     1     -41.968 -51.418  11.801  1.00  0.00    -0.306 N 
HETATM    5  H   UNL     1     -44.022 -52.606  11.549  1.00  0.00     0.165 HD
HETATM    6  H   UNL     1     -41.797 -52.282  11.288  1.00  0.00     0.170 HD
ENDROOT
BRANCH   4   7
HETATM    7  C   UNL     1     -40.851 -50.545  11.929  1.00  0.00     0.072 A 
HETATM    8  C   UNL     1     -39.644 -51.056  12.422  1.00  0.00     0.049 A 
HETATM    9  C   UNL     1     -38.545 -50.218  12.510  1.00  0.00     0.090 A 
HETATM   10  N   UNL     1     -38.564 -48.919  12.142  1.00  0.00    -0.373 N 
HETATM   11  C   UNL     1     -39.739 -48.434  11.672  1.00  0.00     0.126 A 
ATOM     12  HN  UNL     1     -37.734 -48.331  12.215  1.00  0.00     0.164 HD
HETATM   13  C   UNL     1     -40.899 -49.191  11.573  1.00  0.00     0.144 A 
BRANCH  13  14
HETATM   14  N   UNL     1     -42.098 -48.558  11.043  1.00  0.00    -0.112 N 
HETATM   15  O   UNL     1     -43.074 -48.433  11.802  1.00  0.00    -0.532 OA
HETATM   16  O   UNL     1     -42.078 -48.165   9.869  1.00  0.00    -0.532 OA
ENDBRANCH  13  14
ENDBRANCH   4   7
BRANCH   1  17
HETATM   17  C   UNL     1     -44.858 -52.948  13.529  1.00  0.00     0.031 C 
HETATM   18  C   UNL     1     -46.046 -52.002  13.615  1.00  0.00     0.038 C 
HETATM   19  C   UNL     1     -45.270 -54.428  13.304  1.00  0.00     0.031 C 
HETATM   20  C   UNL     1     -44.290 -54.850  14.408  1.00  0.00     0.005 C 
HETATM   21  C   UNL     1     -44.231 -53.388  14.881  1.00  0.00     0.031 C 
ENDBRANCH   1  17
TORSDOF 3
ENDMDL
