MODEL 1
REMARK VINA RESULT:      -6.3      0.000      0.000
REMARK  4 active torsions:
REMARK  status: ('A' for Active; 'I' for Inactive)
REMARK    1  A    between atoms: O_2  and  C_3 
REMARK    2  A    between atoms: C_9  and  N_10 
REMARK       I    between atoms: N_10  and  C_11 
REMARK       I    between atoms: C_11  and  N_13 
REMARK    3  A    between atoms: N_13  and  C_14 
REMARK    4  A    between atoms: C_14  and  C_15 
REMARK       I    between atoms: C_15  and  N_17 
ROOT
HETATM    1  N   UNL     1     -41.638 -49.660  10.972  1.00  0.00    -0.305 N 
HETATM    2  C   UNL     1     -42.082 -50.299  12.106  1.00  0.00     0.321 C 
HETATM    3  O   UNL     1     -42.410 -49.742  13.151  1.00  0.00    -0.247 OA
HETATM    4  N   UNL     1     -42.110 -51.666  12.015  1.00  0.00    -0.334 N 
HETATM    5  H   UNL     1     -41.643 -50.167  10.095  1.00  0.00     0.171 HD
HETATM    6  H   UNL     1     -42.077 -52.144  11.126  1.00  0.00     0.164 HD
ENDROOT
BRANCH   1   7
HETATM    7  C   UNL     1     -41.316 -48.275  10.889  1.00  0.00     0.087 A 
HETATM    8  C   UNL     1     -42.095 -47.386  10.140  1.00  0.00     0.169 A 
HETATM    9  N   UNL     1     -41.795 -46.073   9.957  1.00  0.00    -0.345 N 
HETATM   10  C   UNL     1     -40.704 -45.599  10.590  1.00  0.00     0.090 A 
ATOM     11  HN  UNL     1     -42.370 -45.473   9.367  1.00  0.00     0.167 HD
HETATM   12  C   UNL     1     -39.895 -46.372  11.395  1.00  0.00     0.019 A 
HETATM   13  C   UNL     1     -40.203 -47.728  11.532  1.00  0.00     0.035 A 
BRANCH   8  14
HETATM   14  O   UNL     1     -43.275 -47.854   9.583  1.00  0.00    -0.339 OA
HETATM   15  C   UNL     1     -43.541 -47.190   8.342  1.00  0.00     0.211 C 
ENDBRANCH   8  14
ENDBRANCH   1   7
BRANCH   4  16
HETATM   16  C   UNL     1     -42.597 -52.404  13.171  1.00  0.00     0.227 C 
BRANCH  16  17
HETATM   17  C   UNL     1     -44.050 -52.868  13.079  1.00  0.00     0.237 C 
HETATM   18  O   UNL     1     -44.442 -53.553  12.130  1.00  0.00    -0.272 OA
HETATM   19  N   UNL     1     -44.887 -52.439  14.091  1.00  0.00    -0.351 N 
HETATM   20  C   UNL     1     -44.528 -51.618  15.240  1.00  0.00     0.126 C 
HETATM   21  C   UNL     1     -46.310 -52.708  14.088  1.00  0.00     0.126 C 
HETATM   22  C   UNL     1     -45.852 -51.082  15.785  1.00  0.00     0.021 C 
HETATM   23  C   UNL     1     -46.890 -51.459  14.731  1.00  0.00     0.021 C 
ENDBRANCH  16  17
ENDBRANCH   4  16
TORSDOF 4
ENDMDL
MODEL 2
REMARK VINA RESULT:      -6.1      1.826      2.543
REMARK  4 active torsions:
REMARK  status: ('A' for Active; 'I' for Inactive)
REMARK    1  A    between atoms: O_2  and  C_3 
REMARK    2  A    between atoms: C_9  and  N_10 
REMARK       I    between atoms: N_10  and  C_11 
REMARK       I    between atoms: C_11  and  N_13 
REMARK    3  A    between atoms: N_13  and  C_14 
REMARK    4  A    between atoms: C_14  and  C_15 
REMARK       I    between atoms: C_15  and  N_17 
ROOT
HETATM    1  N   UNL     1     -41.441 -51.513  11.431  1.00  0.00    -0.305 N 
HETATM    2  C   UNL     1     -42.250 -52.129  12.357  1.00  0.00     0.321 C 
HETATM    3  O   UNL     1     -42.246 -51.901  13.564  1.00  0.00    -0.247 OA
HETATM    4  N   UNL     1     -43.083 -53.085  11.838  1.00  0.00    -0.334 N 
HETATM    5  H   UNL     1     -41.692 -51.571  10.451  1.00  0.00     0.171 HD
HETATM    6  H   UNL     1     -43.285 -53.140  10.850  1.00  0.00     0.164 HD
ENDROOT
BRANCH   1   7
HETATM    7  C   UNL     1     -40.351 -50.651  11.745  1.00  0.00     0.087 A 
HETATM    8  C   UNL     1     -40.342 -49.309  11.350  1.00  0.00     0.169 A 
HETATM    9  N   UNL     1     -39.300 -48.460  11.549  1.00  0.00    -0.345 N 
HETATM   10  C   UNL     1     -38.236 -48.941  12.221  1.00  0.00     0.090 A 
ATOM     11  HN  UNL     1     -39.322 -47.500  11.205  1.00  0.00     0.167 HD
HETATM   12  C   UNL     1     -38.159 -50.231  12.702  1.00  0.00     0.019 A 
HETATM   13  C   UNL     1     -39.228 -51.094  12.447  1.00  0.00     0.035 A 
BRANCH   8  14
HETATM   14  O   UNL     1     -41.484 -48.789  10.759  1.00  0.00    -0.339 OA
HETATM   15  C   UNL     1     -41.394 -47.363  10.666  1.00  0.00     0.211 C 
ENDBRANCH   8  14
ENDBRANCH   1   7
BRANCH   4  16
HETATM   16  C   UNL     1     -43.987 -53.758  12.759  1.00  0.00     0.227 C 
BRANCH  16  17
HETATM   17  C   UNL     1     -45.347 -53.086  12.939  1.00  0.00     0.237 C 
HETATM   18  O   UNL     1     -46.050 -52.798  11.967  1.00  0.00    -0.272 OA
HETATM   19  N   UNL     1     -45.709 -52.790  14.240  1.00  0.00    -0.351 N 
HETATM   20  C   UNL     1     -44.946 -53.072  15.450  1.00  0.00     0.126 C 
HETATM   21  C   UNL     1     -46.917 -52.061  14.563  1.00  0.00     0.126 C 
HETATM   22  C   UNL     1     -45.557 -52.179  16.530  1.00  0.00     0.021 C 
HETATM   23  C   UNL     1     -46.505 -51.247  15.778  1.00  0.00     0.021 C 
ENDBRANCH  16  17
ENDBRANCH   4  16
TORSDOF 4
ENDMDL
MODEL 3
REMARK VINA RESULT:      -5.9      1.739      7.199
REMARK  4 active torsions:
REMARK  status: ('A' for Active; 'I' for Inactive)
REMARK    1  A    between atoms: O_2  and  C_3 
REMARK    2  A    between atoms: C_9  and  N_10 
REMARK       I    between atoms: N_10  and  C_11 
REMARK       I    between atoms: C_11  and  N_13 
REMARK    3  A    between atoms: N_13  and  C_14 
REMARK    4  A    between atoms: C_14  and  C_15 
REMARK       I    between atoms: C_15  and  N_17 
ROOT
HETATM    1  N   UNL     1     -42.596 -52.406  11.959  1.00  0.00    -0.305 N 
HETATM    2  C   UNL     1     -42.038 -51.213  12.358  1.00  0.00     0.321 C 
HETATM    3  O   UNL     1     -41.882 -50.860  13.523  1.00  0.00    -0.247 OA
HETATM    4  N   UNL     1     -41.677 -50.382  11.330  1.00  0.00    -0.334 N 
HETATM    5  H   UNL     1     -42.447 -52.718  11.007  1.00  0.00     0.171 HD
HETATM    6  H   UNL     1     -41.570 -50.717  10.382  1.00  0.00     0.164 HD
ENDROOT
BRANCH   1   7
HETATM    7  C   UNL     1     -43.243 -53.334  12.824  1.00  0.00     0.087 A 
HETATM    8  C   UNL     1     -44.636 -53.472  12.841  1.00  0.00     0.169 A 
HETATM    9  N   UNL     1     -45.314 -54.279  13.697  1.00  0.00    -0.345 N 
HETATM   10  C   UNL     1     -44.582 -55.031  14.542  1.00  0.00     0.090 A 
ATOM     11  HN  UNL     1     -46.333 -54.315  13.701  1.00  0.00     0.167 HD
HETATM   12  C   UNL     1     -43.204 -55.015  14.576  1.00  0.00     0.019 A 
HETATM   13  C   UNL     1     -42.533 -54.145  13.712  1.00  0.00     0.035 A 
BRANCH   8  14
HETATM   14  O   UNL     1     -45.376 -52.779  11.895  1.00  0.00    -0.339 OA
HETATM   15  C   UNL     1     -46.426 -52.038  12.527  1.00  0.00     0.211 C 
ENDBRANCH   8  14
ENDBRANCH   1   7
BRANCH   4  16
HETATM   16  C   UNL     1     -41.054 -49.115  11.681  1.00  0.00     0.227 C 
BRANCH  16  17
HETATM   17  C   UNL     1     -41.466 -47.928  10.812  1.00  0.00     0.237 C 
HETATM   18  O   UNL     1     -42.150 -48.087   9.797  1.00  0.00    -0.272 OA
HETATM   19  N   UNL     1     -40.994 -46.692  11.211  1.00  0.00    -0.351 N 
HETATM   20  C   UNL     1     -40.170 -46.402  12.378  1.00  0.00     0.126 C 
HETATM   21  C   UNL     1     -41.211 -45.490  10.435  1.00  0.00     0.126 C 
HETATM   22  C   UNL     1     -39.579 -45.015  12.122  1.00  0.00     0.021 C 
HETATM   23  C   UNL     1     -39.934 -44.701  10.670  1.00  0.00     0.021 C 
ENDBRANCH  16  17
ENDBRANCH   4  16
TORSDOF 4
ENDMDL
MODEL 4
REMARK VINA RESULT:      -5.9      2.148      7.381
REMARK  4 active torsions:
REMARK  status: ('A' for Active; 'I' for Inactive)
REMARK    1  A    between atoms: O_2  and  C_3 
REMARK    2  A    between atoms: C_9  and  N_10 
REMARK       I    between atoms: N_10  and  C_11 
REMARK       I    between atoms: C_11  and  N_13 
REMARK    3  A    between atoms: N_13  and  C_14 
REMARK    4  A    between atoms: C_14  and  C_15 
REMARK       I    between atoms: C_15  and  N_17 
ROOT
HETATM    1  N   UNL     1     -42.004 -52.456  11.803  1.00  0.00    -0.305 N 
HETATM    2  C   UNL     1     -41.545 -51.194  12.102  1.00  0.00     0.321 C 
HETATM    3  O   UNL     1     -41.701 -50.620  13.176  1.00  0.00    -0.247 OA
HETATM    4  N   UNL     1     -40.898 -50.565  11.071  1.00  0.00    -0.334 N 
HETATM    5  H   UNL     1     -41.610 -52.940  11.006  1.00  0.00     0.171 HD
HETATM    6  H   UNL     1     -40.548 -51.071  10.270  1.00  0.00     0.164 HD
ENDROOT
BRANCH   1   7
HETATM    7  C   UNL     1     -42.883 -53.219  12.623  1.00  0.00     0.087 A 
HETATM    8  C   UNL     1     -42.400 -54.064  13.628  1.00  0.00     0.169 A 
HETATM    9  N   UNL     1     -43.181 -54.875  14.387  1.00  0.00    -0.345 N 
HETATM   10  C   UNL     1     -44.511 -54.811  14.185  1.00  0.00     0.090 A 
ATOM     11  HN  UNL     1     -42.779 -55.506  15.081  1.00  0.00     0.167 HD
HETATM   12  C   UNL     1     -45.101 -53.978  13.259  1.00  0.00     0.019 A 
HETATM   13  C   UNL     1     -44.271 -53.184  12.463  1.00  0.00     0.035 A 
BRANCH   8  14
HETATM   14  O   UNL     1     -41.042 -54.042  13.908  1.00  0.00    -0.339 OA
HETATM   15  C   UNL     1     -40.805 -53.447  15.189  1.00  0.00     0.211 C 
ENDBRANCH   8  14
ENDBRANCH   1   7
BRANCH   4  16
HETATM   16  C   UNL     1     -40.362 -49.236  11.328  1.00  0.00     0.227 C 
BRANCH  16  17
HETATM   17  C   UNL     1     -41.191 -48.083  10.763  1.00  0.00     0.237 C 
HETATM   18  O   UNL     1     -42.061 -48.280   9.911  1.00  0.00    -0.272 OA
HETATM   19  N   UNL     1     -40.876 -46.823  11.235  1.00  0.00    -0.351 N 
HETATM   20  C   UNL     1     -39.860 -46.484  12.224  1.00  0.00     0.126 C 
HETATM   21  C   UNL     1     -41.499 -45.623  10.720  1.00  0.00     0.126 C 
HETATM   22  C   UNL     1     -39.622 -44.983  12.061  1.00  0.00     0.021 C 
HETATM   23  C   UNL     1     -40.375 -44.603  10.788  1.00  0.00     0.021 C 
ENDBRANCH  16  17
ENDBRANCH   4  16
TORSDOF 4
ENDMDL
MODEL 5
REMARK VINA RESULT:      -5.9      2.047      2.904
REMARK  4 active torsions:
REMARK  status: ('A' for Active; 'I' for Inactive)
REMARK    1  A    between atoms: O_2  and  C_3 
REMARK    2  A    between atoms: C_9  and  N_10 
REMARK       I    between atoms: N_10  and  C_11 
REMARK       I    between atoms: C_11  and  N_13 
REMARK    3  A    between atoms: N_13  and  C_14 
REMARK    4  A    between atoms: C_14  and  C_15 
REMARK       I    between atoms: C_15  and  N_17 
ROOT
HETATM    1  N   UNL     1     -41.361 -51.286  11.416  1.00  0.00    -0.305 N 
HETATM    2  C   UNL     1     -41.971 -51.833  12.522  1.00  0.00     0.321 C 
HETATM    3  O   UNL     1     -42.222 -51.231  13.562  1.00  0.00    -0.247 OA
HETATM    4  N   UNL     1     -42.272 -53.164  12.405  1.00  0.00    -0.334 N 
HETATM    5  H   UNL     1     -41.433 -51.773  10.531  1.00  0.00     0.171 HD
HETATM    6  H   UNL     1     -42.300 -53.631  11.509  1.00  0.00     0.164 HD
ENDROOT
BRANCH   1   7
HETATM    7  C   UNL     1     -40.762 -49.995  11.370  1.00  0.00     0.087 A 
HETATM    8  C   UNL     1     -39.406 -49.805  11.663  1.00  0.00     0.169 A 
HETATM    9  N   UNL     1     -38.797 -48.592  11.714  1.00  0.00    -0.345 N 
HETATM   10  C   UNL     1     -39.547 -47.515  11.407  1.00  0.00     0.090 A 
ATOM     11  HN  UNL     1     -37.815 -48.500  11.973  1.00  0.00     0.167 HD
HETATM   12  C   UNL     1     -40.877 -47.590  11.054  1.00  0.00     0.019 A 
HETATM   13  C   UNL     1     -41.489 -48.846  11.049  1.00  0.00     0.035 A 
BRANCH   8  14
HETATM   14  O   UNL     1     -38.615 -50.926  11.867  1.00  0.00    -0.339 OA
HETATM   15  C   UNL     1     -38.139 -50.961  13.218  1.00  0.00     0.211 C 
ENDBRANCH   8  14
ENDBRANCH   1   7
BRANCH   4  16
HETATM   16  C   UNL     1     -42.945 -53.800  13.528  1.00  0.00     0.227 C 
BRANCH  16  17
HETATM   17  C   UNL     1     -44.467 -53.868  13.417  1.00  0.00     0.237 C 
HETATM   18  O   UNL     1     -45.014 -54.561  12.554  1.00  0.00    -0.272 OA
HETATM   19  N   UNL     1     -45.175 -53.082  14.306  1.00  0.00    -0.351 N 
HETATM   20  C   UNL     1     -44.626 -52.219  15.346  1.00  0.00     0.126 C 
HETATM   21  C   UNL     1     -46.616 -52.959  14.257  1.00  0.00     0.126 C 
HETATM   22  C   UNL     1     -45.764 -51.273  15.729  1.00  0.00     0.021 C 
HETATM   23  C   UNL     1     -46.847 -51.517  14.680  1.00  0.00     0.021 C 
ENDBRANCH  16  17
ENDBRANCH   4  16
TORSDOF 4
ENDMDL
MODEL 6
REMARK VINA RESULT:      -5.8      2.821      7.129
REMARK  4 active torsions:
REMARK  status: ('A' for Active; 'I' for Inactive)
REMARK    1  A    between atoms: O_2  and  C_3 
REMARK    2  A    between atoms: C_9  and  N_10 
REMARK       I    between atoms: N_10  and  C_11 
REMARK       I    between atoms: C_11  and  N_13 
REMARK    3  A    between atoms: N_13  and  C_14 
REMARK    4  A    between atoms: C_14  and  C_15 
REMARK       I    between atoms: C_15  and  N_17 
ROOT
HETATM    1  N   UNL     1     -43.986 -52.632  12.267  1.00  0.00    -0.305 N 
HETATM    2  C   UNL     1     -42.698 -52.269  12.588  1.00  0.00     0.321 C 
HETATM    3  O   UNL     1     -42.290 -52.034  13.722  1.00  0.00    -0.247 OA
HETATM    4  N   UNL     1     -41.858 -52.144  11.512  1.00  0.00    -0.334 N 
HETATM    5  H   UNL     1     -44.161 -53.052  11.362  1.00  0.00     0.171 HD
HETATM    6  H   UNL     1     -42.078 -52.544  10.611  1.00  0.00     0.164 HD
ENDROOT
BRANCH   1   7
HETATM    7  C   UNL     1     -45.087 -52.616  13.170  1.00  0.00     0.087 A 
HETATM    8  C   UNL     1     -45.579 -53.793  13.746  1.00  0.00     0.169 A 
HETATM    9  N   UNL     1     -46.672 -53.852  14.550  1.00  0.00    -0.345 N 
HETATM   10  C   UNL     1     -47.279 -52.687  14.848  1.00  0.00     0.090 A 
ATOM     11  HN  UNL     1     -47.019 -54.740  14.913  1.00  0.00     0.167 HD
HETATM   12  C   UNL     1     -46.850 -51.464  14.380  1.00  0.00     0.019 A 
HETATM   13  C   UNL     1     -45.748 -51.436  13.521  1.00  0.00     0.035 A 
BRANCH   8  14
HETATM   14  O   UNL     1     -44.883 -54.972  13.527  1.00  0.00    -0.339 OA
HETATM   15  C   UNL     1     -43.968 -55.220  14.601  1.00  0.00     0.211 C 
ENDBRANCH   8  14
ENDBRANCH   1   7
BRANCH   4  16
HETATM   16  C   UNL     1     -40.473 -51.789  11.782  1.00  0.00     0.227 C 
BRANCH  16  17
HETATM   17  C   UNL     1     -40.185 -50.289  11.824  1.00  0.00     0.237 C 
HETATM   18  O   UNL     1     -40.540 -49.545  10.906  1.00  0.00    -0.272 OA
HETATM   19  N   UNL     1     -39.475 -49.839  12.921  1.00  0.00    -0.351 N 
HETATM   20  C   UNL     1     -38.997 -50.635  14.045  1.00  0.00     0.126 C 
HETATM   21  C   UNL     1     -39.036 -48.466  13.052  1.00  0.00     0.126 C 
HETATM   22  C   UNL     1     -37.933 -49.775  14.726  1.00  0.00     0.021 C 
HETATM   23  C   UNL     1     -37.704 -48.605  13.772  1.00  0.00     0.021 C 
ENDBRANCH  16  17
ENDBRANCH   4  16
TORSDOF 4
ENDMDL
MODEL 7
REMARK VINA RESULT:      -5.7      3.193      4.074
REMARK  4 active torsions:
REMARK  status: ('A' for Active; 'I' for Inactive)
REMARK    1  A    between atoms: O_2  and  C_3 
REMARK    2  A    between atoms: C_9  and  N_10 
REMARK       I    between atoms: N_10  and  C_11 
REMARK       I    between atoms: C_11  and  N_13 
REMARK    3  A    between atoms: N_13  and  C_14 
REMARK    4  A    between atoms: C_14  and  C_15 
REMARK       I    between atoms: C_15  and  N_17 
ROOT
HETATM    1  N   UNL     1     -40.998 -47.397  10.404  1.00  0.00    -0.305 N 
HETATM    2  C   UNL     1     -41.227 -48.490  11.208  1.00  0.00     0.321 C 
HETATM    3  O   UNL     1     -41.879 -48.480  12.249  1.00  0.00    -0.247 OA
HETATM    4  N   UNL     1     -40.629 -49.647  10.781  1.00  0.00    -0.334 N 
HETATM    5  H   UNL     1     -40.682 -47.551   9.454  1.00  0.00     0.171 HD
HETATM    6  H   UNL     1     -40.290 -49.756   9.835  1.00  0.00     0.164 HD
ENDROOT
BRANCH   1   7
HETATM    7  C   UNL     1     -41.325 -46.053  10.742  1.00  0.00     0.087 A 
HETATM    8  C   UNL     1     -42.605 -45.532  10.520  1.00  0.00     0.169 A 
HETATM    9  N   UNL     1     -42.954 -44.239  10.746  1.00  0.00    -0.345 N 
HETATM   10  C   UNL     1     -42.012 -43.432  11.271  1.00  0.00     0.090 A 
ATOM     11  HN  UNL     1     -43.889 -43.895  10.529  1.00  0.00     0.167 HD
HETATM   12  C   UNL     1     -40.736 -43.851  11.579  1.00  0.00     0.019 A 
HETATM   13  C   UNL     1     -40.391 -45.175  11.298  1.00  0.00     0.035 A 
BRANCH   8  14
HETATM   14  O   UNL     1     -43.599 -46.396  10.086  1.00  0.00    -0.339 OA
HETATM   15  C   UNL     1     -43.893 -46.164   8.703  1.00  0.00     0.211 C 
ENDBRANCH   8  14
ENDBRANCH   1   7
BRANCH   4  16
HETATM   16  C   UNL     1     -40.852 -50.848  11.570  1.00  0.00     0.227 C 
BRANCH  16  17
HETATM   17  C   UNL     1     -39.698 -51.244  12.489  1.00  0.00     0.237 C 
HETATM   18  O   UNL     1     -38.603 -50.679  12.418  1.00  0.00    -0.272 OA
HETATM   19  N   UNL     1     -39.947 -52.287  13.361  1.00  0.00    -0.351 N 
HETATM   20  C   UNL     1     -41.194 -53.028  13.510  1.00  0.00     0.126 C 
HETATM   21  C   UNL     1     -38.924 -52.844  14.219  1.00  0.00     0.126 C 
HETATM   22  C   UNL     1     -40.817 -54.309  14.253  1.00  0.00     0.021 C 
HETATM   23  C   UNL     1     -39.290 -54.318  14.268  1.00  0.00     0.021 C 
ENDBRANCH  16  17
ENDBRANCH   4  16
TORSDOF 4
ENDMDL
MODEL 8
REMARK VINA RESULT:      -5.6      2.242      2.758
REMARK  4 active torsions:
REMARK  status: ('A' for Active; 'I' for Inactive)
REMARK    1  A    between atoms: O_2  and  C_3 
REMARK    2  A    between atoms: C_9  and  N_10 
REMARK       I    between atoms: N_10  and  C_11 
REMARK       I    between atoms: C_11  and  N_13 
REMARK    3  A    between atoms: N_13  and  C_14 
REMARK    4  A    between atoms: C_14  and  C_15 
REMARK       I    between atoms: C_15  and  N_17 
ROOT
HETATM    1  N   UNL     1     -40.396 -48.934  11.031  1.00  0.00    -0.305 N 
HETATM    2  C   UNL     1     -41.158 -49.945  11.570  1.00  0.00     0.321 C 
HETATM    3  O   UNL     1     -42.176 -49.786  12.237  1.00  0.00    -0.247 OA
HETATM    4  N   UNL     1     -40.675 -51.207  11.339  1.00  0.00    -0.334 N 
HETATM    5  H   UNL     1     -39.740 -49.161  10.294  1.00  0.00     0.171 HD
HETATM    6  H   UNL     1     -39.993 -51.395  10.618  1.00  0.00     0.164 HD
ENDROOT
BRANCH   1   7
HETATM    7  C   UNL     1     -40.564 -47.548  11.312  1.00  0.00     0.087 A 
HETATM    8  C   UNL     1     -41.492 -46.767  10.614  1.00  0.00     0.169 A 
HETATM    9  N   UNL     1     -41.642 -45.427  10.780  1.00  0.00    -0.345 N 
HETATM   10  C   UNL     1     -40.880 -44.836  11.720  1.00  0.00     0.090 A 
ATOM     11  HN  UNL     1     -42.304 -44.892  10.217  1.00  0.00     0.167 HD
HETATM   12  C   UNL     1     -39.971 -45.516  12.502  1.00  0.00     0.019 A 
HETATM   13  C   UNL     1     -39.807 -46.886  12.282  1.00  0.00     0.035 A 
BRANCH   8  14
HETATM   14  O   UNL     1     -42.351 -47.401   9.729  1.00  0.00    -0.339 OA
HETATM   15  C   UNL     1     -43.368 -46.495   9.284  1.00  0.00     0.211 C 
ENDBRANCH   8  14
ENDBRANCH   1   7
BRANCH   4  16
HETATM   16  C   UNL     1     -41.448 -52.325  11.858  1.00  0.00     0.227 C 
BRANCH  16  17
HETATM   17  C   UNL     1     -40.863 -52.996  13.100  1.00  0.00     0.237 C 
HETATM   18  O   UNL     1     -39.643 -53.103  13.253  1.00  0.00    -0.272 OA
HETATM   19  N   UNL     1     -41.779 -53.500  14.004  1.00  0.00    -0.351 N 
HETATM   20  C   UNL     1     -43.232 -53.440  13.908  1.00  0.00     0.126 C 
HETATM   21  C   UNL     1     -41.381 -54.253  15.174  1.00  0.00     0.126 C 
HETATM   22  C   UNL     1     -43.746 -54.492  14.891  1.00  0.00     0.021 C 
HETATM   23  C   UNL     1     -42.504 -55.267  15.321  1.00  0.00     0.021 C 
ENDBRANCH  16  17
ENDBRANCH   4  16
TORSDOF 4
ENDMDL
MODEL 9
REMARK VINA RESULT:      -5.6      1.551      7.352
REMARK  4 active torsions:
REMARK  status: ('A' for Active; 'I' for Inactive)
REMARK    1  A    between atoms: O_2  and  C_3 
REMARK    2  A    between atoms: C_9  and  N_10 
REMARK       I    between atoms: N_10  and  C_11 
REMARK       I    between atoms: C_11  and  N_13 
REMARK    3  A    between atoms: N_13  and  C_14 
REMARK    4  A    between atoms: C_14  and  C_15 
REMARK       I    between atoms: C_15  and  N_17 
ROOT
HETATM    1  N   UNL     1     -43.536 -51.587  12.722  1.00  0.00    -0.305 N 
HETATM    2  C   UNL     1     -42.702 -50.494  12.777  1.00  0.00     0.321 C 
HETATM    3  O   UNL     1     -42.621 -49.712  13.720  1.00  0.00    -0.247 OA
HETATM    4  N   UNL     1     -41.951 -50.294  11.649  1.00  0.00    -0.334 N 
HETATM    5  H   UNL     1     -43.349 -52.306  12.034  1.00  0.00     0.171 HD
HETATM    6  H   UNL     1     -41.812 -51.022  10.961  1.00  0.00     0.164 HD
ENDROOT
BRANCH   1   7
HETATM    7  C   UNL     1     -44.560 -51.879  13.667  1.00  0.00     0.087 A 
HETATM    8  C   UNL     1     -44.360 -52.797  14.705  1.00  0.00     0.169 A 
HETATM    9  N   UNL     1     -45.321 -53.176  15.586  1.00  0.00    -0.345 N 
HETATM   10  C   UNL     1     -46.525 -52.580  15.477  1.00  0.00     0.090 A 
ATOM     11  HN  UNL     1     -45.140 -53.881  16.301  1.00  0.00     0.167 HD
HETATM   12  C   UNL     1     -46.817 -51.625  14.527  1.00  0.00     0.019 A 
HETATM   13  C   UNL     1     -45.823 -51.284  13.607  1.00  0.00     0.035 A 
BRANCH   8  14
HETATM   14  O   UNL     1     -43.089 -53.321  14.881  1.00  0.00    -0.339 OA
HETATM   15  C   UNL     1     -43.105 -54.742  14.696  1.00  0.00     0.211 C 
ENDBRANCH   8  14
ENDBRANCH   1   7
BRANCH   4  16
HETATM   16  C   UNL     1     -41.026 -49.171  11.649  1.00  0.00     0.227 C 
BRANCH  16  17
HETATM   17  C   UNL     1     -41.456 -47.977  10.798  1.00  0.00     0.237 C 
HETATM   18  O   UNL     1     -42.146 -48.131   9.786  1.00  0.00    -0.272 OA
HETATM   19  N   UNL     1     -40.991 -46.742  11.208  1.00  0.00    -0.351 N 
HETATM   20  C   UNL     1     -40.160 -46.458  12.371  1.00  0.00     0.126 C 
HETATM   21  C   UNL     1     -41.225 -45.533  10.448  1.00  0.00     0.126 C 
HETATM   22  C   UNL     1     -39.583 -45.064  12.126  1.00  0.00     0.021 C 
HETATM   23  C   UNL     1     -39.952 -44.735  10.682  1.00  0.00     0.021 C 
ENDBRANCH  16  17
ENDBRANCH   4  16
TORSDOF 4
ENDMDL
