MODEL 1
REMARK VINA RESULT:      -6.8      0.000      0.000
REMARK  3 active torsions:
REMARK  status: ('A' for Active; 'I' for Inactive)
REMARK    1  A    between atoms: C_4  and  N_5 
REMARK       I    between atoms: N_5  and  C_6 
REMARK       I    between atoms: C_6  and  N_8 
REMARK    2  A    between atoms: N_8  and  C_9 
REMARK    3  A    between atoms: N_13  and  S_15 
ROOT
HETATM    1  N   UNL     1     -42.432 -51.553  12.141  1.00  0.00    -0.308 N 
HETATM    2  C   UNL     1     -42.672 -50.253  12.542  1.00  0.00     0.321 C 
HETATM    3  O   UNL     1     -43.041 -49.909  13.656  1.00  0.00    -0.247 OA
HETATM    4  N   UNL     1     -42.474 -49.338  11.531  1.00  0.00    -0.337 N 
HETATM    5  H   UNL     1     -41.855 -51.663  11.320  1.00  0.00     0.170 HD
HETATM    6  H   UNL     1     -42.698 -49.716  10.620  1.00  0.00     0.164 HD
ENDROOT
BRANCH   1   7
HETATM    7  C   UNL     1     -42.683 -52.680  12.901  1.00  0.00     0.052 A 
HETATM    8  C   UNL     1     -43.877 -53.297  12.957  1.00  0.00     0.123 A 
HETATM    9  N   UNL     1     -44.105 -54.408  13.751  1.00  0.00    -0.327 N 
HETATM   10  C   UNL     1     -45.418 -55.027  13.757  1.00  0.00     0.159 C 
HETATM   11  C   UNL     1     -43.118 -54.952  14.566  1.00  0.00     0.247 A 
HETATM   12  C   UNL     1     -41.785 -54.294  14.484  1.00  0.00     0.077 A 
HETATM   13  O   UNL     1     -43.275 -55.916  15.310  1.00  0.00    -0.268 OA
HETATM   14  C   UNL     1     -41.593 -53.235  13.683  1.00  0.00     0.036 A 
ENDBRANCH   1   7
BRANCH   4  15
HETATM   15  C   UNL     1     -42.916 -47.950  11.755  1.00  0.00     0.100 C 
HETATM   16  C   UNL     1     -43.990 -47.564  10.746  1.00  0.00     0.028 C 
HETATM   17  C   UNL     1     -43.351 -47.348   9.386  1.00  0.00     0.018 C 
HETATM   18  C   UNL     1     -42.428 -46.146   9.451  1.00  0.00     0.107 C 
HETATM   19  N   UNL     1     -41.352 -46.303  10.475  1.00  0.00    -0.209 NA
HETATM   20  C   UNL     1     -41.788 -46.883  11.798  1.00  0.00     0.132 C 
BRANCH  19  21
HETATM   21  S   UNL     1     -40.512 -44.797  10.649  1.00  0.00     0.207 S 
HETATM   22  O   UNL     1     -39.519 -44.731   9.598  1.00  0.00    -0.212 OA
HETATM   23  O   UNL     1     -41.517 -43.761  10.780  1.00  0.00    -0.212 OA
HETATM   24  C   UNL     1     -39.665 -44.961  12.209  1.00  0.00     0.180 C 
ENDBRANCH  19  21
ENDBRANCH   4  15
TORSDOF 3
ENDMDL
MODEL 2
REMARK VINA RESULT:      -6.5      2.914      8.585
REMARK  3 active torsions:
REMARK  status: ('A' for Active; 'I' for Inactive)
REMARK    1  A    between atoms: C_4  and  N_5 
REMARK       I    between atoms: N_5  and  C_6 
REMARK       I    between atoms: C_6  and  N_8 
REMARK    2  A    between atoms: N_8  and  C_9 
REMARK    3  A    between atoms: N_13  and  S_15 
ROOT
HETATM    1  N   UNL     1     -41.969 -48.989  10.937  1.00  0.00    -0.308 N 
HETATM    2  C   UNL     1     -42.353 -49.606  12.112  1.00  0.00     0.321 C 
HETATM    3  O   UNL     1     -43.198 -49.189  12.891  1.00  0.00    -0.247 OA
HETATM    4  N   UNL     1     -41.658 -50.771  12.353  1.00  0.00    -0.337 N 
HETATM    5  H   UNL     1     -41.504 -49.575  10.261  1.00  0.00     0.170 HD
HETATM    6  H   UNL     1     -40.713 -50.736  11.997  1.00  0.00     0.164 HD
ENDROOT
BRANCH   1   7
HETATM    7  C   UNL     1     -42.395 -47.743  10.517  1.00  0.00     0.052 A 
HETATM    8  C   UNL     1     -42.027 -46.587  11.098  1.00  0.00     0.123 A 
HETATM    9  N   UNL     1     -42.494 -45.356  10.672  1.00  0.00    -0.327 N 
HETATM   10  C   UNL     1     -42.048 -44.149  11.343  1.00  0.00     0.159 C 
HETATM   11  C   UNL     1     -43.397 -45.229   9.622  1.00  0.00     0.247 A 
HETATM   12  C   UNL     1     -43.784 -46.501   8.953  1.00  0.00     0.077 A 
HETATM   13  O   UNL     1     -43.865 -44.166   9.224  1.00  0.00    -0.268 OA
HETATM   14  C   UNL     1     -43.291 -47.675   9.376  1.00  0.00     0.036 A 
ENDBRANCH   1   7
BRANCH   4  15
HETATM   15  C   UNL     1     -41.804 -51.404  13.677  1.00  0.00     0.100 C 
HETATM   16  C   UNL     1     -40.585 -52.263  13.992  1.00  0.00     0.028 C 
HETATM   17  C   UNL     1     -40.633 -53.533  13.162  1.00  0.00     0.018 C 
HETATM   18  C   UNL     1     -41.821 -54.370  13.596  1.00  0.00     0.107 C 
HETATM   19  N   UNL     1     -43.118 -53.644  13.450  1.00  0.00    -0.209 NA
HETATM   20  C   UNL     1     -43.115 -52.204  13.901  1.00  0.00     0.132 C 
BRANCH  19  21
HETATM   21  S   UNL     1     -44.375 -54.575  14.197  1.00  0.00     0.207 S 
HETATM   22  O   UNL     1     -45.343 -54.898  13.169  1.00  0.00    -0.212 OA
HETATM   23  O   UNL     1     -43.731 -55.626  14.959  1.00  0.00    -0.212 OA
HETATM   24  C   UNL     1     -45.130 -53.433  15.337  1.00  0.00     0.180 C 
ENDBRANCH  19  21
ENDBRANCH   4  15
TORSDOF 3
ENDMDL
MODEL 3
REMARK VINA RESULT:      -6.3      3.024      8.578
REMARK  3 active torsions:
REMARK  status: ('A' for Active; 'I' for Inactive)
REMARK    1  A    between atoms: C_4  and  N_5 
REMARK       I    between atoms: N_5  and  C_6 
REMARK       I    between atoms: C_6  and  N_8 
REMARK    2  A    between atoms: N_8  and  C_9 
REMARK    3  A    between atoms: N_13  and  S_15 
ROOT
HETATM    1  N   UNL     1     -41.882 -49.846  11.678  1.00  0.00    -0.308 N 
HETATM    2  C   UNL     1     -42.375 -50.203  12.918  1.00  0.00     0.321 C 
HETATM    3  O   UNL     1     -42.821 -49.432  13.756  1.00  0.00    -0.247 OA
HETATM    4  N   UNL     1     -42.298 -51.559  13.152  1.00  0.00    -0.337 N 
HETATM    5  H   UNL     1     -41.836 -50.584  10.991  1.00  0.00     0.170 HD
HETATM    6  H   UNL     1     -41.499 -51.983  12.700  1.00  0.00     0.164 HD
ENDROOT
BRANCH   1   7
HETATM    7  C   UNL     1     -41.707 -48.549  11.235  1.00  0.00     0.052 A 
HETATM    8  C   UNL     1     -42.596 -47.889  10.470  1.00  0.00     0.123 A 
HETATM    9  N   UNL     1     -42.378 -46.600  10.017  1.00  0.00    -0.327 N 
HETATM   10  C   UNL     1     -43.385 -45.948   9.200  1.00  0.00     0.159 C 
HETATM   11  C   UNL     1     -41.211 -45.900  10.306  1.00  0.00     0.247 A 
HETATM   12  C   UNL     1     -40.238 -46.611  11.180  1.00  0.00     0.077 A 
HETATM   13  O   UNL     1     -40.955 -44.768   9.906  1.00  0.00    -0.268 OA
HETATM   14  C   UNL     1     -40.494 -47.851  11.622  1.00  0.00     0.036 A 
ENDBRANCH   1   7
BRANCH   4  15
HETATM   15  C   UNL     1     -42.572 -52.045  14.516  1.00  0.00     0.100 C 
HETATM   16  C   UNL     1     -41.688 -53.242  14.843  1.00  0.00     0.028 C 
HETATM   17  C   UNL     1     -42.194 -54.463  14.095  1.00  0.00     0.018 C 
HETATM   18  C   UNL     1     -43.566 -54.838  14.621  1.00  0.00     0.107 C 
HETATM   19  N   UNL     1     -44.559 -53.732  14.475  1.00  0.00    -0.209 NA
HETATM   20  C   UNL     1     -44.060 -52.354  14.835  1.00  0.00     0.132 C 
BRANCH  19  21
HETATM   21  S   UNL     1     -46.011 -54.159  15.320  1.00  0.00     0.207 S 
HETATM   22  O   UNL     1     -46.673 -55.190  14.550  1.00  0.00    -0.212 OA
HETATM   23  O   UNL     1     -45.646 -54.392  16.703  1.00  0.00    -0.212 OA
HETATM   24  C   UNL     1     -47.000 -52.679  15.240  1.00  0.00     0.180 C 
ENDBRANCH  19  21
ENDBRANCH   4  15
TORSDOF 3
ENDMDL
MODEL 4
REMARK VINA RESULT:      -5.8      2.589      3.397
REMARK  3 active torsions:
REMARK  status: ('A' for Active; 'I' for Inactive)
REMARK    1  A    between atoms: C_4  and  N_5 
REMARK       I    between atoms: N_5  and  C_6 
REMARK       I    between atoms: C_6  and  N_8 
REMARK    2  A    between atoms: N_8  and  C_9 
REMARK    3  A    between atoms: N_13  and  S_15 
ROOT
HETATM    1  N   UNL     1     -40.905 -50.706  13.855  1.00  0.00    -0.308 N 
HETATM    2  C   UNL     1     -40.931 -50.265  12.546  1.00  0.00     0.321 C 
HETATM    3  O   UNL     1     -40.811 -50.972  11.556  1.00  0.00    -0.247 OA
HETATM    4  N   UNL     1     -41.090 -48.900  12.446  1.00  0.00    -0.337 N 
HETATM    5  H   UNL     1     -41.312 -50.085  14.539  1.00  0.00     0.170 HD
HETATM    6  H   UNL     1     -40.662 -48.405  13.217  1.00  0.00     0.164 HD
ENDROOT
BRANCH   1   7
HETATM    7  C   UNL     1     -40.621 -51.998  14.255  1.00  0.00     0.052 A 
HETATM    8  C   UNL     1     -41.551 -52.879  14.665  1.00  0.00     0.123 A 
HETATM    9  N   UNL     1     -41.231 -54.158  15.087  1.00  0.00    -0.327 N 
HETATM   10  C   UNL     1     -42.288 -55.058  15.510  1.00  0.00     0.159 C 
HETATM   11  C   UNL     1     -39.919 -54.616  15.136  1.00  0.00     0.247 A 
HETATM   12  C   UNL     1     -38.888 -53.658  14.652  1.00  0.00     0.077 A 
HETATM   13  O   UNL     1     -39.579 -55.728  15.529  1.00  0.00    -0.268 OA
HETATM   14  C   UNL     1     -39.237 -52.435  14.225  1.00  0.00     0.036 A 
ENDBRANCH   1   7
BRANCH   4  15
HETATM   15  C   UNL     1     -40.903 -48.275  11.125  1.00  0.00     0.100 C 
HETATM   16  C   UNL     1     -40.220 -46.921  11.269  1.00  0.00     0.028 C 
HETATM   17  C   UNL     1     -41.209 -45.912  11.824  1.00  0.00     0.018 C 
HETATM   18  C   UNL     1     -42.314 -45.684  10.810  1.00  0.00     0.107 C 
HETATM   19  N   UNL     1     -43.043 -46.941  10.463  1.00  0.00    -0.209 NA
HETATM   20  C   UNL     1     -42.179 -48.159  10.248  1.00  0.00     0.132 C 
BRANCH  19  21
HETATM   21  S   UNL     1     -44.105 -46.630   9.130  1.00  0.00     0.207 S 
HETATM   22  O   UNL     1     -45.416 -47.124   9.496  1.00  0.00    -0.212 OA
HETATM   23  O   UNL     1     -43.919 -45.244   8.751  1.00  0.00    -0.212 OA
HETATM   24  C   UNL     1     -43.463 -47.662   7.826  1.00  0.00     0.180 C 
ENDBRANCH  19  21
ENDBRANCH   4  15
TORSDOF 3
ENDMDL
MODEL 5
REMARK VINA RESULT:      -5.8      3.542      8.847
REMARK  3 active torsions:
REMARK  status: ('A' for Active; 'I' for Inactive)
REMARK    1  A    between atoms: C_4  and  N_5 
REMARK       I    between atoms: N_5  and  C_6 
REMARK       I    between atoms: C_6  and  N_8 
REMARK    2  A    between atoms: N_8  and  C_9 
REMARK    3  A    between atoms: N_13  and  S_15 
ROOT
HETATM    1  N   UNL     1     -41.410 -49.618  13.013  1.00  0.00    -0.308 N 
HETATM    2  C   UNL     1     -40.984 -50.881  12.649  1.00  0.00     0.321 C 
HETATM    3  O   UNL     1     -40.656 -51.224  11.523  1.00  0.00    -0.247 OA
HETATM    4  N   UNL     1     -40.981 -51.767  13.705  1.00  0.00    -0.337 N 
HETATM    5  H   UNL     1     -41.354 -49.398  13.996  1.00  0.00     0.170 HD
HETATM    6  H   UNL     1     -41.713 -51.570  14.374  1.00  0.00     0.164 HD
ENDROOT
BRANCH   1   7
HETATM    7  C   UNL     1     -41.644 -48.574  12.137  1.00  0.00     0.052 A 
HETATM    8  C   UNL     1     -40.709 -47.682  11.764  1.00  0.00     0.123 A 
HETATM    9  N   UNL     1     -40.982 -46.630  10.907  1.00  0.00    -0.327 N 
HETATM   10  C   UNL     1     -39.922 -45.709  10.542  1.00  0.00     0.159 C 
HETATM   11  C   UNL     1     -42.253 -46.409  10.387  1.00  0.00     0.247 A 
HETATM   12  C   UNL     1     -43.285 -47.411  10.769  1.00  0.00     0.077 A 
HETATM   13  O   UNL     1     -42.556 -45.476   9.649  1.00  0.00    -0.268 OA
HETATM   14  C   UNL     1     -42.978 -48.434  11.581  1.00  0.00     0.036 A 
ENDBRANCH   1   7
BRANCH   4  15
HETATM   15  C   UNL     1     -40.772 -53.196  13.411  1.00  0.00     0.100 C 
HETATM   16  C   UNL     1     -42.108 -53.926  13.346  1.00  0.00     0.028 C 
HETATM   17  C   UNL     1     -42.661 -54.095  14.750  1.00  0.00     0.018 C 
HETATM   18  C   UNL     1     -41.751 -55.017  15.539  1.00  0.00     0.107 C 
HETATM   19  N   UNL     1     -40.350 -54.505  15.625  1.00  0.00    -0.209 NA
HETATM   20  C   UNL     1     -39.782 -53.938  14.348  1.00  0.00     0.132 C 
BRANCH  19  21
HETATM   21  S   UNL     1     -39.342 -55.732  16.320  1.00  0.00     0.207 S 
HETATM   22  O   UNL     1     -40.178 -56.885  16.577  1.00  0.00    -0.212 OA
HETATM   23  O   UNL     1     -38.168 -55.846  15.479  1.00  0.00    -0.212 OA
HETATM   24  C   UNL     1     -38.849 -55.039  17.886  1.00  0.00     0.180 C 
ENDBRANCH  19  21
ENDBRANCH   4  15
TORSDOF 3
ENDMDL
MODEL 6
REMARK VINA RESULT:      -5.5      6.923     10.319
REMARK  3 active torsions:
REMARK  status: ('A' for Active; 'I' for Inactive)
REMARK    1  A    between atoms: C_4  and  N_5 
REMARK       I    between atoms: N_5  and  C_6 
REMARK       I    between atoms: C_6  and  N_8 
REMARK    2  A    between atoms: N_8  and  C_9 
REMARK    3  A    between atoms: N_13  and  S_15 
ROOT
HETATM    1  N   UNL     1     -39.618 -53.796  15.903  1.00  0.00    -0.308 N 
HETATM    2  C   UNL     1     -38.953 -54.892  16.416  1.00  0.00     0.321 C 
HETATM    3  O   UNL     1     -39.212 -56.062  16.169  1.00  0.00    -0.247 OA
HETATM    4  N   UNL     1     -37.942 -54.544  17.285  1.00  0.00    -0.337 N 
HETATM    5  H   UNL     1     -39.122 -52.918  15.944  1.00  0.00     0.170 HD
HETATM    6  H   UNL     1     -38.150 -53.698  17.798  1.00  0.00     0.164 HD
ENDROOT
BRANCH   1   7
HETATM    7  C   UNL     1     -40.757 -53.850  15.122  1.00  0.00     0.052 A 
HETATM    8  C   UNL     1     -42.006 -53.904  15.617  1.00  0.00     0.123 A 
HETATM    9  N   UNL     1     -43.126 -53.987  14.808  1.00  0.00    -0.327 N 
HETATM   10  C   UNL     1     -44.445 -54.034  15.412  1.00  0.00     0.159 C 
HETATM   11  C   UNL     1     -43.036 -54.042  13.421  1.00  0.00     0.247 A 
HETATM   12  C   UNL     1     -41.659 -53.950  12.865  1.00  0.00     0.077 A 
HETATM   13  O   UNL     1     -43.993 -54.146  12.660  1.00  0.00    -0.268 OA
HETATM   14  C   UNL     1     -40.597 -53.844  13.679  1.00  0.00     0.036 A 
ENDBRANCH   1   7
BRANCH   4  15
HETATM   15  C   UNL     1     -37.307 -55.613  18.077  1.00  0.00     0.100 C 
HETATM   16  C   UNL     1     -36.985 -55.115  19.481  1.00  0.00     0.028 C 
HETATM   17  C   UNL     1     -35.790 -54.181  19.423  1.00  0.00     0.018 C 
HETATM   18  C   UNL     1     -34.563 -54.963  18.996  1.00  0.00     0.107 C 
HETATM   19  N   UNL     1     -34.734 -55.617  17.664  1.00  0.00    -0.209 NA
HETATM   20  C   UNL     1     -36.066 -56.285  17.430  1.00  0.00     0.132 C 
BRANCH  19  21
HETATM   21  S   UNL     1     -33.394 -56.679  17.379  1.00  0.00     0.207 S 
HETATM   22  O   UNL     1     -33.924 -58.021  17.259  1.00  0.00    -0.212 OA
HETATM   23  O   UNL     1     -32.609 -56.098  16.308  1.00  0.00    -0.212 OA
HETATM   24  C   UNL     1     -32.449 -56.584  18.886  1.00  0.00     0.180 C 
ENDBRANCH  19  21
ENDBRANCH   4  15
TORSDOF 3
ENDMDL
MODEL 7
REMARK VINA RESULT:      -5.5      4.855      5.636
REMARK  3 active torsions:
REMARK  status: ('A' for Active; 'I' for Inactive)
REMARK    1  A    between atoms: C_4  and  N_5 
REMARK       I    between atoms: N_5  and  C_6 
REMARK       I    between atoms: C_6  and  N_8 
REMARK    2  A    between atoms: N_8  and  C_9 
REMARK    3  A    between atoms: N_13  and  S_15 
ROOT
HETATM    1  N   UNL     1     -41.079 -52.423  14.253  1.00  0.00    -0.308 N 
HETATM    2  C   UNL     1     -40.833 -51.441  15.193  1.00  0.00     0.321 C 
HETATM    3  O   UNL     1     -41.566 -51.152  16.128  1.00  0.00    -0.247 OA
HETATM    4  N   UNL     1     -39.651 -50.770  14.967  1.00  0.00    -0.337 N 
HETATM    5  H   UNL     1     -40.276 -52.754  13.739  1.00  0.00     0.170 HD
HETATM    6  H   UNL     1     -39.430 -50.700  13.983  1.00  0.00     0.164 HD
ENDROOT
BRANCH   1   7
HETATM    7  C   UNL     1     -42.248 -53.153  14.152  1.00  0.00     0.052 A 
HETATM    8  C   UNL     1     -43.359 -52.712  13.536  1.00  0.00     0.123 A 
HETATM    9  N   UNL     1     -44.525 -53.456  13.477  1.00  0.00    -0.327 N 
HETATM   10  C   UNL     1     -45.684 -52.919  12.790  1.00  0.00     0.159 C 
HETATM   11  C   UNL     1     -44.634 -54.710  14.071  1.00  0.00     0.247 A 
HETATM   12  C   UNL     1     -43.399 -55.218  14.726  1.00  0.00     0.077 A 
HETATM   13  O   UNL     1     -45.651 -55.397  14.074  1.00  0.00    -0.268 OA
HETATM   14  C   UNL     1     -42.278 -54.480  14.741  1.00  0.00     0.036 A 
ENDBRANCH   1   7
BRANCH   4  15
HETATM   15  C   UNL     1     -39.382 -49.553  15.754  1.00  0.00     0.100 C 
HETATM   16  C   UNL     1     -39.436 -48.320  14.861  1.00  0.00     0.028 C 
HETATM   17  C   UNL     1     -38.192 -48.269  13.993  1.00  0.00     0.018 C 
HETATM   18  C   UNL     1     -36.975 -48.059  14.873  1.00  0.00     0.107 C 
HETATM   19  N   UNL     1     -36.813 -49.137  15.895  1.00  0.00    -0.209 NA
HETATM   20  C   UNL     1     -38.077 -49.569  16.595  1.00  0.00     0.132 C 
BRANCH  19  21
HETATM   21  S   UNL     1     -35.558 -48.683  17.001  1.00  0.00     0.207 S 
HETATM   22  O   UNL     1     -35.078 -49.895  17.632  1.00  0.00    -0.212 OA
HETATM   23  O   UNL     1     -34.646 -47.817  16.280  1.00  0.00    -0.212 OA
HETATM   24  C   UNL     1     -36.405 -47.711  18.230  1.00  0.00     0.180 C 
ENDBRANCH  19  21
ENDBRANCH   4  15
TORSDOF 3
ENDMDL
MODEL 8
REMARK VINA RESULT:      -5.4     14.680     17.912
REMARK  3 active torsions:
REMARK  status: ('A' for Active; 'I' for Inactive)
REMARK    1  A    between atoms: C_4  and  N_5 
REMARK       I    between atoms: N_5  and  C_6 
REMARK       I    between atoms: C_6  and  N_8 
REMARK    2  A    between atoms: N_8  and  C_9 
REMARK    3  A    between atoms: N_13  and  S_15 
ROOT
HETATM    1  N   UNL     1     -30.568 -63.199  17.390  1.00  0.00    -0.308 N 
HETATM    2  C   UNL     1     -30.933 -62.055  18.073  1.00  0.00     0.321 C 
HETATM    3  O   UNL     1     -30.188 -61.128  18.355  1.00  0.00    -0.247 OA
HETATM    4  N   UNL     1     -32.260 -62.055  18.443  1.00  0.00    -0.337 N 
HETATM    5  H   UNL     1     -31.322 -63.722  16.968  1.00  0.00     0.170 HD
HETATM    6  H   UNL     1     -32.604 -62.985  18.643  1.00  0.00     0.164 HD
ENDROOT
BRANCH   1   7
HETATM    7  C   UNL     1     -29.277 -63.530  17.023  1.00  0.00     0.052 A 
HETATM    8  C   UNL     1     -28.295 -63.809  17.899  1.00  0.00     0.123 A 
HETATM    9  N   UNL     1     -27.004 -64.108  17.500  1.00  0.00    -0.327 N 
HETATM   10  C   UNL     1     -25.996 -64.405  18.500  1.00  0.00     0.159 C 
HETATM   11  C   UNL     1     -26.626 -64.121  16.161  1.00  0.00     0.247 A 
HETATM   12  C   UNL     1     -27.715 -63.846  15.185  1.00  0.00     0.077 A 
HETATM   13  O   UNL     1     -25.490 -64.350  15.756  1.00  0.00    -0.268 OA
HETATM   14  C   UNL     1     -28.962 -63.585  15.607  1.00  0.00     0.036 A 
ENDBRANCH   1   7
BRANCH   4  15
HETATM   15  C   UNL     1     -32.722 -61.007  19.372  1.00  0.00     0.100 C 
HETATM   16  C   UNL     1     -34.085 -61.370  19.947  1.00  0.00     0.028 C 
HETATM   17  C   UNL     1     -35.151 -61.172  18.885  1.00  0.00     0.018 C 
HETATM   18  C   UNL     1     -35.252 -59.697  18.545  1.00  0.00     0.107 C 
HETATM   19  N   UNL     1     -33.960 -59.133  18.050  1.00  0.00    -0.209 NA
HETATM   20  C   UNL     1     -32.727 -59.561  18.807  1.00  0.00     0.132 C 
BRANCH  19  21
HETATM   21  S   UNL     1     -34.106 -57.410  17.929  1.00  0.00     0.207 S 
HETATM   22  O   UNL     1     -33.607 -57.024  16.626  1.00  0.00    -0.212 OA
HETATM   23  O   UNL     1     -35.453 -57.066  18.334  1.00  0.00    -0.212 OA
HETATM   24  C   UNL     1     -32.973 -56.800  19.163  1.00  0.00     0.180 C 
ENDBRANCH  19  21
ENDBRANCH   4  15
TORSDOF 3
ENDMDL
MODEL 9
REMARK VINA RESULT:      -5.4      3.499      8.706
REMARK  3 active torsions:
REMARK  status: ('A' for Active; 'I' for Inactive)
REMARK    1  A    between atoms: C_4  and  N_5 
REMARK       I    between atoms: N_5  and  C_6 
REMARK       I    between atoms: C_6  and  N_8 
REMARK    2  A    between atoms: N_8  and  C_9 
REMARK    3  A    between atoms: N_13  and  S_15 
ROOT
HETATM    1  N   UNL     1     -43.069 -48.261  13.401  1.00  0.00    -0.308 N 
HETATM    2  C   UNL     1     -43.183 -49.628  13.241  1.00  0.00     0.321 C 
HETATM    3  O   UNL     1     -42.695 -50.281  12.329  1.00  0.00    -0.247 OA
HETATM    4  N   UNL     1     -43.944 -50.218  14.226  1.00  0.00    -0.337 N 
HETATM    5  H   UNL     1     -43.250 -47.907  14.328  1.00  0.00     0.170 HD
HETATM    6  H   UNL     1     -44.678 -49.609  14.562  1.00  0.00     0.164 HD
ENDROOT
BRANCH   1   7
HETATM    7  C   UNL     1     -42.484 -47.399  12.491  1.00  0.00     0.052 A 
HETATM    8  C   UNL     1     -43.058 -47.027  11.333  1.00  0.00     0.123 A 
HETATM    9  N   UNL     1     -42.434 -46.185  10.429  1.00  0.00    -0.327 N 
HETATM   10  C   UNL     1     -43.117 -45.820   9.201  1.00  0.00     0.159 C 
HETATM   11  C   UNL     1     -41.157 -45.679  10.646  1.00  0.00     0.247 A 
HETATM   12  C   UNL     1     -40.529 -46.061  11.941  1.00  0.00     0.077 A 
HETATM   13  O   UNL     1     -40.548 -44.955   9.865  1.00  0.00    -0.268 OA
HETATM   14  C   UNL     1     -41.174 -46.858  12.806  1.00  0.00     0.036 A 
ENDBRANCH   1   7
BRANCH   4  15
HETATM   15  C   UNL     1     -44.336 -51.628  14.050  1.00  0.00     0.100 C 
HETATM   16  C   UNL     1     -45.821 -51.730  13.726  1.00  0.00     0.028 C 
HETATM   17  C   UNL     1     -46.632 -51.458  14.980  1.00  0.00     0.018 C 
HETATM   18  C   UNL     1     -46.377 -52.561  15.990  1.00  0.00     0.107 C 
HETATM   19  N   UNL     1     -44.934 -52.679  16.359  1.00  0.00    -0.209 NA
HETATM   20  C   UNL     1     -43.957 -52.584  15.213  1.00  0.00     0.132 C 
BRANCH  19  21
HETATM   21  S   UNL     1     -44.710 -54.109  17.312  1.00  0.00     0.207 S 
HETATM   22  O   UNL     1     -46.024 -54.610  17.658  1.00  0.00    -0.212 OA
HETATM   23  O   UNL     1     -43.764 -54.949  16.605  1.00  0.00    -0.212 OA
HETATM   24  C   UNL     1     -43.930 -53.511  18.798  1.00  0.00     0.180 C 
ENDBRANCH  19  21
ENDBRANCH   4  15
TORSDOF 3
ENDMDL
