MODEL 1
REMARK VINA RESULT:      -5.5      0.000      0.000
REMARK  4 active torsions:
REMARK  status: ('A' for Active; 'I' for Inactive)
REMARK    1  A    between atoms: N_1  and  C_8 
REMARK    2  A    between atoms: N_2  and  C_7 
REMARK    3  A    between atoms: C_8  and  C_10 
REMARK    4  A    between atoms: C_10  and  O_15 
ROOT
HETATM    1  N   UNL     1     -41.477 -51.364  12.882  1.00  0.00    -0.254 N 
HETATM    2  N   UNL     1     -43.110 -52.962  13.482  1.00  0.00    -0.279 N 
HETATM    3  C   UNL     1     -42.825 -51.654  13.087  1.00  0.00     0.334 C 
HETATM    4  C   UNL     1     -40.474 -52.314  12.868  1.00  0.00     0.292 C 
HETATM    5  C   UNL     1     -40.878 -53.690  13.203  1.00  0.00     0.200 C 
HETATM    6  C   UNL     1     -42.146 -53.950  13.504  1.00  0.00     0.146 C 
HETATM    7  O   UNL     1     -43.707 -50.805  12.963  1.00  0.00    -0.246 OA
HETATM    8  O   UNL     1     -39.316 -52.038  12.548  1.00  0.00    -0.264 OA
HETATM    9  F   UNL     1     -39.921 -54.634  13.219  1.00  0.00    -0.199 F 
ENDROOT
BRANCH   1  10
HETATM   10  C   UNL     1     -41.102 -49.964  12.701  1.00  0.00     0.247 C 
BRANCH  10  11
HETATM   11  C   UNL     1     -41.203 -49.484  11.261  1.00  0.00     0.158 C 
HETATM   12  O   UNL     1     -41.934 -48.572  10.901  1.00  0.00    -0.649 OA
BRANCH  11  13
HETATM   13  O   UNL     1     -40.328 -50.072  10.410  1.00  0.00    -0.775 OA
HETATM   14  H   UNL     1     -40.721 -50.349   9.547  1.00  0.00     0.167 HD
ENDBRANCH  11  13
ENDBRANCH  10  11
ENDBRANCH   1  10
BRANCH   2  15
HETATM   15  C   UNL     1     -44.471 -53.224  13.927  1.00  0.00     0.232 C 
HETATM   16  O   UNL     1     -44.582 -53.126  15.359  1.00  0.00    -0.366 OA
HETATM   17  C   UNL     1     -45.685 -53.956  15.760  1.00  0.00     0.170 C 
HETATM   18  C   UNL     1     -46.204 -54.658  14.516  1.00  0.00     0.031 C 
HETATM   19  C   UNL     1     -45.015 -54.599  13.584  1.00  0.00     0.056 C 
ENDBRANCH   2  15
TORSDOF 4
ENDMDL
MODEL 2
REMARK VINA RESULT:      -5.5      2.502      3.891
REMARK  4 active torsions:
REMARK  status: ('A' for Active; 'I' for Inactive)
REMARK    1  A    between atoms: N_1  and  C_8 
REMARK    2  A    between atoms: N_2  and  C_7 
REMARK    3  A    between atoms: C_8  and  C_10 
REMARK    4  A    between atoms: C_10  and  O_15 
ROOT
HETATM    1  N   UNL     1     -40.323 -52.415  14.139  1.00  0.00    -0.254 N 
HETATM    2  N   UNL     1     -42.558 -51.969  13.513  1.00  0.00    -0.279 N 
HETATM    3  C   UNL     1     -41.676 -52.476  14.469  1.00  0.00     0.334 C 
HETATM    4  C   UNL     1     -39.824 -51.737  13.043  1.00  0.00     0.292 C 
HETATM    5  C   UNL     1     -40.821 -51.149  12.132  1.00  0.00     0.200 C 
HETATM    6  C   UNL     1     -42.117 -51.298  12.390  1.00  0.00     0.146 C 
HETATM    7  O   UNL     1     -42.074 -52.976  15.520  1.00  0.00    -0.246 OA
HETATM    8  O   UNL     1     -38.614 -51.591  12.860  1.00  0.00    -0.264 OA
HETATM    9  F   UNL     1     -40.367 -50.501  11.046  1.00  0.00    -0.199 F 
ENDROOT
BRANCH   1  10
HETATM   10  C   UNL     1     -39.381 -53.140  14.987  1.00  0.00     0.247 C 
BRANCH  10  11
HETATM   11  C   UNL     1     -39.150 -54.580  14.554  1.00  0.00     0.158 C 
HETATM   12  O   UNL     1     -39.384 -55.547  15.264  1.00  0.00    -0.649 OA
BRANCH  11  13
HETATM   13  O   UNL     1     -38.766 -54.722  13.262  1.00  0.00    -0.775 OA
HETATM   14  H   UNL     1     -38.939 -53.932  12.695  1.00  0.00     0.167 HD
ENDBRANCH  11  13
ENDBRANCH  10  11
ENDBRANCH   1  10
BRANCH   2  15
HETATM   15  C   UNL     1     -43.972 -52.234  13.728  1.00  0.00     0.232 C 
HETATM   16  O   UNL     1     -44.567 -52.871  12.583  1.00  0.00    -0.366 OA
HETATM   17  C   UNL     1     -45.967 -52.546  12.591  1.00  0.00     0.170 C 
HETATM   18  C   UNL     1     -46.207 -51.591  13.749  1.00  0.00     0.031 C 
HETATM   19  C   UNL     1     -44.832 -51.009  13.988  1.00  0.00     0.056 C 
ENDBRANCH   2  15
TORSDOF 4
ENDMDL
MODEL 3
REMARK VINA RESULT:      -5.4      3.038      5.617
REMARK  4 active torsions:
REMARK  status: ('A' for Active; 'I' for Inactive)
REMARK    1  A    between atoms: N_1  and  C_8 
REMARK    2  A    between atoms: N_2  and  C_7 
REMARK    3  A    between atoms: C_8  and  C_10 
REMARK    4  A    between atoms: C_10  and  O_15 
ROOT
HETATM    1  N   UNL     1     -44.053 -54.578  13.811  1.00  0.00    -0.254 N 
HETATM    2  N   UNL     1     -41.853 -54.255  14.611  1.00  0.00    -0.279 N 
HETATM    3  C   UNL     1     -43.027 -55.010  14.650  1.00  0.00     0.334 C 
HETATM    4  C   UNL     1     -43.905 -53.596  12.849  1.00  0.00     0.292 C 
HETATM    5  C   UNL     1     -42.601 -52.912  12.813  1.00  0.00     0.200 C 
HETATM    6  C   UNL     1     -41.656 -53.251  13.685  1.00  0.00     0.146 C 
HETATM    7  O   UNL     1     -43.156 -55.974  15.403  1.00  0.00    -0.246 OA
HETATM    8  O   UNL     1     -44.795 -53.338  12.036  1.00  0.00    -0.264 OA
HETATM    9  F   UNL     1     -42.433 -51.938  11.903  1.00  0.00    -0.199 F 
ENDROOT
BRANCH   1  10
HETATM   10  C   UNL     1     -45.372 -55.180  13.982  1.00  0.00     0.247 C 
BRANCH  10  11
HETATM   11  C   UNL     1     -46.284 -54.399  14.917  1.00  0.00     0.158 C 
HETATM   12  O   UNL     1     -46.205 -54.444  16.136  1.00  0.00    -0.649 OA
BRANCH  11  13
HETATM   13  O   UNL     1     -47.132 -53.547  14.291  1.00  0.00    -0.775 OA
HETATM   14  H   UNL     1     -47.868 -53.212  14.859  1.00  0.00     0.167 HD
ENDBRANCH  11  13
ENDBRANCH  10  11
ENDBRANCH   1  10
BRANCH   2  15
HETATM   15  C   UNL     1     -40.864 -54.540  15.639  1.00  0.00     0.232 C 
HETATM   16  O   UNL     1     -40.686 -53.418  16.522  1.00  0.00    -0.366 OA
HETATM   17  C   UNL     1     -39.357 -53.505  17.063  1.00  0.00     0.170 C 
HETATM   18  C   UNL     1     -38.672 -54.689  16.401  1.00  0.00     0.031 C 
HETATM   19  C   UNL     1     -39.471 -54.864  15.130  1.00  0.00     0.056 C 
ENDBRANCH   2  15
TORSDOF 4
ENDMDL
MODEL 4
REMARK VINA RESULT:      -5.3      5.842      7.132
REMARK  4 active torsions:
REMARK  status: ('A' for Active; 'I' for Inactive)
REMARK    1  A    between atoms: N_1  and  C_8 
REMARK    2  A    between atoms: N_2  and  C_7 
REMARK    3  A    between atoms: C_8  and  C_10 
REMARK    4  A    between atoms: C_10  and  O_15 
ROOT
HETATM    1  N   UNL     1     -41.995 -46.686  10.680  1.00  0.00    -0.254 N 
HETATM    2  N   UNL     1     -40.121 -47.634  11.762  1.00  0.00    -0.279 N 
HETATM    3  C   UNL     1     -41.287 -47.837  11.022  1.00  0.00     0.334 C 
HETATM    4  C   UNL     1     -41.521 -45.401  10.868  1.00  0.00     0.292 C 
HETATM    5  C   UNL     1     -40.235 -45.280  11.574  1.00  0.00     0.200 C 
HETATM    6  C   UNL     1     -39.609 -46.374  11.996  1.00  0.00     0.146 C 
HETATM    7  O   UNL     1     -41.679 -48.963  10.722  1.00  0.00    -0.246 OA
HETATM    8  O   UNL     1     -42.115 -44.414  10.428  1.00  0.00    -0.264 OA
HETATM    9  F   UNL     1     -39.758 -44.042  11.791  1.00  0.00    -0.199 F 
ENDROOT
BRANCH   1  10
HETATM   10  C   UNL     1     -43.332 -46.851  10.117  1.00  0.00     0.247 C 
BRANCH  10  11
HETATM   11  C   UNL     1     -43.344 -47.021   8.605  1.00  0.00     0.158 C 
HETATM   12  O   UNL     1     -43.959 -47.906   8.027  1.00  0.00    -0.649 OA
BRANCH  11  13
HETATM   13  O   UNL     1     -42.705 -46.038   7.925  1.00  0.00    -0.775 OA
HETATM   14  H   UNL     1     -43.178 -45.730   7.114  1.00  0.00     0.167 HD
ENDBRANCH  11  13
ENDBRANCH  10  11
ENDBRANCH   1  10
BRANCH   2  15
HETATM   15  C   UNL     1     -39.496 -48.821  12.328  1.00  0.00     0.232 C 
HETATM   16  O   UNL     1     -39.001 -48.569  13.656  1.00  0.00    -0.366 OA
HETATM   17  C   UNL     1     -37.919 -49.488  13.890  1.00  0.00     0.170 C 
HETATM   18  C   UNL     1     -37.697 -50.267  12.604  1.00  0.00     0.031 C 
HETATM   19  C   UNL     1     -38.304 -49.359  11.558  1.00  0.00     0.056 C 
ENDBRANCH   2  15
TORSDOF 4
ENDMDL
MODEL 5
REMARK VINA RESULT:      -5.2      3.162      5.804
REMARK  4 active torsions:
REMARK  status: ('A' for Active; 'I' for Inactive)
REMARK    1  A    between atoms: N_1  and  C_8 
REMARK    2  A    between atoms: N_2  and  C_7 
REMARK    3  A    between atoms: C_8  and  C_10 
REMARK    4  A    between atoms: C_10  and  O_15 
ROOT
HETATM    1  N   UNL     1     -40.133 -50.809  12.924  1.00  0.00    -0.254 N 
HETATM    2  N   UNL     1     -40.503 -48.673  11.984  1.00  0.00    -0.279 N 
HETATM    3  C   UNL     1     -40.995 -49.727  12.757  1.00  0.00     0.334 C 
HETATM    4  C   UNL     1     -38.806 -50.809  12.535  1.00  0.00     0.292 C 
HETATM    5  C   UNL     1     -38.342 -49.617  11.806  1.00  0.00     0.200 C 
HETATM    6  C   UNL     1     -39.193 -48.627  11.554  1.00  0.00     0.146 C 
HETATM    7  O   UNL     1     -42.130 -49.712  13.231  1.00  0.00    -0.246 OA
HETATM    8  O   UNL     1     -38.040 -51.732  12.822  1.00  0.00    -0.264 OA
HETATM    9  F   UNL     1     -37.062 -49.595  11.397  1.00  0.00    -0.199 F 
ENDROOT
BRANCH   1  10
HETATM   10  C   UNL     1     -40.676 -52.028  13.517  1.00  0.00     0.247 C 
BRANCH  10  11
HETATM   11  C   UNL     1     -41.356 -52.947  12.513  1.00  0.00     0.158 C 
HETATM   12  O   UNL     1     -42.566 -53.112  12.456  1.00  0.00    -0.649 OA
BRANCH  11  13
HETATM   13  O   UNL     1     -40.520 -53.492  11.595  1.00  0.00    -0.775 OA
HETATM   14  H   UNL     1     -40.588 -53.094  10.694  1.00  0.00     0.167 HD
ENDBRANCH  11  13
ENDBRANCH  10  11
ENDBRANCH   1  10
BRANCH   2  15
HETATM   15  C   UNL     1     -41.461 -47.646  11.603  1.00  0.00     0.232 C 
HETATM   16  O   UNL     1     -42.252 -48.060  10.474  1.00  0.00    -0.366 OA
HETATM   17  C   UNL     1     -42.685 -46.869   9.795  1.00  0.00     0.170 C 
HETATM   18  C   UNL     1     -42.046 -45.685  10.500  1.00  0.00     0.031 C 
HETATM   19  C   UNL     1     -40.859 -46.314  11.194  1.00  0.00     0.056 C 
ENDBRANCH   2  15
TORSDOF 4
ENDMDL
MODEL 6
REMARK VINA RESULT:      -5.0      5.075      6.334
REMARK  4 active torsions:
REMARK  status: ('A' for Active; 'I' for Inactive)
REMARK    1  A    between atoms: N_1  and  C_8 
REMARK    2  A    between atoms: N_2  and  C_7 
REMARK    3  A    between atoms: C_8  and  C_10 
REMARK    4  A    between atoms: C_10  and  O_15 
ROOT
HETATM    1  N   UNL     1     -39.262 -49.164  12.807  1.00  0.00    -0.254 N 
HETATM    2  N   UNL     1     -40.918 -47.880  11.716  1.00  0.00    -0.279 N 
HETATM    3  C   UNL     1     -40.404 -49.144  12.009  1.00  0.00     0.334 C 
HETATM    4  C   UNL     1     -38.747 -48.053  13.449  1.00  0.00     0.292 C 
HETATM    5  C   UNL     1     -39.408 -46.769  13.158  1.00  0.00     0.200 C 
HETATM    6  C   UNL     1     -40.433 -46.733  12.312  1.00  0.00     0.146 C 
HETATM    7  O   UNL     1     -40.910 -50.171  11.560  1.00  0.00    -0.246 OA
HETATM    8  O   UNL     1     -37.818 -48.135  14.255  1.00  0.00    -0.264 OA
HETATM    9  F   UNL     1     -38.917 -45.668  13.750  1.00  0.00    -0.199 F 
ENDROOT
BRANCH   1  10
HETATM   10  C   UNL     1     -38.551 -50.431  12.948  1.00  0.00     0.247 C 
BRANCH  10  11
HETATM   11  C   UNL     1     -37.475 -50.649  11.894  1.00  0.00     0.158 C 
HETATM   12  O   UNL     1     -37.183 -49.822  11.042  1.00  0.00    -0.649 OA
BRANCH  11  13
HETATM   13  O   UNL     1     -36.773 -51.799  12.038  1.00  0.00    -0.775 OA
HETATM   14  H   UNL     1     -35.938 -51.706  12.559  1.00  0.00     0.167 HD
ENDBRANCH  11  13
ENDBRANCH  10  11
ENDBRANCH   1  10
BRANCH   2  15
HETATM   15  C   UNL     1     -41.959 -47.821  10.701  1.00  0.00     0.232 C 
HETATM   16  O   UNL     1     -41.887 -46.598   9.945  1.00  0.00    -0.366 OA
HETATM   17  C   UNL     1     -43.207 -46.324   9.447  1.00  0.00     0.170 C 
HETATM   18  C   UNL     1     -44.136 -47.388  10.008  1.00  0.00     0.031 C 
HETATM   19  C   UNL     1     -43.383 -47.875  11.225  1.00  0.00     0.056 C 
ENDBRANCH   2  15
TORSDOF 4
ENDMDL
MODEL 7
REMARK VINA RESULT:      -5.0      6.542      8.853
REMARK  4 active torsions:
REMARK  status: ('A' for Active; 'I' for Inactive)
REMARK    1  A    between atoms: N_1  and  C_8 
REMARK    2  A    between atoms: N_2  and  C_7 
REMARK    3  A    between atoms: C_8  and  C_10 
REMARK    4  A    between atoms: C_10  and  O_15 
ROOT
HETATM    1  N   UNL     1     -42.650 -45.999   9.899  1.00  0.00    -0.254 N 
HETATM    2  N   UNL     1     -41.922 -44.434  11.512  1.00  0.00    -0.279 N 
HETATM    3  C   UNL     1     -42.754 -44.713  10.427  1.00  0.00     0.334 C 
HETATM    4  C   UNL     1     -41.932 -47.022  10.488  1.00  0.00     0.292 C 
HETATM    5  C   UNL     1     -41.154 -46.664  11.686  1.00  0.00     0.200 C 
HETATM    6  C   UNL     1     -41.168 -45.411  12.131  1.00  0.00     0.146 C 
HETATM    7  O   UNL     1     -43.506 -43.866   9.950  1.00  0.00    -0.246 OA
HETATM    8  O   UNL     1     -41.975 -48.180  10.066  1.00  0.00    -0.264 OA
HETATM    9  F   UNL     1     -40.428 -47.633  12.270  1.00  0.00    -0.199 F 
ENDROOT
BRANCH   1  10
HETATM   10  C   UNL     1     -43.317 -46.270   8.628  1.00  0.00     0.247 C 
BRANCH  10  11
HETATM   11  C   UNL     1     -44.761 -46.722   8.779  1.00  0.00     0.158 C 
HETATM   12  O   UNL     1     -45.092 -47.884   8.967  1.00  0.00    -0.649 OA
BRANCH  11  13
HETATM   13  O   UNL     1     -45.666 -45.713   8.805  1.00  0.00    -0.775 OA
HETATM   14  H   UNL     1     -45.273 -44.810   8.725  1.00  0.00     0.167 HD
ENDBRANCH  11  13
ENDBRANCH  10  11
ENDBRANCH   1  10
BRANCH   2  15
HETATM   15  C   UNL     1     -41.841 -43.042  11.927  1.00  0.00     0.232 C 
HETATM   16  O   UNL     1     -40.688 -42.392  11.361  1.00  0.00    -0.366 OA
HETATM   17  C   UNL     1     -40.330 -41.313  12.241  1.00  0.00     0.170 C 
HETATM   18  C   UNL     1     -41.260 -41.376  13.441  1.00  0.00     0.031 C 
HETATM   19  C   UNL     1     -41.726 -42.814  13.424  1.00  0.00     0.056 C 
ENDBRANCH   2  15
TORSDOF 4
ENDMDL
MODEL 8
REMARK VINA RESULT:      -4.9      5.171      7.112
REMARK  4 active torsions:
REMARK  status: ('A' for Active; 'I' for Inactive)
REMARK    1  A    between atoms: N_1  and  C_8 
REMARK    2  A    between atoms: N_2  and  C_7 
REMARK    3  A    between atoms: C_8  and  C_10 
REMARK    4  A    between atoms: C_10  and  O_15 
ROOT
HETATM    1  N   UNL     1     -42.164 -45.594  11.058  1.00  0.00    -0.254 N 
HETATM    2  N   UNL     1     -41.338 -47.787  11.359  1.00  0.00    -0.279 N 
HETATM    3  C   UNL     1     -41.468 -46.492  11.866  1.00  0.00     0.334 C 
HETATM    4  C   UNL     1     -42.860 -45.954   9.920  1.00  0.00     0.292 C 
HETATM    5  C   UNL     1     -42.746 -47.363   9.507  1.00  0.00     0.200 C 
HETATM    6  C   UNL     1     -41.996 -48.199  10.218  1.00  0.00     0.146 C 
HETATM    7  O   UNL     1     -40.970 -46.161  12.940  1.00  0.00    -0.246 OA
HETATM    8  O   UNL     1     -43.575 -45.156   9.310  1.00  0.00    -0.264 OA
HETATM    9  F   UNL     1     -43.395 -47.740   8.392  1.00  0.00    -0.199 F 
ENDROOT
BRANCH   1  10
HETATM   10  C   UNL     1     -42.127 -44.180  11.424  1.00  0.00     0.247 C 
BRANCH  10  11
HETATM   11  C   UNL     1     -41.002 -43.405  10.754  1.00  0.00     0.158 C 
HETATM   12  O   UNL     1     -40.020 -43.933  10.251  1.00  0.00    -0.649 OA
BRANCH  11  13
HETATM   13  O   UNL     1     -41.223 -42.072  10.651  1.00  0.00    -0.775 OA
HETATM   14  H   UNL     1     -42.097 -41.832  10.258  1.00  0.00     0.167 HD
ENDBRANCH  11  13
ENDBRANCH  10  11
ENDBRANCH   1  10
BRANCH   2  15
HETATM   15  C   UNL     1     -40.423 -48.671  12.066  1.00  0.00     0.232 C 
HETATM   16  O   UNL     1     -39.066 -48.480  11.627  1.00  0.00    -0.366 OA
HETATM   17  C   UNL     1     -38.364 -49.713  11.859  1.00  0.00     0.170 C 
HETATM   18  C   UNL     1     -39.374 -50.722  12.379  1.00  0.00     0.031 C 
HETATM   19  C   UNL     1     -40.688 -50.156  11.891  1.00  0.00     0.056 C 
ENDBRANCH   2  15
TORSDOF 4
ENDMDL
MODEL 9
REMARK VINA RESULT:      -4.9      3.931      5.600
REMARK  4 active torsions:
REMARK  status: ('A' for Active; 'I' for Inactive)
REMARK    1  A    between atoms: N_1  and  C_8 
REMARK    2  A    between atoms: N_2  and  C_7 
REMARK    3  A    between atoms: C_8  and  C_10 
REMARK    4  A    between atoms: C_10  and  O_15 
ROOT
HETATM    1  N   UNL     1     -45.070 -53.525  14.446  1.00  0.00    -0.254 N 
HETATM    2  N   UNL     1     -46.196 -51.882  15.717  1.00  0.00    -0.279 N 
HETATM    3  C   UNL     1     -45.280 -52.936  15.692  1.00  0.00     0.334 C 
HETATM    4  C   UNL     1     -45.560 -53.019  13.257  1.00  0.00     0.292 C 
HETATM    5  C   UNL     1     -46.444 -51.846  13.366  1.00  0.00     0.200 C 
HETATM    6  C   UNL     1     -46.731 -51.346  14.564  1.00  0.00     0.146 C 
HETATM    7  O   UNL     1     -44.722 -53.337  16.711  1.00  0.00    -0.246 OA
HETATM    8  O   UNL     1     -45.240 -53.490  12.164  1.00  0.00    -0.264 OA
HETATM    9  F   UNL     1     -46.954 -51.343  12.229  1.00  0.00    -0.199 F 
ENDROOT
BRANCH   1  10
HETATM   10  C   UNL     1     -44.311 -54.772  14.402  1.00  0.00     0.247 C 
BRANCH  10  11
HETATM   11  C   UNL     1     -42.803 -54.570  14.371  1.00  0.00     0.158 C 
HETATM   12  O   UNL     1     -42.183 -54.248  13.368  1.00  0.00    -0.649 OA
BRANCH  11  13
HETATM   13  O   UNL     1     -42.200 -54.662  15.581  1.00  0.00    -0.775 OA
HETATM   14  H   UNL     1     -42.312 -55.536  16.028  1.00  0.00     0.167 HD
ENDBRANCH  11  13
ENDBRANCH  10  11
ENDBRANCH   1  10
BRANCH   2  15
HETATM   15  C   UNL     1     -46.606 -51.410  17.031  1.00  0.00     0.232 C 
HETATM   16  O   UNL     1     -48.017 -51.133  17.072  1.00  0.00    -0.366 OA
HETATM   17  C   UNL     1     -48.230 -50.144  18.094  1.00  0.00     0.170 C 
HETATM   18  C   UNL     1     -46.867 -49.742  18.630  1.00  0.00     0.031 C 
HETATM   19  C   UNL     1     -45.940 -50.129  17.500  1.00  0.00     0.056 C 
ENDBRANCH   2  15
TORSDOF 4
ENDMDL
