MODEL 1
REMARK VINA RESULT:      -6.8      0.000      0.000
REMARK  7 active torsions:
REMARK  status: ('A' for Active; 'I' for Inactive)
REMARK    1  A    between atoms: C_5  and  N_6 
REMARK    2  A    between atoms: N_6  and  C_7 
REMARK    3  A    between atoms: N_11  and  C_12 
REMARK    4  A    between atoms: C_12  and  C_13 
REMARK       I    between atoms: C_13  and  N_15 
REMARK    5  A    between atoms: N_15  and  C_16 
REMARK    6  A    between atoms: C_16  and  C_17 
REMARK    7  A    between atoms: C_17  and  O_18 
ROOT
HETATM    1  C   UNL     1     -42.866 -51.646  12.830  1.00  0.00     0.062 A 
HETATM    2  C   UNL     1     -42.023 -52.491  12.087  1.00  0.00     0.138 A 
HETATM    3  N   UNL     1     -41.045 -51.812  11.471  1.00  0.00    -0.307 N 
ATOM      4  HN  UNL     1     -40.281 -52.178  10.903  1.00  0.00     0.186 HD
HETATM    5  N   UNL     1     -41.318 -50.526  11.781  1.00  0.00    -0.293 N 
HETATM    6  C   UNL     1     -42.382 -50.382  12.623  1.00  0.00     0.141 A 
ENDROOT
BRANCH   1   7
HETATM    7  N   UNL     1     -43.952 -51.933  13.575  1.00  0.00    -0.383 N 
HETATM    8  H   UNL     1     -44.182 -52.904  13.760  1.00  0.00     0.160 HD
BRANCH   7   9
HETATM    9  C   UNL     1     -44.943 -50.936  13.987  1.00  0.00     0.085 C 
HETATM   10  C   UNL     1     -44.815 -50.632  15.494  1.00  0.00     0.026 C 
HETATM   11  C   UNL     1     -45.154 -51.846  16.366  1.00  0.00     0.006 C 
HETATM   12  C   UNL     1     -46.547 -52.419  16.073  1.00  0.00    -0.018 C 
HETATM   13  C   UNL     1     -47.646 -51.528  16.661  1.00  0.00     0.010 C 
HETATM   14  C   UNL     1     -46.750 -52.656  14.567  1.00  0.00     0.010 C 
HETATM   15  C   UNL     1     -46.386 -51.429  13.707  1.00  0.00     0.004 C 
HETATM   16  C   UNL     1     -46.655 -51.700  12.226  1.00  0.00     0.012 C 
ENDBRANCH   7   9
ENDBRANCH   1   7
BRANCH   5  17
HETATM   17  C   UNL     1     -40.513 -49.473  11.198  1.00  0.00     0.250 C 
BRANCH  17  18
HETATM   18  C   UNL     1     -41.359 -48.300  10.763  1.00  0.00     0.237 C 
HETATM   19  O   UNL     1     -41.427 -47.270  11.430  1.00  0.00    -0.272 OA
HETATM   20  N   UNL     1     -42.077 -48.487   9.600  1.00  0.00    -0.358 N 
HETATM   21  H   UNL     1     -41.922 -49.317   9.043  1.00  0.00     0.162 HD
BRANCH  20  22
HETATM   22  C   UNL     1     -42.973 -47.462   9.084  1.00  0.00     0.148 C 
BRANCH  22  23
HETATM   23  C   UNL     1     -43.595 -47.848   7.742  1.00  0.00     0.183 C 
BRANCH  23  24
HETATM   24  O   UNL     1     -42.696 -48.672   7.002  1.00  0.00    -0.399 OA
HETATM   25  H   UNL     1     -41.815 -48.266   7.088  1.00  0.00     0.209 HD
ENDBRANCH  23  24
ENDBRANCH  22  23
ENDBRANCH  20  22
ENDBRANCH  17  18
ENDBRANCH   5  17
TORSDOF 7
ENDMDL
MODEL 2
REMARK VINA RESULT:      -6.4      2.470      3.145
REMARK  7 active torsions:
REMARK  status: ('A' for Active; 'I' for Inactive)
REMARK    1  A    between atoms: C_5  and  N_6 
REMARK    2  A    between atoms: N_6  and  C_7 
REMARK    3  A    between atoms: N_11  and  C_12 
REMARK    4  A    between atoms: C_12  and  C_13 
REMARK       I    between atoms: C_13  and  N_15 
REMARK    5  A    between atoms: N_15  and  C_16 
REMARK    6  A    between atoms: C_16  and  C_17 
REMARK    7  A    between atoms: C_17  and  O_18 
ROOT
HETATM    1  C   UNL     1     -43.025 -51.879  13.062  1.00  0.00     0.062 A 
HETATM    2  C   UNL     1     -42.379 -52.775  12.191  1.00  0.00     0.138 A 
HETATM    3  N   UNL     1     -41.355 -52.200  11.546  1.00  0.00    -0.307 N 
ATOM      4  HN  UNL     1     -40.699 -52.628  10.891  1.00  0.00     0.186 HD
HETATM    5  N   UNL     1     -41.400 -50.920  11.971  1.00  0.00    -0.293 N 
HETATM    6  C   UNL     1     -42.365 -50.689  12.908  1.00  0.00     0.141 A 
ENDROOT
BRANCH   1   7
HETATM    7  N   UNL     1     -44.086 -52.062  13.873  1.00  0.00    -0.383 N 
HETATM    8  H   UNL     1     -44.341 -53.005  14.149  1.00  0.00     0.160 HD
BRANCH   7   9
HETATM    9  C   UNL     1     -45.022 -50.998  14.240  1.00  0.00     0.085 C 
HETATM   10  C   UNL     1     -44.913 -50.671  15.744  1.00  0.00     0.026 C 
HETATM   11  C   UNL     1     -45.349 -51.843  16.629  1.00  0.00     0.006 C 
HETATM   12  C   UNL     1     -46.766 -52.334  16.311  1.00  0.00    -0.018 C 
HETATM   13  C   UNL     1     -47.823 -51.366  16.854  1.00  0.00     0.010 C 
HETATM   14  C   UNL     1     -46.947 -52.590  14.805  1.00  0.00     0.010 C 
HETATM   15  C   UNL     1     -46.486 -51.406  13.932  1.00  0.00     0.004 C 
HETATM   16  C   UNL     1     -46.734 -51.690  12.449  1.00  0.00     0.012 C 
ENDBRANCH   7   9
ENDBRANCH   1   7
BRANCH   5  17
HETATM   17  C   UNL     1     -40.484 -49.953  11.400  1.00  0.00     0.250 C 
BRANCH  17  18
HETATM   18  C   UNL     1     -39.050 -50.418  11.497  1.00  0.00     0.237 C 
HETATM   19  O   UNL     1     -38.686 -51.213  12.362  1.00  0.00    -0.272 OA
HETATM   20  N   UNL     1     -38.183 -49.856  10.584  1.00  0.00    -0.358 N 
HETATM   21  H   UNL     1     -38.546 -49.274   9.840  1.00  0.00     0.162 HD
BRANCH  20  22
HETATM   22  C   UNL     1     -36.762 -50.171  10.589  1.00  0.00     0.148 C 
BRANCH  22  23
HETATM   23  C   UNL     1     -36.293 -50.784   9.270  1.00  0.00     0.183 C 
BRANCH  23  24
HETATM   24  O   UNL     1     -36.527 -49.877   8.194  1.00  0.00    -0.399 OA
HETATM   25  H   UNL     1     -36.056 -49.055   8.418  1.00  0.00     0.209 HD
ENDBRANCH  23  24
ENDBRANCH  22  23
ENDBRANCH  20  22
ENDBRANCH  17  18
ENDBRANCH   5  17
TORSDOF 7
ENDMDL
MODEL 3
REMARK VINA RESULT:      -6.3      2.299      3.647
REMARK  7 active torsions:
REMARK  status: ('A' for Active; 'I' for Inactive)
REMARK    1  A    between atoms: C_5  and  N_6 
REMARK    2  A    between atoms: N_6  and  C_7 
REMARK    3  A    between atoms: N_11  and  C_12 
REMARK    4  A    between atoms: C_12  and  C_13 
REMARK       I    between atoms: C_13  and  N_15 
REMARK    5  A    between atoms: N_15  and  C_16 
REMARK    6  A    between atoms: C_16  and  C_17 
REMARK    7  A    between atoms: C_17  and  O_18 
ROOT
HETATM    1  C   UNL     1     -41.695 -50.397  12.137  1.00  0.00     0.062 A 
HETATM    2  C   UNL     1     -40.827 -50.127  11.064  1.00  0.00     0.138 A 
HETATM    3  N   UNL     1     -41.047 -48.919  10.529  1.00  0.00    -0.307 N 
ATOM      4  HN  UNL     1     -40.540 -48.460   9.772  1.00  0.00     0.186 HD
HETATM    5  N   UNL     1     -42.102 -48.455  11.233  1.00  0.00    -0.293 N 
HETATM    6  C   UNL     1     -42.503 -49.295  12.232  1.00  0.00     0.141 A 
ENDROOT
BRANCH   1   7
HETATM    7  N   UNL     1     -41.799 -51.487  12.923  1.00  0.00    -0.383 N 
HETATM    8  H   UNL     1     -41.448 -51.445  13.875  1.00  0.00     0.160 HD
BRANCH   7   9
HETATM    9  C   UNL     1     -42.219 -52.803  12.438  1.00  0.00     0.085 C 
HETATM   10  C   UNL     1     -43.758 -52.888  12.360  1.00  0.00     0.026 C 
HETATM   11  C   UNL     1     -44.418 -52.795  13.739  1.00  0.00     0.006 C 
HETATM   12  C   UNL     1     -43.894 -53.848  14.723  1.00  0.00    -0.018 C 
HETATM   13  C   UNL     1     -44.462 -55.235  14.404  1.00  0.00     0.010 C 
HETATM   14  C   UNL     1     -42.356 -53.857  14.768  1.00  0.00     0.010 C 
HETATM   15  C   UNL     1     -41.711 -53.934  13.369  1.00  0.00     0.004 C 
HETATM   16  C   UNL     1     -40.186 -53.992  13.473  1.00  0.00     0.012 C 
ENDBRANCH   7   9
ENDBRANCH   1   7
BRANCH   5  17
HETATM   17  C   UNL     1     -42.697 -47.188  10.863  1.00  0.00     0.250 C 
BRANCH  17  18
HETATM   18  C   UNL     1     -43.688 -47.345   9.735  1.00  0.00     0.237 C 
HETATM   19  O   UNL     1     -43.365 -47.835   8.654  1.00  0.00    -0.272 OA
HETATM   20  N   UNL     1     -44.955 -46.863   9.989  1.00  0.00    -0.358 N 
HETATM   21  H   UNL     1     -45.195 -46.548  10.920  1.00  0.00     0.162 HD
BRANCH  20  22
HETATM   22  C   UNL     1     -46.002 -46.902   8.978  1.00  0.00     0.148 C 
BRANCH  22  23
HETATM   23  C   UNL     1     -46.500 -48.320   8.702  1.00  0.00     0.183 C 
BRANCH  23  24
HETATM   24  O   UNL     1     -46.154 -48.714   7.375  1.00  0.00    -0.399 OA
HETATM   25  H   UNL     1     -45.215 -48.967   7.398  1.00  0.00     0.209 HD
ENDBRANCH  23  24
ENDBRANCH  22  23
ENDBRANCH  20  22
ENDBRANCH  17  18
ENDBRANCH   5  17
TORSDOF 7
ENDMDL
MODEL 4
REMARK VINA RESULT:      -6.3      1.587      1.848
REMARK  7 active torsions:
REMARK  status: ('A' for Active; 'I' for Inactive)
REMARK    1  A    between atoms: C_5  and  N_6 
REMARK    2  A    between atoms: N_6  and  C_7 
REMARK    3  A    between atoms: N_11  and  C_12 
REMARK    4  A    between atoms: C_12  and  C_13 
REMARK       I    between atoms: C_13  and  N_15 
REMARK    5  A    between atoms: N_15  and  C_16 
REMARK    6  A    between atoms: C_16  and  C_17 
REMARK    7  A    between atoms: C_17  and  O_18 
ROOT
HETATM    1  C   UNL     1     -42.928 -51.878  12.898  1.00  0.00     0.062 A 
HETATM    2  C   UNL     1     -42.272 -52.774  12.034  1.00  0.00     0.138 A 
HETATM    3  N   UNL     1     -41.230 -52.204  11.414  1.00  0.00    -0.307 N 
ATOM      4  HN  UNL     1     -40.565 -52.633  10.770  1.00  0.00     0.186 HD
HETATM    5  N   UNL     1     -41.273 -50.926  11.846  1.00  0.00    -0.293 N 
HETATM    6  C   UNL     1     -42.255 -50.693  12.765  1.00  0.00     0.141 A 
ENDROOT
BRANCH   1   7
HETATM    7  N   UNL     1     -44.007 -52.057  13.685  1.00  0.00    -0.383 N 
HETATM    8  H   UNL     1     -44.270 -53.000  13.956  1.00  0.00     0.160 HD
BRANCH   7   9
HETATM    9  C   UNL     1     -44.948 -50.990  14.031  1.00  0.00     0.085 C 
HETATM   10  C   UNL     1     -44.836 -50.629  15.527  1.00  0.00     0.026 C 
HETATM   11  C   UNL     1     -45.264 -51.784  16.439  1.00  0.00     0.006 C 
HETATM   12  C   UNL     1     -46.680 -52.289  16.137  1.00  0.00    -0.018 C 
HETATM   13  C   UNL     1     -47.740 -51.314  16.660  1.00  0.00     0.010 C 
HETATM   14  C   UNL     1     -46.863 -52.579  14.636  1.00  0.00     0.010 C 
HETATM   15  C   UNL     1     -46.410 -51.412  13.736  1.00  0.00     0.004 C 
HETATM   16  C   UNL     1     -46.661 -51.731  12.261  1.00  0.00     0.012 C 
ENDBRANCH   7   9
ENDBRANCH   1   7
BRANCH   5  17
HETATM   17  C   UNL     1     -40.338 -49.964  11.301  1.00  0.00     0.250 C 
BRANCH  17  18
HETATM   18  C   UNL     1     -40.975 -48.607  11.119  1.00  0.00     0.237 C 
HETATM   19  O   UNL     1     -41.839 -48.407  10.268  1.00  0.00    -0.272 OA
HETATM   20  N   UNL     1     -40.488 -47.610  11.939  1.00  0.00    -0.358 N 
HETATM   21  H   UNL     1     -39.840 -47.843  12.681  1.00  0.00     0.162 HD
BRANCH  20  22
HETATM   22  C   UNL     1     -40.972 -46.241  11.844  1.00  0.00     0.148 C 
BRANCH  22  23
HETATM   23  C   UNL     1     -40.263 -45.443  10.750  1.00  0.00     0.183 C 
BRANCH  23  24
HETATM   24  O   UNL     1     -41.034 -45.460   9.550  1.00  0.00    -0.399 OA
HETATM   25  H   UNL     1     -41.543 -44.630   9.536  1.00  0.00     0.209 HD
ENDBRANCH  23  24
ENDBRANCH  22  23
ENDBRANCH  20  22
ENDBRANCH  17  18
ENDBRANCH   5  17
TORSDOF 7
ENDMDL
MODEL 5
REMARK VINA RESULT:      -6.2      2.282      3.779
REMARK  7 active torsions:
REMARK  status: ('A' for Active; 'I' for Inactive)
REMARK    1  A    between atoms: C_5  and  N_6 
REMARK    2  A    between atoms: N_6  and  C_7 
REMARK    3  A    between atoms: N_11  and  C_12 
REMARK    4  A    between atoms: C_12  and  C_13 
REMARK       I    between atoms: C_13  and  N_15 
REMARK    5  A    between atoms: N_15  and  C_16 
REMARK    6  A    between atoms: C_16  and  C_17 
REMARK    7  A    between atoms: C_17  and  O_18 
ROOT
HETATM    1  C   UNL     1     -41.776 -49.552  11.544  1.00  0.00     0.062 A 
HETATM    2  C   UNL     1     -40.552 -48.954  11.195  1.00  0.00     0.138 A 
HETATM    3  N   UNL     1     -40.712 -47.699  10.753  1.00  0.00    -0.307 N 
ATOM      4  HN  UNL     1     -39.995 -47.030  10.473  1.00  0.00     0.186 HD
HETATM    5  N   UNL     1     -42.052 -47.534  10.767  1.00  0.00    -0.293 N 
HETATM    6  C   UNL     1     -42.729 -48.609  11.267  1.00  0.00     0.141 A 
ENDROOT
BRANCH   1   7
HETATM    7  N   UNL     1     -42.041 -50.786  12.017  1.00  0.00    -0.383 N 
HETATM    8  H   UNL     1     -42.329 -51.513  11.368  1.00  0.00     0.160 HD
BRANCH   7   9
HETATM    9  C   UNL     1     -42.124 -51.111  13.442  1.00  0.00     0.085 C 
HETATM   10  C   UNL     1     -40.967 -52.046  13.855  1.00  0.00     0.026 C 
HETATM   11  C   UNL     1     -41.054 -53.417  13.176  1.00  0.00     0.006 C 
HETATM   12  C   UNL     1     -42.396 -54.119  13.421  1.00  0.00    -0.018 C 
HETATM   13  C   UNL     1     -42.477 -54.678  14.846  1.00  0.00     0.010 C 
HETATM   14  C   UNL     1     -43.581 -53.190  13.104  1.00  0.00     0.010 C 
HETATM   15  C   UNL     1     -43.465 -51.811  13.782  1.00  0.00     0.004 C 
HETATM   16  C   UNL     1     -44.690 -50.947  13.477  1.00  0.00     0.012 C 
ENDBRANCH   7   9
ENDBRANCH   1   7
BRANCH   5  17
HETATM   17  C   UNL     1     -42.619 -46.306  10.249  1.00  0.00     0.250 C 
BRANCH  17  18
HETATM   18  C   UNL     1     -43.724 -46.576   9.256  1.00  0.00     0.237 C 
HETATM   19  O   UNL     1     -43.493 -46.730   8.058  1.00  0.00    -0.272 OA
HETATM   20  N   UNL     1     -44.999 -46.591   9.780  1.00  0.00    -0.358 N 
HETATM   21  H   UNL     1     -45.131 -46.544  10.782  1.00  0.00     0.162 HD
BRANCH  20  22
HETATM   22  C   UNL     1     -46.168 -46.789   8.935  1.00  0.00     0.148 C 
BRANCH  22  23
HETATM   23  C   UNL     1     -46.436 -48.266   8.642  1.00  0.00     0.183 C 
BRANCH  23  24
HETATM   24  O   UNL     1     -46.009 -48.591   7.320  1.00  0.00    -0.399 OA
HETATM   25  H   UNL     1     -46.642 -49.247   6.980  1.00  0.00     0.209 HD
ENDBRANCH  23  24
ENDBRANCH  22  23
ENDBRANCH  20  22
ENDBRANCH  17  18
ENDBRANCH   5  17
TORSDOF 7
ENDMDL
MODEL 6
REMARK VINA RESULT:      -6.0      2.537      3.745
REMARK  7 active torsions:
REMARK  status: ('A' for Active; 'I' for Inactive)
REMARK    1  A    between atoms: C_5  and  N_6 
REMARK    2  A    between atoms: N_6  and  C_7 
REMARK    3  A    between atoms: N_11  and  C_12 
REMARK    4  A    between atoms: C_12  and  C_13 
REMARK       I    between atoms: C_13  and  N_15 
REMARK    5  A    between atoms: N_15  and  C_16 
REMARK    6  A    between atoms: C_16  and  C_17 
REMARK    7  A    between atoms: C_17  and  O_18 
ROOT
HETATM    1  C   UNL     1     -41.566 -51.183  12.511  1.00  0.00     0.062 A 
HETATM    2  C   UNL     1     -40.467 -51.224  11.634  1.00  0.00     0.138 A 
HETATM    3  N   UNL     1     -40.358 -50.101  10.910  1.00  0.00    -0.307 N 
ATOM      4  HN  UNL     1     -39.636 -49.853  10.233  1.00  0.00     0.186 HD
HETATM    5  N   UNL     1     -41.432 -49.379  11.293  1.00  0.00    -0.293 N 
HETATM    6  C   UNL     1     -42.167 -49.975  12.278  1.00  0.00     0.141 A 
ENDROOT
BRANCH   1   7
HETATM    7  N   UNL     1     -42.017 -52.101  13.389  1.00  0.00    -0.383 N 
HETATM    8  H   UNL     1     -41.951 -51.907  14.383  1.00  0.00     0.160 HD
BRANCH   7   9
HETATM    9  C   UNL     1     -42.429 -53.454  13.011  1.00  0.00     0.085 C 
HETATM   10  C   UNL     1     -43.750 -53.418  12.214  1.00  0.00     0.026 C 
HETATM   11  C   UNL     1     -44.927 -52.914  13.057  1.00  0.00     0.006 C 
HETATM   12  C   UNL     1     -45.125 -53.722  14.345  1.00  0.00    -0.018 C 
HETATM   13  C   UNL     1     -45.755 -55.088  14.051  1.00  0.00     0.010 C 
HETATM   14  C   UNL     1     -43.809 -53.858  15.130  1.00  0.00     0.010 C 
HETATM   15  C   UNL     1     -42.634 -54.349  14.260  1.00  0.00     0.004 C 
HETATM   16  C   UNL     1     -41.365 -54.515  15.099  1.00  0.00     0.012 C 
ENDBRANCH   7   9
ENDBRANCH   1   7
BRANCH   5  17
HETATM   17  C   UNL     1     -41.707 -48.118  10.637  1.00  0.00     0.250 C 
BRANCH  17  18
HETATM   18  C   UNL     1     -40.653 -47.083  10.954  1.00  0.00     0.237 C 
HETATM   19  O   UNL     1     -39.933 -47.177  11.946  1.00  0.00    -0.272 OA
HETATM   20  N   UNL     1     -40.591 -46.016  10.083  1.00  0.00    -0.358 N 
HETATM   21  H   UNL     1     -41.145 -46.027   9.235  1.00  0.00     0.162 HD
BRANCH  20  22
HETATM   22  C   UNL     1     -39.659 -44.917  10.288  1.00  0.00     0.148 C 
BRANCH  22  23
HETATM   23  C   UNL     1     -40.235 -43.817  11.180  1.00  0.00     0.183 C 
BRANCH  23  24
HETATM   24  O   UNL     1     -40.635 -42.700  10.388  1.00  0.00    -0.399 OA
HETATM   25  H   UNL     1     -40.177 -42.789   9.534  1.00  0.00     0.209 HD
ENDBRANCH  23  24
ENDBRANCH  22  23
ENDBRANCH  20  22
ENDBRANCH  17  18
ENDBRANCH   5  17
TORSDOF 7
ENDMDL
MODEL 7
REMARK VINA RESULT:      -5.9      1.754      2.380
REMARK  7 active torsions:
REMARK  status: ('A' for Active; 'I' for Inactive)
REMARK    1  A    between atoms: C_5  and  N_6 
REMARK    2  A    between atoms: N_6  and  C_7 
REMARK    3  A    between atoms: N_11  and  C_12 
REMARK    4  A    between atoms: C_12  and  C_13 
REMARK       I    between atoms: C_13  and  N_15 
REMARK    5  A    between atoms: N_15  and  C_16 
REMARK    6  A    between atoms: C_16  and  C_17 
REMARK    7  A    between atoms: C_17  and  O_18 
ROOT
HETATM    1  C   UNL     1     -41.929 -51.585  12.848  1.00  0.00     0.062 A 
HETATM    2  C   UNL     1     -41.150 -51.973  11.743  1.00  0.00     0.138 A 
HETATM    3  N   UNL     1     -40.602 -50.921  11.119  1.00  0.00    -0.307 N 
ATOM      4  HN  UNL     1     -39.968 -50.918  10.320  1.00  0.00     0.186 HD
HETATM    5  N   UNL     1     -41.093 -49.865  11.802  1.00  0.00    -0.293 N 
HETATM    6  C   UNL     1     -41.867 -50.217  12.870  1.00  0.00     0.141 A 
ENDROOT
BRANCH   1   7
HETATM    7  N   UNL     1     -42.640 -52.329  13.719  1.00  0.00    -0.383 N 
HETATM    8  H   UNL     1     -42.369 -52.339  14.697  1.00  0.00     0.160 HD
BRANCH   7   9
HETATM    9  C   UNL     1     -43.676 -53.283  13.317  1.00  0.00     0.085 C 
HETATM   10  C   UNL     1     -44.914 -52.543  12.768  1.00  0.00     0.026 C 
HETATM   11  C   UNL     1     -45.611 -51.698  13.840  1.00  0.00     0.006 C 
HETATM   12  C   UNL     1     -46.005 -52.512  15.078  1.00  0.00    -0.018 C 
HETATM   13  C   UNL     1     -47.227 -53.392  14.796  1.00  0.00     0.010 C 
HETATM   14  C   UNL     1     -44.819 -53.337  15.608  1.00  0.00     0.010 C 
HETATM   15  C   UNL     1     -44.121 -54.166  14.511  1.00  0.00     0.004 C 
HETATM   16  C   UNL     1     -42.985 -55.004  15.099  1.00  0.00     0.012 C 
ENDBRANCH   7   9
ENDBRANCH   1   7
BRANCH   5  17
HETATM   17  C   UNL     1     -40.791 -48.525  11.344  1.00  0.00     0.250 C 
BRANCH  17  18
HETATM   18  C   UNL     1     -42.045 -47.758  10.994  1.00  0.00     0.237 C 
HETATM   19  O   UNL     1     -42.503 -46.894  11.738  1.00  0.00    -0.272 OA
HETATM   20  N   UNL     1     -42.654 -48.129   9.813  1.00  0.00    -0.358 N 
HETATM   21  H   UNL     1     -42.194 -48.784   9.195  1.00  0.00     0.162 HD
BRANCH  20  22
HETATM   22  C   UNL     1     -43.897 -47.512   9.371  1.00  0.00     0.148 C 
BRANCH  22  23
HETATM   23  C   UNL     1     -43.665 -46.208   8.608  1.00  0.00     0.183 C 
BRANCH  23  24
HETATM   24  O   UNL     1     -43.727 -45.097   9.501  1.00  0.00    -0.399 OA
HETATM   25  H   UNL     1     -44.596 -45.143   9.938  1.00  0.00     0.209 HD
ENDBRANCH  23  24
ENDBRANCH  22  23
ENDBRANCH  20  22
ENDBRANCH  17  18
ENDBRANCH   5  17
TORSDOF 7
ENDMDL
MODEL 8
REMARK VINA RESULT:      -5.6      3.321      4.993
REMARK  7 active torsions:
REMARK  status: ('A' for Active; 'I' for Inactive)
REMARK    1  A    between atoms: C_5  and  N_6 
REMARK    2  A    between atoms: N_6  and  C_7 
REMARK    3  A    between atoms: N_11  and  C_12 
REMARK    4  A    between atoms: C_12  and  C_13 
REMARK       I    between atoms: C_13  and  N_15 
REMARK    5  A    between atoms: N_15  and  C_16 
REMARK    6  A    between atoms: C_16  and  C_17 
REMARK    7  A    between atoms: C_17  and  O_18 
ROOT
HETATM    1  C   UNL     1     -40.602 -49.734  11.741  1.00  0.00     0.062 A 
HETATM    2  C   UNL     1     -39.602 -48.750  11.636  1.00  0.00     0.138 A 
HETATM    3  N   UNL     1     -40.073 -47.607  11.120  1.00  0.00    -0.307 N 
ATOM      4  HN  UNL     1     -39.578 -46.728  10.971  1.00  0.00     0.186 HD
HETATM    5  N   UNL     1     -41.362 -47.900  10.843  1.00  0.00    -0.293 N 
HETATM    6  C   UNL     1     -41.733 -49.155  11.231  1.00  0.00     0.141 A 
ENDROOT
BRANCH   1   7
HETATM    7  N   UNL     1     -40.535 -51.001  12.196  1.00  0.00    -0.383 N 
HETATM    8  H   UNL     1     -40.234 -51.738  11.565  1.00  0.00     0.160 HD
BRANCH   7   9
HETATM    9  C   UNL     1     -41.049 -51.427  13.499  1.00  0.00     0.085 C 
HETATM   10  C   UNL     1     -39.896 -51.601  14.510  1.00  0.00     0.026 C 
HETATM   11  C   UNL     1     -38.945 -52.738  14.120  1.00  0.00     0.006 C 
HETATM   12  C   UNL     1     -39.666 -54.077  13.926  1.00  0.00    -0.018 C 
HETATM   13  C   UNL     1     -40.058 -54.695  15.272  1.00  0.00     0.010 C 
HETATM   14  C   UNL     1     -40.880 -53.931  12.991  1.00  0.00     0.010 C 
HETATM   15  C   UNL     1     -41.814 -52.771  13.391  1.00  0.00     0.004 C 
HETATM   16  C   UNL     1     -43.028 -52.702  12.462  1.00  0.00     0.012 C 
ENDBRANCH   7   9
ENDBRANCH   1   7
BRANCH   5  17
HETATM   17  C   UNL     1     -42.181 -46.914  10.169  1.00  0.00     0.250 C 
BRANCH  17  18
HETATM   18  C   UNL     1     -41.819 -45.508  10.584  1.00  0.00     0.237 C 
HETATM   19  O   UNL     1     -40.802 -44.953  10.170  1.00  0.00    -0.272 OA
HETATM   20  N   UNL     1     -42.678 -44.918  11.487  1.00  0.00    -0.358 N 
HETATM   21  H   UNL     1     -43.544 -45.380  11.732  1.00  0.00     0.162 HD
BRANCH  20  22
HETATM   22  C   UNL     1     -42.430 -43.584  12.016  1.00  0.00     0.148 C 
BRANCH  22  23
HETATM   23  C   UNL     1     -42.900 -42.481  11.068  1.00  0.00     0.183 C 
BRANCH  23  24
HETATM   24  O   UNL     1     -41.806 -42.004  10.285  1.00  0.00    -0.399 OA
HETATM   25  H   UNL     1     -40.996 -42.316  10.726  1.00  0.00     0.209 HD
ENDBRANCH  23  24
ENDBRANCH  22  23
ENDBRANCH  20  22
ENDBRANCH  17  18
ENDBRANCH   5  17
TORSDOF 7
ENDMDL
MODEL 9
REMARK VINA RESULT:      -5.5      4.303      6.211
REMARK  7 active torsions:
REMARK  status: ('A' for Active; 'I' for Inactive)
REMARK    1  A    between atoms: C_5  and  N_6 
REMARK    2  A    between atoms: N_6  and  C_7 
REMARK    3  A    between atoms: N_11  and  C_12 
REMARK    4  A    between atoms: C_12  and  C_13 
REMARK       I    between atoms: C_13  and  N_15 
REMARK    5  A    between atoms: N_15  and  C_16 
REMARK    6  A    between atoms: C_16  and  C_17 
REMARK    7  A    between atoms: C_17  and  O_18 
ROOT
HETATM    1  C   UNL     1     -42.813 -52.698  13.356  1.00  0.00     0.062 A 
HETATM    2  C   UNL     1     -41.853 -51.708  13.079  1.00  0.00     0.138 A 
HETATM    3  N   UNL     1     -40.609 -52.205  13.057  1.00  0.00    -0.307 N 
ATOM      4  HN  UNL     1     -39.737 -51.719  12.845  1.00  0.00     0.186 HD
HETATM    5  N   UNL     1     -40.787 -53.503  13.384  1.00  0.00    -0.293 N 
HETATM    6  C   UNL     1     -42.098 -53.852  13.539  1.00  0.00     0.141 A 
ENDROOT
BRANCH   1   7
HETATM    7  N   UNL     1     -44.153 -52.607  13.470  1.00  0.00    -0.383 N 
HETATM    8  H   UNL     1     -44.731 -53.376  13.146  1.00  0.00     0.160 HD
BRANCH   7   9
HETATM    9  C   UNL     1     -44.854 -51.383  13.864  1.00  0.00     0.085 C 
HETATM   10  C   UNL     1     -44.636 -51.089  15.364  1.00  0.00     0.026 C 
HETATM   11  C   UNL     1     -45.262 -52.159  16.265  1.00  0.00     0.006 C 
HETATM   12  C   UNL     1     -46.757 -52.366  15.994  1.00  0.00    -0.018 C 
HETATM   13  C   UNL     1     -47.589 -51.214  16.567  1.00  0.00     0.010 C 
HETATM   14  C   UNL     1     -47.031 -52.576  14.494  1.00  0.00     0.010 C 
HETATM   15  C   UNL     1     -46.378 -51.499  13.604  1.00  0.00     0.004 C 
HETATM   16  C   UNL     1     -46.724 -51.725  12.131  1.00  0.00     0.012 C 
ENDBRANCH   7   9
ENDBRANCH   1   7
BRANCH   5  17
HETATM   17  C   UNL     1     -39.628 -54.353  13.559  1.00  0.00     0.250 C 
BRANCH  17  18
HETATM   18  C   UNL     1     -39.159 -54.369  14.994  1.00  0.00     0.237 C 
HETATM   19  O   UNL     1     -39.383 -53.432  15.758  1.00  0.00    -0.272 OA
HETATM   20  N   UNL     1     -38.430 -55.479  15.366  1.00  0.00    -0.358 N 
HETATM   21  H   UNL     1     -38.346 -56.261  14.728  1.00  0.00     0.162 HD
BRANCH  20  22
HETATM   22  C   UNL     1     -37.871 -55.611  16.703  1.00  0.00     0.148 C 
BRANCH  22  23
HETATM   23  C   UNL     1     -38.792 -56.377  17.652  1.00  0.00     0.183 C 
BRANCH  23  24
HETATM   24  O   UNL     1     -39.403 -57.471  16.969  1.00  0.00    -0.399 OA
HETATM   25  H   UNL     1     -39.936 -57.085  16.252  1.00  0.00     0.209 HD
ENDBRANCH  23  24
ENDBRANCH  22  23
ENDBRANCH  20  22
ENDBRANCH  17  18
ENDBRANCH   5  17
TORSDOF 7
ENDMDL
