MODEL 1
REMARK VINA RESULT:      -5.8      0.000      0.000
REMARK  7 active torsions:
REMARK  status: ('A' for Active; 'I' for Inactive)
REMARK    1  A    between atoms: S_2  and  N_5 
REMARK    2  A    between atoms: N_5  and  C_6 
REMARK    3  A    between atoms: C_6  and  C_7 
REMARK    4  A    between atoms: C_7  and  C_8 
REMARK       I    between atoms: C_8  and  N_10 
REMARK    5  A    between atoms: N_10  and  C_11 
REMARK    6  A    between atoms: C_11  and  C_12 
REMARK    7  A    between atoms: C_15  and  N_19 
ROOT
HETATM    1  C   UNL     1     -41.784 -50.736  13.630  1.00  0.00    -0.025 A 
HETATM    2  C   UNL     1     -42.220 -49.598  14.296  1.00  0.00     0.014 A 
HETATM    3  C   UNL     1     -42.651 -48.485  13.567  1.00  0.00     0.049 A 
HETATM    4  C   UNL     1     -42.645 -48.495  12.170  1.00  0.00     0.103 A 
HETATM    5  N   UNL     1     -42.189 -49.597  11.531  1.00  0.00    -0.352 N 
ATOM      6  HN  UNL     1     -42.158 -49.620  10.511  1.00  0.00     0.166 HD
HETATM    7  C   UNL     1     -41.775 -50.671  12.248  1.00  0.00     0.098 A 
ENDROOT
BRANCH   1   8
HETATM    8  C   UNL     1     -41.375 -51.971  14.369  1.00  0.00     0.162 C 
BRANCH   8   9
HETATM    9  N   UNL     1     -42.496 -52.798  14.754  1.00  0.00    -0.357 N 
HETATM   10  C   UNL     1     -42.691 -54.008  14.131  1.00  0.00     0.218 C 
HETATM   11  O   UNL     1     -41.962 -54.417  13.231  1.00  0.00    -0.274 OA
HETATM   12  H   UNL     1     -43.128 -52.472  15.474  1.00  0.00     0.162 HD
BRANCH  10  13
HETATM   13  C   UNL     1     -43.848 -54.830  14.650  1.00  0.00     0.118 C 
BRANCH  13  14
HETATM   14  C   UNL     1     -44.917 -54.868  13.566  1.00  0.00     0.113 C 
BRANCH  14  15
HETATM   15  N   UNL     1     -44.772 -53.717  12.648  1.00  0.00    -0.220 NA
HETATM   16  H   UNL     1     -43.829 -53.328  12.580  1.00  0.00     0.139 HD
BRANCH  15  17
HETATM   17  S   UNL     1     -45.861 -52.442  12.873  1.00  0.00     0.205 S 
HETATM   18  C   UNL     1     -46.830 -52.994  14.264  1.00  0.00     0.179 C 
HETATM   19  O   UNL     1     -46.700 -52.428  11.697  1.00  0.00    -0.212 OA
HETATM   20  O   UNL     1     -45.090 -51.282  13.261  1.00  0.00    -0.212 OA
ENDBRANCH  15  17
ENDBRANCH  14  15
ENDBRANCH  13  14
ENDBRANCH  10  13
ENDBRANCH   8   9
ENDBRANCH   1   8
BRANCH   4  21
HETATM   21  N   UNL     1     -43.077 -47.432  11.413  1.00  0.00    -0.363 N 
HETATM   22  C   UNL     1     -43.987 -47.502  10.265  1.00  0.00     0.150 C 
HETATM   23  C   UNL     1     -43.278 -46.972   9.008  1.00  0.00     0.187 C 
HETATM   24  O   UNL     1     -42.796 -45.634   9.205  1.00  0.00    -0.388 OA
HETATM   25  C   UNL     1     -41.863 -45.596  10.299  1.00  0.00     0.187 C 
HETATM   26  C   UNL     1     -42.495 -46.094  11.613  1.00  0.00     0.150 C 
ENDBRANCH   4  21
TORSDOF 7
ENDMDL
MODEL 2
REMARK VINA RESULT:      -5.7      1.851      2.288
REMARK  7 active torsions:
REMARK  status: ('A' for Active; 'I' for Inactive)
REMARK    1  A    between atoms: S_2  and  N_5 
REMARK    2  A    between atoms: N_5  and  C_6 
REMARK    3  A    between atoms: C_6  and  C_7 
REMARK    4  A    between atoms: C_7  and  C_8 
REMARK       I    between atoms: C_8  and  N_10 
REMARK    5  A    between atoms: N_10  and  C_11 
REMARK    6  A    between atoms: C_11  and  C_12 
REMARK    7  A    between atoms: C_15  and  N_19 
ROOT
HETATM    1  C   UNL     1     -42.596 -51.069  13.212  1.00  0.00    -0.025 A 
HETATM    2  C   UNL     1     -43.320 -49.899  13.393  1.00  0.00     0.014 A 
HETATM    3  C   UNL     1     -43.133 -48.820  12.523  1.00  0.00     0.049 A 
HETATM    4  C   UNL     1     -42.220 -48.898  11.469  1.00  0.00     0.103 A 
HETATM    5  N   UNL     1     -41.497 -50.032  11.320  1.00  0.00    -0.352 N 
ATOM      6  HN  UNL     1     -40.810 -50.104  10.569  1.00  0.00     0.166 HD
HETATM    7  C   UNL     1     -41.687 -51.072  12.169  1.00  0.00     0.098 A 
ENDROOT
BRANCH   1   8
HETATM    8  C   UNL     1     -42.811 -52.269  14.081  1.00  0.00     0.162 C 
BRANCH   8   9
HETATM    9  N   UNL     1     -43.983 -53.031  13.715  1.00  0.00    -0.357 N 
HETATM   10  C   UNL     1     -44.262 -54.205  14.373  1.00  0.00     0.218 C 
HETATM   11  O   UNL     1     -43.539 -54.659  15.256  1.00  0.00    -0.274 OA
HETATM   12  H   UNL     1     -44.582 -52.693  12.971  1.00  0.00     0.162 HD
BRANCH  10  13
HETATM   13  C   UNL     1     -45.545 -54.892  13.967  1.00  0.00     0.118 C 
BRANCH  13  14
HETATM   14  C   UNL     1     -46.703 -54.127  14.594  1.00  0.00     0.113 C 
BRANCH  14  15
HETATM   15  N   UNL     1     -46.223 -53.255  15.688  1.00  0.00    -0.220 NA
HETATM   16  H   UNL     1     -46.406 -53.599  16.634  1.00  0.00     0.139 HD
BRANCH  15  17
HETATM   17  S   UNL     1     -46.693 -51.632  15.610  1.00  0.00     0.205 S 
HETATM   18  C   UNL     1     -45.345 -50.793  16.421  1.00  0.00     0.179 C 
HETATM   19  O   UNL     1     -47.874 -51.524  16.436  1.00  0.00    -0.212 OA
HETATM   20  O   UNL     1     -46.715 -51.258  14.214  1.00  0.00    -0.212 OA
ENDBRANCH  15  17
ENDBRANCH  14  15
ENDBRANCH  13  14
ENDBRANCH  10  13
ENDBRANCH   8   9
ENDBRANCH   1   8
BRANCH   4  21
HETATM   21  N   UNL     1     -42.017 -47.871  10.578  1.00  0.00    -0.363 N 
HETATM   22  C   UNL     1     -41.064 -46.767  10.733  1.00  0.00     0.150 C 
HETATM   23  C   UNL     1     -41.820 -45.428  10.747  1.00  0.00     0.187 C 
HETATM   24  O   UNL     1     -42.614 -45.263   9.562  1.00  0.00    -0.388 OA
HETATM   25  C   UNL     1     -43.580 -46.324   9.457  1.00  0.00     0.187 C 
HETATM   26  C   UNL     1     -42.910 -47.712   9.417  1.00  0.00     0.150 C 
ENDBRANCH   4  21
TORSDOF 7
ENDMDL
MODEL 3
REMARK VINA RESULT:      -5.7      2.504      7.103
REMARK  7 active torsions:
REMARK  status: ('A' for Active; 'I' for Inactive)
REMARK    1  A    between atoms: S_2  and  N_5 
REMARK    2  A    between atoms: N_5  and  C_6 
REMARK    3  A    between atoms: C_6  and  C_7 
REMARK    4  A    between atoms: C_7  and  C_8 
REMARK       I    between atoms: C_8  and  N_10 
REMARK    5  A    between atoms: N_10  and  C_11 
REMARK    6  A    between atoms: C_11  and  C_12 
REMARK    7  A    between atoms: C_15  and  N_19 
ROOT
HETATM    1  C   UNL     1     -41.501 -50.965  12.058  1.00  0.00    -0.025 A 
HETATM    2  C   UNL     1     -42.466 -50.356  12.848  1.00  0.00     0.014 A 
HETATM    3  C   UNL     1     -43.338 -51.138  13.612  1.00  0.00     0.049 A 
HETATM    4  C   UNL     1     -43.258 -52.532  13.591  1.00  0.00     0.103 A 
HETATM    5  N   UNL     1     -42.334 -53.117  12.793  1.00  0.00    -0.352 N 
ATOM      6  HN  UNL     1     -42.270 -54.135  12.746  1.00  0.00     0.166 HD
HETATM    7  C   UNL     1     -41.493 -52.348  12.057  1.00  0.00     0.098 A 
ENDROOT
BRANCH   1   8
HETATM    8  C   UNL     1     -40.508 -50.166  11.274  1.00  0.00     0.162 C 
BRANCH   8   9
HETATM    9  N   UNL     1     -41.056 -48.934  10.753  1.00  0.00    -0.357 N 
HETATM   10  C   UNL     1     -40.625 -47.731  11.260  1.00  0.00     0.218 C 
HETATM   11  O   UNL     1     -39.799 -47.650  12.165  1.00  0.00    -0.274 OA
HETATM   12  H   UNL     1     -41.759 -48.974  10.025  1.00  0.00     0.162 HD
BRANCH  10  13
HETATM   13  C   UNL     1     -41.206 -46.500  10.603  1.00  0.00     0.118 C 
BRANCH  13  14
HETATM   14  C   UNL     1     -42.647 -46.357  11.074  1.00  0.00     0.113 C 
BRANCH  14  15
HETATM   15  N   UNL     1     -43.524 -47.323  10.377  1.00  0.00    -0.220 NA
HETATM   16  H   UNL     1     -43.110 -48.241  10.200  1.00  0.00     0.139 HD
BRANCH  15  17
HETATM   17  S   UNL     1     -44.246 -46.779   8.947  1.00  0.00     0.205 S 
HETATM   18  C   UNL     1     -43.524 -47.844   7.713  1.00  0.00     0.179 C 
HETATM   19  O   UNL     1     -43.757 -45.434   8.747  1.00  0.00    -0.212 OA
HETATM   20  O   UNL     1     -45.661 -47.057   9.047  1.00  0.00    -0.212 OA
ENDBRANCH  15  17
ENDBRANCH  14  15
ENDBRANCH  13  14
ENDBRANCH  10  13
ENDBRANCH   8   9
ENDBRANCH   1   8
BRANCH   4  21
HETATM   21  N   UNL     1     -44.079 -53.341  14.339  1.00  0.00    -0.363 N 
HETATM   22  C   UNL     1     -44.102 -54.807  14.319  1.00  0.00     0.150 C 
HETATM   23  C   UNL     1     -45.492 -55.297  13.878  1.00  0.00     0.187 C 
HETATM   24  O   UNL     1     -46.524 -54.777  14.730  1.00  0.00    -0.388 OA
HETATM   25  C   UNL     1     -46.522 -53.339  14.693  1.00  0.00     0.187 C 
HETATM   26  C   UNL     1     -45.168 -52.753  15.139  1.00  0.00     0.150 C 
ENDBRANCH   4  21
TORSDOF 7
ENDMDL
MODEL 4
REMARK VINA RESULT:      -5.7      3.036      6.644
REMARK  7 active torsions:
REMARK  status: ('A' for Active; 'I' for Inactive)
REMARK    1  A    between atoms: S_2  and  N_5 
REMARK    2  A    between atoms: N_5  and  C_6 
REMARK    3  A    between atoms: C_6  and  C_7 
REMARK    4  A    between atoms: C_7  and  C_8 
REMARK       I    between atoms: C_8  and  N_10 
REMARK    5  A    between atoms: N_10  and  C_11 
REMARK    6  A    between atoms: C_11  and  C_12 
REMARK    7  A    between atoms: C_15  and  N_19 
ROOT
HETATM    1  C   UNL     1     -40.345 -52.989  14.182  1.00  0.00    -0.025 A 
HETATM    2  C   UNL     1     -40.761 -53.991  13.316  1.00  0.00     0.014 A 
HETATM    3  C   UNL     1     -42.127 -54.224  13.122  1.00  0.00     0.049 A 
HETATM    4  C   UNL     1     -43.087 -53.463  13.793  1.00  0.00     0.103 A 
HETATM    5  N   UNL     1     -42.671 -52.509  14.658  1.00  0.00    -0.352 N 
ATOM      6  HN  UNL     1     -43.355 -51.954  15.174  1.00  0.00     0.166 HD
HETATM    7  C   UNL     1     -41.345 -52.292  14.838  1.00  0.00     0.098 A 
ENDROOT
BRANCH   1   8
HETATM    8  C   UNL     1     -38.897 -52.664  14.372  1.00  0.00     0.162 C 
BRANCH   8   9
HETATM    9  N   UNL     1     -38.573 -51.297  14.032  1.00  0.00    -0.357 N 
HETATM   10  C   UNL     1     -37.663 -51.043  13.035  1.00  0.00     0.218 C 
HETATM   11  O   UNL     1     -37.082 -51.935  12.422  1.00  0.00    -0.274 OA
HETATM   12  H   UNL     1     -39.017 -50.543  14.541  1.00  0.00     0.162 HD
BRANCH  10  13
HETATM   13  C   UNL     1     -37.444 -49.583  12.707  1.00  0.00     0.118 C 
BRANCH  13  14
HETATM   14  C   UNL     1     -38.392 -49.213  11.575  1.00  0.00     0.113 C 
BRANCH  14  15
HETATM   15  N   UNL     1     -39.491 -50.196  11.468  1.00  0.00    -0.220 NA
HETATM   16  H   UNL     1     -39.602 -50.630  10.549  1.00  0.00     0.139 HD
BRANCH  15  17
HETATM   17  S   UNL     1     -41.011 -49.677  12.001  1.00  0.00     0.205 S 
HETATM   18  C   UNL     1     -41.472 -48.479  10.764  1.00  0.00     0.179 C 
HETATM   19  O   UNL     1     -40.776 -48.991  13.251  1.00  0.00    -0.212 OA
HETATM   20  O   UNL     1     -41.904 -50.811  11.923  1.00  0.00    -0.212 OA
ENDBRANCH  15  17
ENDBRANCH  14  15
ENDBRANCH  13  14
ENDBRANCH  10  13
ENDBRANCH   8   9
ENDBRANCH   1   8
BRANCH   4  21
HETATM   21  N   UNL     1     -44.438 -53.642  13.618  1.00  0.00    -0.363 N 
HETATM   22  C   UNL     1     -45.357 -52.706  12.962  1.00  0.00     0.150 C 
HETATM   23  C   UNL     1     -46.439 -52.258  13.959  1.00  0.00     0.187 C 
HETATM   24  O   UNL     1     -47.148 -53.382  14.502  1.00  0.00    -0.388 OA
HETATM   25  C   UNL     1     -46.239 -54.259  15.189  1.00  0.00     0.187 C 
HETATM   26  C   UNL     1     -45.124 -54.778  14.260  1.00  0.00     0.150 C 
ENDBRANCH   4  21
TORSDOF 7
ENDMDL
MODEL 5
REMARK VINA RESULT:      -5.5      3.108      6.531
REMARK  7 active torsions:
REMARK  status: ('A' for Active; 'I' for Inactive)
REMARK    1  A    between atoms: S_2  and  N_5 
REMARK    2  A    between atoms: N_5  and  C_6 
REMARK    3  A    between atoms: C_6  and  C_7 
REMARK    4  A    between atoms: C_7  and  C_8 
REMARK       I    between atoms: C_8  and  N_10 
REMARK    5  A    between atoms: N_10  and  C_11 
REMARK    6  A    between atoms: C_11  and  C_12 
REMARK    7  A    between atoms: C_15  and  N_19 
ROOT
HETATM    1  C   UNL     1     -42.562 -49.159  13.792  1.00  0.00    -0.025 A 
HETATM    2  C   UNL     1     -43.181 -49.447  15.000  1.00  0.00     0.014 A 
HETATM    3  C   UNL     1     -44.125 -50.477  15.073  1.00  0.00     0.049 A 
HETATM    4  C   UNL     1     -44.462 -51.224  13.942  1.00  0.00     0.103 A 
HETATM    5  N   UNL     1     -43.875 -50.915  12.762  1.00  0.00    -0.352 N 
ATOM      6  HN  UNL     1     -44.120 -51.434  11.918  1.00  0.00     0.166 HD
HETATM    7  C   UNL     1     -42.962 -49.914  12.703  1.00  0.00     0.098 A 
ENDROOT
BRANCH   1   8
HETATM    8  C   UNL     1     -41.503 -48.108  13.682  1.00  0.00     0.162 C 
BRANCH   8   9
HETATM    9  N   UNL     1     -40.163 -48.644  13.770  1.00  0.00    -0.357 N 
HETATM   10  C   UNL     1     -39.402 -48.756  12.631  1.00  0.00     0.218 C 
HETATM   11  O   UNL     1     -39.818 -48.441  11.519  1.00  0.00    -0.274 OA
HETATM   12  H   UNL     1     -39.805 -48.937  14.670  1.00  0.00     0.162 HD
BRANCH  10  13
HETATM   13  C   UNL     1     -37.992 -49.262  12.836  1.00  0.00     0.118 C 
BRANCH  13  14
HETATM   14  C   UNL     1     -37.941 -50.707  12.358  1.00  0.00     0.113 C 
BRANCH  14  15
HETATM   15  N   UNL     1     -39.305 -51.269  12.243  1.00  0.00    -0.220 NA
HETATM   16  H   UNL     1     -40.054 -50.580  12.143  1.00  0.00     0.139 HD
BRANCH  15  17
HETATM   17  S   UNL     1     -39.757 -52.381  13.436  1.00  0.00     0.205 S 
HETATM   18  C   UNL     1     -41.128 -53.232  12.678  1.00  0.00     0.179 C 
HETATM   19  O   UNL     1     -40.250 -51.593  14.541  1.00  0.00    -0.212 OA
HETATM   20  O   UNL     1     -38.657 -53.304  13.601  1.00  0.00    -0.212 OA
ENDBRANCH  15  17
ENDBRANCH  14  15
ENDBRANCH  13  14
ENDBRANCH  10  13
ENDBRANCH   8   9
ENDBRANCH   1   8
BRANCH   4  21
HETATM   21  N   UNL     1     -45.367 -52.257  13.970  1.00  0.00    -0.363 N 
HETATM   22  C   UNL     1     -46.344 -52.522  15.031  1.00  0.00     0.150 C 
HETATM   23  C   UNL     1     -46.079 -53.906  15.646  1.00  0.00     0.187 C 
HETATM   24  O   UNL     1     -46.111 -54.937  14.646  1.00  0.00    -0.388 OA
HETATM   25  C   UNL     1     -45.108 -54.690  13.645  1.00  0.00     0.187 C 
HETATM   26  C   UNL     1     -45.305 -53.325  12.957  1.00  0.00     0.150 C 
ENDBRANCH   4  21
TORSDOF 7
ENDMDL
MODEL 6
REMARK VINA RESULT:      -5.5      2.640      7.232
REMARK  7 active torsions:
REMARK  status: ('A' for Active; 'I' for Inactive)
REMARK    1  A    between atoms: S_2  and  N_5 
REMARK    2  A    between atoms: N_5  and  C_6 
REMARK    3  A    between atoms: C_6  and  C_7 
REMARK    4  A    between atoms: C_7  and  C_8 
REMARK       I    between atoms: C_8  and  N_10 
REMARK    5  A    between atoms: N_10  and  C_11 
REMARK    6  A    between atoms: C_11  and  C_12 
REMARK    7  A    between atoms: C_15  and  N_19 
ROOT
HETATM    1  C   UNL     1     -40.000 -49.921  12.284  1.00  0.00    -0.025 A 
HETATM    2  C   UNL     1     -41.375 -49.770  12.171  1.00  0.00     0.014 A 
HETATM    3  C   UNL     1     -42.217 -50.868  12.378  1.00  0.00     0.049 A 
HETATM    4  C   UNL     1     -41.695 -52.125  12.692  1.00  0.00     0.103 A 
HETATM    5  N   UNL     1     -40.351 -52.268  12.769  1.00  0.00    -0.352 N 
ATOM      6  HN  UNL     1     -39.946 -53.181  12.979  1.00  0.00     0.166 HD
HETATM    7  C   UNL     1     -39.544 -51.197  12.568  1.00  0.00     0.098 A 
ENDROOT
BRANCH   1   8
HETATM    8  C   UNL     1     -39.067 -48.761  12.134  1.00  0.00     0.162 C 
BRANCH   8   9
HETATM    9  N   UNL     1     -39.547 -47.764  11.204  1.00  0.00    -0.357 N 
HETATM   10  C   UNL     1     -39.805 -46.490  11.650  1.00  0.00     0.218 C 
HETATM   11  O   UNL     1     -39.668 -46.156  12.824  1.00  0.00    -0.274 OA
HETATM   12  H   UNL     1     -39.695 -48.020  10.236  1.00  0.00     0.162 HD
BRANCH  10  13
HETATM   13  C   UNL     1     -40.237 -45.503  10.589  1.00  0.00     0.118 C 
BRANCH  13  14
HETATM   14  C   UNL     1     -41.752 -45.593  10.458  1.00  0.00     0.113 C 
BRANCH  14  15
HETATM   15  N   UNL     1     -42.145 -46.842   9.771  1.00  0.00    -0.220 NA
HETATM   16  H   UNL     1     -41.474 -47.191   9.082  1.00  0.00     0.139 HD
BRANCH  15  17
HETATM   17  S   UNL     1     -43.685 -46.856   9.071  1.00  0.00     0.205 S 
HETATM   18  C   UNL     1     -43.453 -47.882   7.631  1.00  0.00     0.179 C 
HETATM   19  O   UNL     1     -43.934 -45.499   8.641  1.00  0.00    -0.212 OA
HETATM   20  O   UNL     1     -44.571 -47.526   9.996  1.00  0.00    -0.212 OA
ENDBRANCH  15  17
ENDBRANCH  14  15
ENDBRANCH  13  14
ENDBRANCH  10  13
ENDBRANCH   8   9
ENDBRANCH   1   8
BRANCH   4  21
HETATM   21  N   UNL     1     -42.483 -53.226  12.923  1.00  0.00    -0.363 N 
HETATM   22  C   UNL     1     -43.894 -53.372  12.551  1.00  0.00     0.150 C 
HETATM   23  C   UNL     1     -44.743 -53.597  13.813  1.00  0.00     0.187 C 
HETATM   24  O   UNL     1     -44.283 -54.738  14.555  1.00  0.00    -0.388 OA
HETATM   25  C   UNL     1     -42.915 -54.551  14.959  1.00  0.00     0.187 C 
HETATM   26  C   UNL     1     -41.982 -54.336  13.752  1.00  0.00     0.150 C 
ENDBRANCH   4  21
TORSDOF 7
ENDMDL
MODEL 7
REMARK VINA RESULT:      -5.4      3.790      5.060
REMARK  7 active torsions:
REMARK  status: ('A' for Active; 'I' for Inactive)
REMARK    1  A    between atoms: S_2  and  N_5 
REMARK    2  A    between atoms: N_5  and  C_6 
REMARK    3  A    between atoms: C_6  and  C_7 
REMARK    4  A    between atoms: C_7  and  C_8 
REMARK       I    between atoms: C_8  and  N_10 
REMARK    5  A    between atoms: N_10  and  C_11 
REMARK    6  A    between atoms: C_11  and  C_12 
REMARK    7  A    between atoms: C_15  and  N_19 
ROOT
HETATM    1  C   UNL     1     -41.467 -50.435  12.188  1.00  0.00    -0.025 A 
HETATM    2  C   UNL     1     -42.557 -49.642  12.522  1.00  0.00     0.014 A 
HETATM    3  C   UNL     1     -42.860 -48.512  11.756  1.00  0.00     0.049 A 
HETATM    4  C   UNL     1     -42.077 -48.161  10.653  1.00  0.00     0.103 A 
HETATM    5  N   UNL     1     -40.999 -48.923  10.354  1.00  0.00    -0.352 N 
ATOM      6  HN  UNL     1     -40.401 -48.674   9.565  1.00  0.00     0.166 HD
HETATM    7  C   UNL     1     -40.715 -50.016  11.104  1.00  0.00     0.098 A 
ENDROOT
BRANCH   1   8
HETATM    8  C   UNL     1     -41.144 -51.686  12.942  1.00  0.00     0.162 C 
BRANCH   8   9
HETATM    9  N   UNL     1     -40.335 -51.447  14.115  1.00  0.00    -0.357 N 
HETATM   10  C   UNL     1     -38.970 -51.591  14.038  1.00  0.00     0.218 C 
HETATM   11  O   UNL     1     -38.395 -51.940  13.010  1.00  0.00    -0.274 OA
HETATM   12  H   UNL     1     -40.785 -51.185  14.983  1.00  0.00     0.162 HD
BRANCH  10  13
HETATM   13  C   UNL     1     -38.206 -51.252  15.298  1.00  0.00     0.118 C 
BRANCH  13  14
HETATM   14  C   UNL     1     -37.800 -49.787  15.218  1.00  0.00     0.113 C 
BRANCH  14  15
HETATM   15  N   UNL     1     -38.193 -49.205  13.916  1.00  0.00    -0.220 NA
HETATM   16  H   UNL     1     -37.421 -49.001  13.277  1.00  0.00     0.139 HD
BRANCH  15  17
HETATM   17  S   UNL     1     -39.205 -47.850  13.979  1.00  0.00     0.205 S 
HETATM   18  C   UNL     1     -38.265 -46.705  14.972  1.00  0.00     0.179 C 
HETATM   19  O   UNL     1     -40.371 -48.265  14.724  1.00  0.00    -0.212 OA
HETATM   20  O   UNL     1     -39.316 -47.335  12.634  1.00  0.00    -0.212 OA
ENDBRANCH  15  17
ENDBRANCH  14  15
ENDBRANCH  13  14
ENDBRANCH  10  13
ENDBRANCH   8   9
ENDBRANCH   1   8
BRANCH   4  21
HETATM   21  N   UNL     1     -42.348 -47.072   9.860  1.00  0.00    -0.363 N 
HETATM   22  C   UNL     1     -41.869 -45.703  10.077  1.00  0.00     0.150 C 
HETATM   23  C   UNL     1     -43.068 -44.758  10.261  1.00  0.00     0.187 C 
HETATM   24  O   UNL     1     -43.961 -44.820   9.139  1.00  0.00    -0.388 OA
HETATM   25  C   UNL     1     -44.464 -46.158   8.977  1.00  0.00     0.187 C 
HETATM   26  C   UNL     1     -43.329 -47.180   8.766  1.00  0.00     0.150 C 
ENDBRANCH   4  21
TORSDOF 7
ENDMDL
MODEL 8
REMARK VINA RESULT:      -5.4      2.886      7.129
REMARK  7 active torsions:
REMARK  status: ('A' for Active; 'I' for Inactive)
REMARK    1  A    between atoms: S_2  and  N_5 
REMARK    2  A    between atoms: N_5  and  C_6 
REMARK    3  A    between atoms: C_6  and  C_7 
REMARK    4  A    between atoms: C_7  and  C_8 
REMARK       I    between atoms: C_8  and  N_10 
REMARK    5  A    between atoms: N_10  and  C_11 
REMARK    6  A    between atoms: C_11  and  C_12 
REMARK    7  A    between atoms: C_15  and  N_19 
ROOT
HETATM    1  C   UNL     1     -40.709 -48.981  11.584  1.00  0.00    -0.025 A 
HETATM    2  C   UNL     1     -41.829 -49.762  11.834  1.00  0.00     0.014 A 
HETATM    3  C   UNL     1     -41.681 -51.045  12.370  1.00  0.00     0.049 A 
HETATM    4  C   UNL     1     -40.415 -51.562  12.656  1.00  0.00     0.103 A 
HETATM    5  N   UNL     1     -39.327 -50.805  12.381  1.00  0.00    -0.352 N 
ATOM      6  HN  UNL     1     -38.392 -51.169  12.563  1.00  0.00     0.166 HD
HETATM    7  C   UNL     1     -39.484 -49.562  11.861  1.00  0.00     0.098 A 
ENDROOT
BRANCH   1   8
HETATM    8  C   UNL     1     -40.825 -47.581  11.070  1.00  0.00     0.162 C 
BRANCH   8   9
HETATM    9  N   UNL     1     -41.852 -47.430  10.064  1.00  0.00    -0.357 N 
HETATM   10  C   UNL     1     -42.480 -46.216   9.912  1.00  0.00     0.218 C 
HETATM   11  O   UNL     1     -42.224 -45.243  10.617  1.00  0.00    -0.274 OA
HETATM   12  H   UNL     1     -42.101 -48.224   9.487  1.00  0.00     0.162 HD
BRANCH  10  13
HETATM   13  C   UNL     1     -43.488 -46.139   8.789  1.00  0.00     0.118 C 
BRANCH  13  14
HETATM   14  C   UNL     1     -43.940 -47.558   8.471  1.00  0.00     0.113 C 
BRANCH  14  15
HETATM   15  N   UNL     1     -44.942 -48.022   9.455  1.00  0.00    -0.220 NA
HETATM   16  H   UNL     1     -44.649 -48.809  10.039  1.00  0.00     0.139 HD
BRANCH  15  17
HETATM   17  S   UNL     1     -46.486 -48.353   8.849  1.00  0.00     0.205 S 
HETATM   18  C   UNL     1     -46.140 -48.978   7.215  1.00  0.00     0.179 C 
HETATM   19  O   UNL     1     -47.145 -47.073   8.729  1.00  0.00    -0.212 OA
HETATM   20  O   UNL     1     -47.046 -49.414   9.656  1.00  0.00    -0.212 OA
ENDBRANCH  15  17
ENDBRANCH  14  15
ENDBRANCH  13  14
ENDBRANCH  10  13
ENDBRANCH   8   9
ENDBRANCH   1   8
BRANCH   4  21
HETATM   21  N   UNL     1     -40.222 -52.808  13.202  1.00  0.00    -0.363 N 
HETATM   22  C   UNL     1     -41.134 -53.951  13.093  1.00  0.00     0.150 C 
HETATM   23  C   UNL     1     -41.600 -54.379  14.494  1.00  0.00     0.187 C 
HETATM   24  O   UNL     1     -40.484 -54.688  15.344  1.00  0.00    -0.388 OA
HETATM   25  C   UNL     1     -39.631 -53.539  15.484  1.00  0.00     0.187 C 
HETATM   26  C   UNL     1     -39.098 -53.047  14.124  1.00  0.00     0.150 C 
ENDBRANCH   4  21
TORSDOF 7
ENDMDL
MODEL 9
REMARK VINA RESULT:      -5.3      2.387      2.852
REMARK  7 active torsions:
REMARK  status: ('A' for Active; 'I' for Inactive)
REMARK    1  A    between atoms: S_2  and  N_5 
REMARK    2  A    between atoms: N_5  and  C_6 
REMARK    3  A    between atoms: C_6  and  C_7 
REMARK    4  A    between atoms: C_7  and  C_8 
REMARK       I    between atoms: C_8  and  N_10 
REMARK    5  A    between atoms: N_10  and  C_11 
REMARK    6  A    between atoms: C_11  and  C_12 
REMARK    7  A    between atoms: C_15  and  N_19 
ROOT
HETATM    1  C   UNL     1     -39.346 -49.852  12.434  1.00  0.00    -0.025 A 
HETATM    2  C   UNL     1     -39.054 -48.645  13.054  1.00  0.00     0.014 A 
HETATM    3  C   UNL     1     -39.523 -47.446  12.507  1.00  0.00     0.049 A 
HETATM    4  C   UNL     1     -40.283 -47.441  11.335  1.00  0.00     0.103 A 
HETATM    5  N   UNL     1     -40.536 -48.621  10.721  1.00  0.00    -0.352 N 
ATOM      6  HN  UNL     1     -41.073 -48.640   9.853  1.00  0.00     0.166 HD
HETATM    7  C   UNL     1     -40.076 -49.777  11.261  1.00  0.00     0.098 A 
ENDROOT
BRANCH   1   8
HETATM    8  C   UNL     1     -38.917 -51.160  13.019  1.00  0.00     0.162 C 
BRANCH   8   9
HETATM    9  N   UNL     1     -39.900 -51.731  13.911  1.00  0.00    -0.357 N 
HETATM   10  C   UNL     1     -40.618 -52.834  13.513  1.00  0.00     0.218 C 
HETATM   11  O   UNL     1     -40.480 -53.354  12.409  1.00  0.00    -0.274 OA
HETATM   12  H   UNL     1     -40.054 -51.306  14.817  1.00  0.00     0.162 HD
BRANCH  10  13
HETATM   13  C   UNL     1     -41.572 -53.398  14.542  1.00  0.00     0.118 C 
BRANCH  13  14
HETATM   14  C   UNL     1     -42.983 -53.282  13.982  1.00  0.00     0.113 C 
BRANCH  14  15
HETATM   15  N   UNL     1     -43.760 -54.509  14.259  1.00  0.00    -0.220 NA
HETATM   16  H   UNL     1     -43.342 -55.378  13.917  1.00  0.00     0.139 HD
BRANCH  15  17
HETATM   17  S   UNL     1     -45.388 -54.482  13.798  1.00  0.00     0.205 S 
HETATM   18  C   UNL     1     -46.160 -53.595  15.139  1.00  0.00     0.179 C 
HETATM   19  O   UNL     1     -45.829 -55.858  13.833  1.00  0.00    -0.212 OA
HETATM   20  O   UNL     1     -45.479 -53.694  12.590  1.00  0.00    -0.212 OA
ENDBRANCH  15  17
ENDBRANCH  14  15
ENDBRANCH  13  14
ENDBRANCH  10  13
ENDBRANCH   8   9
ENDBRANCH   1   8
BRANCH   4  21
HETATM   21  N   UNL     1     -40.782 -46.291  10.772  1.00  0.00    -0.363 N 
HETATM   22  C   UNL     1     -39.994 -45.206  10.180  1.00  0.00     0.150 C 
HETATM   23  C   UNL     1     -40.259 -43.897  10.943  1.00  0.00     0.187 C 
HETATM   24  O   UNL     1     -41.658 -43.573  10.954  1.00  0.00    -0.388 OA
HETATM   25  C   UNL     1     -42.408 -44.624  11.589  1.00  0.00     0.187 C 
HETATM   26  C   UNL     1     -42.218 -45.978  10.878  1.00  0.00     0.150 C 
ENDBRANCH   4  21
TORSDOF 7
ENDMDL
