MODEL 1
REMARK VINA RESULT:      -6.5      0.000      0.000
REMARK  2 active torsions:
REMARK  status: ('A' for Active; 'I' for Inactive)
REMARK       I    between atoms: C_2  and  N_3 
REMARK       I    between atoms: C_2  and  N_11 
REMARK    1  A    between atoms: N_3  and  C_4 
REMARK    2  A    between atoms: N_11  and  C_12 
ROOT
HETATM    1  O   UNL     1     -41.935 -48.064  11.816  1.00  0.00    -0.247 OA
HETATM    2  C   UNL     1     -41.624 -48.542  10.732  1.00  0.00     0.321 C 
HETATM    3  N   UNL     1     -40.550 -49.403  10.614  1.00  0.00    -0.337 N 
HETATM    4  N   UNL     1     -42.254 -48.317   9.533  1.00  0.00    -0.309 N 
HETATM    5  H   UNL     1     -40.141 -49.515   9.697  1.00  0.00     0.164 HD
HETATM    6  H   UNL     1     -41.944 -48.867   8.743  1.00  0.00     0.170 HD
ENDROOT
BRANCH   3   7
HETATM    7  C   UNL     1     -39.711 -49.717  11.771  1.00  0.00     0.101 C 
HETATM    8  C   UNL     1     -38.206 -49.770  11.428  1.00  0.00     0.041 C 
HETATM    9  C   UNL     1     -37.486 -50.740  12.359  1.00  0.00     0.142 C 
HETATM   10  S   UNL     1     -38.700 -51.415  13.463  1.00  0.00     0.146 S 
HETATM   11  O   UNL     1     -38.551 -52.853  13.534  1.00  0.00    -0.228 OA
HETATM   12  O   UNL     1     -38.743 -50.586  14.653  1.00  0.00    -0.228 OA
HETATM   13  C   UNL     1     -40.109 -51.014  12.473  1.00  0.00     0.165 C 
ENDBRANCH   3   7
BRANCH   4  14
HETATM   14  C   UNL     1     -43.345 -47.443   9.314  1.00  0.00     0.038 A 
HETATM   15  C   UNL     1     -44.668 -47.872   9.209  1.00  0.00     0.046 A 
HETATM   16  C   UNL     1     -45.663 -46.927   9.016  1.00  0.00     0.090 A 
HETATM   17  N   UNL     1     -45.431 -45.602   8.924  1.00  0.00    -0.375 N 
HETATM   18  C   UNL     1     -44.147 -45.209   9.023  1.00  0.00     0.090 A 
ATOM     19  HN  UNL     1     -46.189 -44.933   8.786  1.00  0.00     0.164 HD
HETATM   20  C   UNL     1     -43.081 -46.078   9.213  1.00  0.00     0.046 A 
ENDBRANCH   4  14
TORSDOF 2
ENDMDL
MODEL 2
REMARK VINA RESULT:      -5.8      4.497      5.801
REMARK  2 active torsions:
REMARK  status: ('A' for Active; 'I' for Inactive)
REMARK       I    between atoms: C_2  and  N_3 
REMARK       I    between atoms: C_2  and  N_11 
REMARK    1  A    between atoms: N_3  and  C_4 
REMARK    2  A    between atoms: N_11  and  C_12 
ROOT
HETATM    1  O   UNL     1     -42.251 -51.997  14.108  1.00  0.00    -0.247 OA
HETATM    2  C   UNL     1     -42.602 -51.919  12.938  1.00  0.00     0.321 C 
HETATM    3  N   UNL     1     -41.808 -51.296  11.995  1.00  0.00    -0.337 N 
HETATM    4  N   UNL     1     -43.768 -52.411  12.403  1.00  0.00    -0.309 N 
HETATM    5  H   UNL     1     -42.255 -50.976  11.147  1.00  0.00     0.164 HD
HETATM    6  H   UNL     1     -43.867 -52.361  11.399  1.00  0.00     0.170 HD
ENDROOT
BRANCH   3   7
HETATM    7  C   UNL     1     -40.553 -50.650  12.381  1.00  0.00     0.101 C 
HETATM    8  C   UNL     1     -39.982 -49.733  11.278  1.00  0.00     0.041 C 
HETATM    9  C   UNL     1     -38.461 -49.672  11.377  1.00  0.00     0.142 C 
HETATM   10  S   UNL     1     -37.977 -50.701  12.739  1.00  0.00     0.146 S 
HETATM   11  O   UNL     1     -36.885 -51.563  12.338  1.00  0.00    -0.228 OA
HETATM   12  O   UNL     1     -37.908 -49.874  13.930  1.00  0.00    -0.228 OA
HETATM   13  C   UNL     1     -39.473 -51.639  12.818  1.00  0.00     0.165 C 
ENDBRANCH   3   7
BRANCH   4  14
HETATM   14  C   UNL     1     -44.810 -53.049  13.118  1.00  0.00     0.038 A 
HETATM   15  C   UNL     1     -45.894 -52.369  13.671  1.00  0.00     0.046 A 
HETATM   16  C   UNL     1     -46.870 -53.096  14.333  1.00  0.00     0.090 A 
HETATM   17  N   UNL     1     -46.840 -54.435  14.478  1.00  0.00    -0.375 N 
HETATM   18  C   UNL     1     -45.781 -55.073  13.941  1.00  0.00     0.090 A 
ATOM     19  HN  UNL     1     -47.579 -54.940  14.968  1.00  0.00     0.164 HD
HETATM   20  C   UNL     1     -44.752 -54.434  13.263  1.00  0.00     0.046 A 
ENDBRANCH   4  14
TORSDOF 2
ENDMDL
MODEL 3
REMARK VINA RESULT:      -5.5      3.831      6.792
REMARK  2 active torsions:
REMARK  status: ('A' for Active; 'I' for Inactive)
REMARK       I    between atoms: C_2  and  N_3 
REMARK       I    between atoms: C_2  and  N_11 
REMARK    1  A    between atoms: N_3  and  C_4 
REMARK    2  A    between atoms: N_11  and  C_12 
ROOT
HETATM    1  O   UNL     1     -42.975 -49.871  13.276  1.00  0.00    -0.247 OA
HETATM    2  C   UNL     1     -42.432 -50.321  12.275  1.00  0.00     0.321 C 
HETATM    3  N   UNL     1     -41.902 -49.483  11.314  1.00  0.00    -0.337 N 
HETATM    4  N   UNL     1     -42.267 -51.649  11.966  1.00  0.00    -0.309 N 
HETATM    5  H   UNL     1     -41.760 -49.864  10.390  1.00  0.00     0.164 HD
HETATM    6  H   UNL     1     -41.705 -51.863  11.154  1.00  0.00     0.170 HD
ENDROOT
BRANCH   3   7
HETATM    7  C   UNL     1     -42.034 -48.030  11.432  1.00  0.00     0.101 C 
HETATM    8  C   UNL     1     -43.158 -47.453  10.544  1.00  0.00     0.041 C 
HETATM    9  C   UNL     1     -42.825 -46.022  10.135  1.00  0.00     0.142 C 
HETATM   10  S   UNL     1     -41.257 -45.615  10.859  1.00  0.00     0.146 S 
HETATM   11  O   UNL     1     -40.402 -45.002   9.864  1.00  0.00    -0.228 OA
HETATM   12  O   UNL     1     -41.500 -44.997  12.150  1.00  0.00    -0.228 OA
HETATM   13  C   UNL     1     -40.735 -47.279  11.144  1.00  0.00     0.165 C 
ENDBRANCH   3   7
BRANCH   4  14
HETATM   14  C   UNL     1     -42.748 -52.747  12.718  1.00  0.00     0.038 A 
HETATM   15  C   UNL     1     -41.990 -53.419  13.675  1.00  0.00     0.046 A 
HETATM   16  C   UNL     1     -42.568 -54.469  14.369  1.00  0.00     0.090 A 
HETATM   17  N   UNL     1     -43.835 -54.888  14.177  1.00  0.00    -0.375 N 
HETATM   18  C   UNL     1     -44.550 -54.230  13.244  1.00  0.00     0.090 A 
ATOM     19  HN  UNL     1     -44.231 -55.663  14.710  1.00  0.00     0.164 HD
HETATM   20  C   UNL     1     -44.059 -53.169  12.495  1.00  0.00     0.046 A 
ENDBRANCH   4  14
TORSDOF 2
ENDMDL
MODEL 4
REMARK VINA RESULT:      -5.5      4.145      5.160
REMARK  2 active torsions:
REMARK  status: ('A' for Active; 'I' for Inactive)
REMARK       I    between atoms: C_2  and  N_3 
REMARK       I    between atoms: C_2  and  N_11 
REMARK    1  A    between atoms: N_3  and  C_4 
REMARK    2  A    between atoms: N_11  and  C_12 
ROOT
HETATM    1  O   UNL     1     -42.906 -49.934  13.379  1.00  0.00    -0.247 OA
HETATM    2  C   UNL     1     -42.464 -50.595  12.448  1.00  0.00     0.321 C 
HETATM    3  N   UNL     1     -42.618 -51.968  12.413  1.00  0.00    -0.337 N 
HETATM    4  N   UNL     1     -41.790 -50.112  11.353  1.00  0.00    -0.309 N 
HETATM    5  H   UNL     1     -41.988 -52.493  11.823  1.00  0.00     0.164 HD
HETATM    6  H   UNL     1     -41.581 -50.771  10.617  1.00  0.00     0.170 HD
ENDROOT
BRANCH   3   7
HETATM    7  C   UNL     1     -43.255 -52.679  13.522  1.00  0.00     0.101 C 
HETATM    8  C   UNL     1     -42.347 -53.762  14.144  1.00  0.00     0.041 C 
HETATM    9  C   UNL     1     -43.193 -54.890  14.726  1.00  0.00     0.142 C 
HETATM   10  S   UNL     1     -44.895 -54.479  14.436  1.00  0.00     0.146 S 
HETATM   11  O   UNL     1     -45.590 -55.628  13.894  1.00  0.00    -0.228 OA
HETATM   12  O   UNL     1     -45.391 -53.754  15.591  1.00  0.00    -0.228 OA
HETATM   13  C   UNL     1     -44.597 -53.307  13.147  1.00  0.00     0.165 C 
ENDBRANCH   3   7
BRANCH   4  14
HETATM   14  C   UNL     1     -41.427 -48.763  11.126  1.00  0.00     0.038 A 
HETATM   15  C   UNL     1     -40.260 -48.184  11.623  1.00  0.00     0.046 A 
HETATM   16  C   UNL     1     -39.991 -46.859  11.322  1.00  0.00     0.090 A 
HETATM   17  N   UNL     1     -40.794 -46.083  10.568  1.00  0.00    -0.375 N 
HETATM   18  C   UNL     1     -41.919 -46.660  10.101  1.00  0.00     0.090 A 
ATOM     19  HN  UNL     1     -40.563 -45.111  10.361  1.00  0.00     0.164 HD
HETATM   20  C   UNL     1     -42.278 -47.977  10.351  1.00  0.00     0.046 A 
ENDBRANCH   4  14
TORSDOF 2
ENDMDL
MODEL 5
REMARK VINA RESULT:      -5.5      4.519      6.702
REMARK  2 active torsions:
REMARK  status: ('A' for Active; 'I' for Inactive)
REMARK       I    between atoms: C_2  and  N_3 
REMARK       I    between atoms: C_2  and  N_11 
REMARK    1  A    between atoms: N_3  and  C_4 
REMARK    2  A    between atoms: N_11  and  C_12 
ROOT
HETATM    1  O   UNL     1     -42.415 -51.730  13.516  1.00  0.00    -0.247 OA
HETATM    2  C   UNL     1     -42.187 -52.035  12.352  1.00  0.00     0.321 C 
HETATM    3  N   UNL     1     -42.997 -52.929  11.678  1.00  0.00    -0.337 N 
HETATM    4  N   UNL     1     -41.157 -51.567  11.574  1.00  0.00    -0.309 N 
HETATM    5  H   UNL     1     -42.611 -53.387  10.865  1.00  0.00     0.164 HD
HETATM    6  H   UNL     1     -41.163 -51.833  10.599  1.00  0.00     0.170 HD
ENDROOT
BRANCH   3   7
HETATM    7  C   UNL     1     -44.114 -53.588  12.357  1.00  0.00     0.101 C 
HETATM    8  C   UNL     1     -45.286 -52.629  12.659  1.00  0.00     0.041 C 
HETATM    9  C   UNL     1     -46.037 -53.089  13.905  1.00  0.00     0.142 C 
HETATM   10  S   UNL     1     -45.232 -54.556  14.496  1.00  0.00     0.146 S 
HETATM   11  O   UNL     1     -45.016 -54.454  15.924  1.00  0.00    -0.228 OA
HETATM   12  O   UNL     1     -45.886 -55.705  13.898  1.00  0.00    -0.228 OA
HETATM   13  C   UNL     1     -43.704 -54.298  13.646  1.00  0.00     0.165 C 
ENDBRANCH   3   7
BRANCH   4  14
HETATM   14  C   UNL     1     -40.129 -50.688  11.991  1.00  0.00     0.038 A 
HETATM   15  C   UNL     1     -39.065 -51.076  12.803  1.00  0.00     0.046 A 
HETATM   16  C   UNL     1     -38.101 -50.138  13.134  1.00  0.00     0.090 A 
HETATM   17  N   UNL     1     -38.125 -48.857  12.715  1.00  0.00    -0.375 N 
HETATM   18  C   UNL     1     -39.165 -48.501  11.935  1.00  0.00     0.090 A 
ATOM     19  HN  UNL     1     -37.396 -48.193  12.974  1.00  0.00     0.164 HD
HETATM   20  C   UNL     1     -40.181 -49.366  11.553  1.00  0.00     0.046 A 
ENDBRANCH   4  14
TORSDOF 2
ENDMDL
MODEL 6
REMARK VINA RESULT:      -5.3      2.038      2.343
REMARK  2 active torsions:
REMARK  status: ('A' for Active; 'I' for Inactive)
REMARK       I    between atoms: C_2  and  N_3 
REMARK       I    between atoms: C_2  and  N_11 
REMARK    1  A    between atoms: N_3  and  C_4 
REMARK    2  A    between atoms: N_11  and  C_12 
ROOT
HETATM    1  O   UNL     1     -42.331 -49.496  12.539  1.00  0.00    -0.247 OA
HETATM    2  C   UNL     1     -41.564 -49.713  11.609  1.00  0.00     0.321 C 
HETATM    3  N   UNL     1     -40.697 -50.788  11.636  1.00  0.00    -0.337 N 
HETATM    4  N   UNL     1     -41.449 -48.972  10.459  1.00  0.00    -0.309 N 
HETATM    5  H   UNL     1     -39.889 -50.751  11.031  1.00  0.00     0.164 HD
HETATM    6  H   UNL     1     -40.844 -49.338   9.737  1.00  0.00     0.170 HD
ENDROOT
BRANCH   3   7
HETATM    7  C   UNL     1     -40.624 -51.662  12.807  1.00  0.00     0.101 C 
HETATM    8  C   UNL     1     -39.405 -51.363  13.708  1.00  0.00     0.041 C 
HETATM    9  C   UNL     1     -38.959 -52.630  14.430  1.00  0.00     0.142 C 
HETATM   10  S   UNL     1     -40.043 -53.939  13.922  1.00  0.00     0.146 S 
HETATM   11  O   UNL     1     -39.267 -55.108  13.565  1.00  0.00    -0.228 OA
HETATM   12  O   UNL     1     -41.146 -54.007  14.863  1.00  0.00    -0.228 OA
HETATM   13  C   UNL     1     -40.632 -53.149  12.454  1.00  0.00     0.165 C 
ENDBRANCH   3   7
BRANCH   4  14
HETATM   14  C   UNL     1     -42.155 -47.782  10.158  1.00  0.00     0.038 A 
HETATM   15  C   UNL     1     -43.162 -47.704   9.197  1.00  0.00     0.046 A 
HETATM   16  C   UNL     1     -43.803 -46.492   8.998  1.00  0.00     0.090 A 
HETATM   17  N   UNL     1     -43.514 -45.369   9.685  1.00  0.00    -0.375 N 
HETATM   18  C   UNL     1     -42.535 -45.464  10.606  1.00  0.00     0.090 A 
ATOM     19  HN  UNL     1     -44.010 -44.494   9.516  1.00  0.00     0.164 HD
HETATM   20  C   UNL     1     -41.832 -46.630  10.875  1.00  0.00     0.046 A 
ENDBRANCH   4  14
TORSDOF 2
ENDMDL
MODEL 7
REMARK VINA RESULT:      -5.1      4.849      6.516
REMARK  2 active torsions:
REMARK  status: ('A' for Active; 'I' for Inactive)
REMARK       I    between atoms: C_2  and  N_3 
REMARK       I    between atoms: C_2  and  N_11 
REMARK    1  A    between atoms: N_3  and  C_4 
REMARK    2  A    between atoms: N_11  and  C_12 
ROOT
HETATM    1  O   UNL     1     -43.562 -50.276  14.281  1.00  0.00    -0.247 OA
HETATM    2  C   UNL     1     -43.567 -50.614  13.104  1.00  0.00     0.321 C 
HETATM    3  N   UNL     1     -42.878 -49.889  12.151  1.00  0.00    -0.337 N 
HETATM    4  N   UNL     1     -44.214 -51.703  12.572  1.00  0.00    -0.309 N 
HETATM    5  H   UNL     1     -43.158 -50.002  11.187  1.00  0.00     0.164 HD
HETATM    6  H   UNL     1     -44.037 -51.910  11.599  1.00  0.00     0.170 HD
ENDROOT
BRANCH   3   7
HETATM    7  C   UNL     1     -42.176 -48.657  12.510  1.00  0.00     0.101 C 
HETATM    8  C   UNL     1     -43.050 -47.394  12.344  1.00  0.00     0.041 C 
HETATM    9  C   UNL     1     -42.176 -46.186  12.022  1.00  0.00     0.142 C 
HETATM   10  S   UNL     1     -40.494 -46.748  11.969  1.00  0.00     0.146 S 
HETATM   11  O   UNL     1     -39.844 -46.236  10.780  1.00  0.00    -0.228 OA
HETATM   12  O   UNL     1     -39.919 -46.584  13.291  1.00  0.00    -0.228 OA
HETATM   13  C   UNL     1     -40.866 -48.462  11.748  1.00  0.00     0.165 C 
ENDBRANCH   3   7
BRANCH   4  14
HETATM   14  C   UNL     1     -45.047 -52.605  13.276  1.00  0.00     0.038 A 
HETATM   15  C   UNL     1     -46.167 -52.211  14.006  1.00  0.00     0.046 A 
HETATM   16  C   UNL     1     -46.926 -53.181  14.641  1.00  0.00     0.090 A 
HETATM   17  N   UNL     1     -46.647 -54.499  14.597  1.00  0.00    -0.375 N 
HETATM   18  C   UNL     1     -45.557 -54.859  13.891  1.00  0.00     0.090 A 
ATOM     19  HN  UNL     1     -47.230 -55.188  15.073  1.00  0.00     0.164 HD
HETATM   20  C   UNL     1     -44.733 -53.963  13.224  1.00  0.00     0.046 A 
ENDBRANCH   4  14
TORSDOF 2
ENDMDL
MODEL 8
REMARK VINA RESULT:      -5.0      2.652      3.203
REMARK  2 active torsions:
REMARK  status: ('A' for Active; 'I' for Inactive)
REMARK       I    between atoms: C_2  and  N_3 
REMARK       I    between atoms: C_2  and  N_11 
REMARK    1  A    between atoms: N_3  and  C_4 
REMARK    2  A    between atoms: N_11  and  C_12 
ROOT
HETATM    1  O   UNL     1     -39.824 -46.638  13.040  1.00  0.00    -0.247 OA
HETATM    2  C   UNL     1     -39.912 -46.957  11.861  1.00  0.00     0.321 C 
HETATM    3  N   UNL     1     -39.425 -48.169  11.412  1.00  0.00    -0.337 N 
HETATM    4  N   UNL     1     -40.476 -46.210  10.856  1.00  0.00    -0.309 N 
HETATM    5  H   UNL     1     -39.228 -48.256  10.424  1.00  0.00     0.164 HD
HETATM    6  H   UNL     1     -40.568 -46.654   9.953  1.00  0.00     0.170 HD
ENDROOT
BRANCH   3   7
HETATM    7  C   UNL     1     -38.729 -49.081  12.321  1.00  0.00     0.101 C 
HETATM    8  C   UNL     1     -37.508 -49.767  11.669  1.00  0.00     0.041 C 
HETATM    9  C   UNL     1     -37.271 -51.134  12.302  1.00  0.00     0.142 C 
HETATM   10  S   UNL     1     -38.521 -51.368  13.540  1.00  0.00     0.146 S 
HETATM   11  O   UNL     1     -39.110 -52.683  13.398  1.00  0.00    -0.228 OA
HETATM   12  O   UNL     1     -37.999 -50.892  14.808  1.00  0.00    -0.228 OA
HETATM   13  C   UNL     1     -39.641 -50.149  12.922  1.00  0.00     0.165 C 
ENDBRANCH   3   7
BRANCH   4  14
HETATM   14  C   UNL     1     -41.009 -44.906  10.984  1.00  0.00     0.038 A 
HETATM   15  C   UNL     1     -40.225 -43.764  11.143  1.00  0.00     0.046 A 
HETATM   16  C   UNL     1     -40.851 -42.532  11.238  1.00  0.00     0.090 A 
HETATM   17  N   UNL     1     -42.187 -42.363  11.184  1.00  0.00    -0.375 N 
HETATM   18  C   UNL     1     -42.927 -43.478  11.035  1.00  0.00     0.090 A 
ATOM     19  HN  UNL     1     -42.615 -41.439  11.252  1.00  0.00     0.164 HD
HETATM   20  C   UNL     1     -42.395 -44.756  10.935  1.00  0.00     0.046 A 
ENDBRANCH   4  14
TORSDOF 2
ENDMDL
MODEL 9
REMARK VINA RESULT:      -5.0      3.778      7.166
REMARK  2 active torsions:
REMARK  status: ('A' for Active; 'I' for Inactive)
REMARK       I    between atoms: C_2  and  N_3 
REMARK       I    between atoms: C_2  and  N_11 
REMARK    1  A    between atoms: N_3  and  C_4 
REMARK    2  A    between atoms: N_11  and  C_12 
ROOT
HETATM    1  O   UNL     1     -40.150 -46.879  12.512  1.00  0.00    -0.247 OA
HETATM    2  C   UNL     1     -40.122 -47.399  11.404  1.00  0.00     0.321 C 
HETATM    3  N   UNL     1     -40.529 -46.704  10.281  1.00  0.00    -0.337 N 
HETATM    4  N   UNL     1     -39.705 -48.674  11.112  1.00  0.00    -0.309 N 
HETATM    5  H   UNL     1     -40.790 -47.244   9.468  1.00  0.00     0.164 HD
HETATM    6  H   UNL     1     -39.642 -48.923  10.135  1.00  0.00     0.170 HD
ENDROOT
BRANCH   3   7
HETATM    7  C   UNL     1     -41.068 -45.348  10.393  1.00  0.00     0.101 C 
HETATM    8  C   UNL     1     -40.040 -44.334  10.941  1.00  0.00     0.041 C 
HETATM    9  C   UNL     1     -40.753 -43.214  11.691  1.00  0.00     0.142 C 
HETATM   10  S   UNL     1     -42.493 -43.553  11.622  1.00  0.00     0.146 S 
HETATM   11  O   UNL     1     -43.074 -43.406  12.940  1.00  0.00    -0.228 OA
HETATM   12  O   UNL     1     -43.042 -42.879  10.460  1.00  0.00    -0.228 OA
HETATM   13  C   UNL     1     -42.343 -45.271  11.231  1.00  0.00     0.165 C 
ENDBRANCH   3   7
BRANCH   4  14
HETATM   14  C   UNL     1     -39.285 -49.649  12.049  1.00  0.00     0.038 A 
HETATM   15  C   UNL     1     -40.165 -50.418  12.809  1.00  0.00     0.046 A 
HETATM   16  C   UNL     1     -39.646 -51.360  13.682  1.00  0.00     0.090 A 
HETATM   17  N   UNL     1     -38.327 -51.586  13.845  1.00  0.00    -0.375 N 
HETATM   18  C   UNL     1     -37.493 -50.829  13.105  1.00  0.00     0.090 A 
ATOM     19  HN  UNL     1     -37.979 -52.292  14.493  1.00  0.00     0.164 HD
HETATM   20  C   UNL     1     -37.916 -49.858  12.207  1.00  0.00     0.046 A 
ENDBRANCH   4  14
TORSDOF 2
ENDMDL
