MODEL 1
REMARK VINA RESULT:      -6.2      0.000      0.000
REMARK  3 active torsions:
REMARK  status: ('A' for Active; 'I' for Inactive)
REMARK       I    between atoms: C_2  and  N_4 
REMARK       I    between atoms: N_7  and  C_10 
REMARK       I    between atoms: C_10  and  N_12 
REMARK    1  A    between atoms: N_12  and  C_13 
REMARK    2  A    between atoms: C_13  and  C_14 
REMARK    3  A    between atoms: C_14  and  C_15 
ROOT
HETATM    1  C   UNL     1     -42.282 -55.837  16.133  1.00  0.00     0.117 C 
HETATM    2  C   UNL     1     -43.139 -55.170  15.083  1.00  0.00     0.215 C 
HETATM    3  O   UNL     1     -44.219 -55.661  14.759  1.00  0.00    -0.274 OA
HETATM    4  N   UNL     1     -42.626 -54.026  14.494  1.00  0.00    -0.349 N 
HETATM    5  C   UNL     1     -43.417 -53.324  13.473  1.00  0.00     0.145 C 
HETATM    6  C   UNL     1     -42.538 -52.773  12.330  1.00  0.00     0.147 C 
HETATM    7  N   UNL     1     -41.346 -52.073  12.836  1.00  0.00    -0.331 N 
HETATM    8  C   UNL     1     -40.577 -52.828  13.828  1.00  0.00     0.147 C 
HETATM    9  C   UNL     1     -41.466 -53.277  14.988  1.00  0.00     0.145 C 
HETATM   10  C   UNL     1     -40.926 -50.798  12.521  1.00  0.00     0.318 C 
HETATM   11  O   UNL     1     -40.002 -50.240  13.108  1.00  0.00    -0.247 OA
HETATM   12  N   UNL     1     -41.610 -50.182  11.506  1.00  0.00    -0.343 N 
HETATM   13  H   UNL     1     -41.891 -50.814  10.771  1.00  0.00     0.164 HD
ENDROOT
BRANCH  12  14
HETATM   14  C   UNL     1     -41.172 -48.862  11.065  1.00  0.00     0.130 C 
BRANCH  14  15
HETATM   15  C   UNL     1     -42.070 -47.755  11.603  1.00  0.00     0.077 C 
BRANCH  15  16
HETATM   16  C   UNL     1     -43.028 -47.233  10.582  1.00  0.00     0.018 A 
HETATM   17  C   UNL     1     -42.871 -46.094   9.815  1.00  0.00     0.076 A 
HETATM   18  S   UNL     1     -44.245 -45.856   8.820  1.00  0.00    -0.087 SA
HETATM   19  C   UNL     1     -44.948 -47.282   9.473  1.00  0.00     0.046 A 
HETATM   20  C   UNL     1     -46.297 -47.729   9.026  1.00  0.00     0.076 C 
HETATM   21  N   UNL     1     -44.220 -47.910  10.372  1.00  0.00    -0.357 N 
ATOM     22  HN  UNL     1     -44.493 -48.771  10.846  1.00  0.00     0.166 HD
ENDBRANCH  15  16
ENDBRANCH  14  15
ENDBRANCH  12  14
TORSDOF 3
ENDMDL
MODEL 2
REMARK VINA RESULT:      -5.8      2.609      3.492
REMARK  3 active torsions:
REMARK  status: ('A' for Active; 'I' for Inactive)
REMARK       I    between atoms: C_2  and  N_4 
REMARK       I    between atoms: N_7  and  C_10 
REMARK       I    between atoms: C_10  and  N_12 
REMARK    1  A    between atoms: N_12  and  C_13 
REMARK    2  A    between atoms: C_13  and  C_14 
REMARK    3  A    between atoms: C_14  and  C_15 
ROOT
HETATM    1  C   UNL     1     -45.327 -55.311  13.995  1.00  0.00     0.117 C 
HETATM    2  C   UNL     1     -44.979 -54.042  13.253  1.00  0.00     0.215 C 
HETATM    3  O   UNL     1     -45.820 -53.481  12.553  1.00  0.00    -0.274 OA
HETATM    4  N   UNL     1     -43.677 -53.587  13.373  1.00  0.00    -0.349 N 
HETATM    5  C   UNL     1     -43.278 -52.351  12.685  1.00  0.00     0.145 C 
HETATM    6  C   UNL     1     -41.848 -52.437  12.109  1.00  0.00     0.147 C 
HETATM    7  N   UNL     1     -40.891 -52.985  13.086  1.00  0.00    -0.331 N 
HETATM    8  C   UNL     1     -41.322 -54.233  13.721  1.00  0.00     0.147 C 
HETATM    9  C   UNL     1     -42.705 -54.077  14.356  1.00  0.00     0.145 C 
HETATM   10  C   UNL     1     -39.695 -52.431  13.488  1.00  0.00     0.318 C 
HETATM   11  O   UNL     1     -39.035 -52.884  14.420  1.00  0.00    -0.247 OA
HETATM   12  N   UNL     1     -39.284 -51.330  12.783  1.00  0.00    -0.343 N 
HETATM   13  H   UNL     1     -39.509 -51.377  11.800  1.00  0.00     0.164 HD
ENDROOT
BRANCH  12  14
HETATM   14  C   UNL     1     -37.989 -50.737  13.101  1.00  0.00     0.130 C 
BRANCH  14  15
HETATM   15  C   UNL     1     -37.760 -49.434  12.344  1.00  0.00     0.077 C 
BRANCH  15  16
HETATM   16  C   UNL     1     -38.989 -48.590  12.250  1.00  0.00     0.018 A 
HETATM   17  C   UNL     1     -39.456 -47.708  13.205  1.00  0.00     0.076 A 
HETATM   18  S   UNL     1     -40.929 -47.003  12.691  1.00  0.00    -0.087 SA
HETATM   19  C   UNL     1     -40.843 -47.913  11.236  1.00  0.00     0.046 A 
HETATM   20  C   UNL     1     -41.916 -47.798  10.210  1.00  0.00     0.076 C 
HETATM   21  N   UNL     1     -39.789 -48.694  11.121  1.00  0.00    -0.357 N 
ATOM     22  HN  UNL     1     -39.590 -49.290  10.318  1.00  0.00     0.166 HD
ENDBRANCH  15  16
ENDBRANCH  14  15
ENDBRANCH  12  14
TORSDOF 3
ENDMDL
MODEL 3
REMARK VINA RESULT:      -5.8      3.268      6.830
REMARK  3 active torsions:
REMARK  status: ('A' for Active; 'I' for Inactive)
REMARK       I    between atoms: C_2  and  N_4 
REMARK       I    between atoms: N_7  and  C_10 
REMARK       I    between atoms: C_10  and  N_12 
REMARK    1  A    between atoms: N_12  and  C_13 
REMARK    2  A    between atoms: C_13  and  C_14 
REMARK    3  A    between atoms: C_14  and  C_15 
ROOT
HETATM    1  C   UNL     1     -39.490 -44.477  11.865  1.00  0.00     0.117 C 
HETATM    2  C   UNL     1     -40.456 -45.294  11.040  1.00  0.00     0.215 C 
HETATM    3  O   UNL     1     -41.104 -44.767  10.137  1.00  0.00    -0.274 OA
HETATM    4  N   UNL     1     -40.594 -46.629  11.383  1.00  0.00    -0.349 N 
HETATM    5  C   UNL     1     -41.511 -47.481  10.611  1.00  0.00     0.145 C 
HETATM    6  C   UNL     1     -42.266 -48.486  11.505  1.00  0.00     0.147 C 
HETATM    7  N   UNL     1     -41.367 -49.172  12.449  1.00  0.00    -0.331 N 
HETATM    8  C   UNL     1     -40.497 -48.277  13.215  1.00  0.00     0.147 C 
HETATM    9  C   UNL     1     -39.699 -47.359  12.287  1.00  0.00     0.145 C 
HETATM   10  C   UNL     1     -41.229 -50.531  12.638  1.00  0.00     0.318 C 
HETATM   11  O   UNL     1     -40.345 -51.016  13.339  1.00  0.00    -0.247 OA
HETATM   12  N   UNL     1     -42.143 -51.317  11.987  1.00  0.00    -0.343 N 
HETATM   13  H   UNL     1     -43.065 -50.907  11.944  1.00  0.00     0.164 HD
ENDROOT
BRANCH  12  14
HETATM   14  C   UNL     1     -42.108 -52.759  12.201  1.00  0.00     0.130 C 
BRANCH  14  15
HETATM   15  C   UNL     1     -42.954 -53.177  13.399  1.00  0.00     0.077 C 
BRANCH  15  16
HETATM   16  C   UNL     1     -44.318 -52.569  13.389  1.00  0.00     0.018 A 
HETATM   17  C   UNL     1     -44.991 -52.043  14.475  1.00  0.00     0.076 A 
HETATM   18  S   UNL     1     -46.548 -51.508  14.005  1.00  0.00    -0.087 SA
HETATM   19  C   UNL     1     -46.220 -52.008  12.394  1.00  0.00     0.046 A 
HETATM   20  C   UNL     1     -47.247 -51.841  11.328  1.00  0.00     0.076 C 
HETATM   21  N   UNL     1     -45.030 -52.537  12.199  1.00  0.00    -0.357 N 
ATOM     22  HN  UNL     1     -44.682 -52.875  11.302  1.00  0.00     0.166 HD
ENDBRANCH  15  16
ENDBRANCH  14  15
ENDBRANCH  12  14
TORSDOF 3
ENDMDL
MODEL 4
REMARK VINA RESULT:      -5.7      2.199      2.883
REMARK  3 active torsions:
REMARK  status: ('A' for Active; 'I' for Inactive)
REMARK       I    between atoms: C_2  and  N_4 
REMARK       I    between atoms: N_7  and  C_10 
REMARK       I    between atoms: C_10  and  N_12 
REMARK    1  A    between atoms: N_12  and  C_13 
REMARK    2  A    between atoms: C_13  and  C_14 
REMARK    3  A    between atoms: C_14  and  C_15 
ROOT
HETATM    1  C   UNL     1     -42.630 -55.915  15.743  1.00  0.00     0.117 C 
HETATM    2  C   UNL     1     -43.482 -55.060  14.835  1.00  0.00     0.215 C 
HETATM    3  O   UNL     1     -44.649 -55.368  14.605  1.00  0.00    -0.274 OA
HETATM    4  N   UNL     1     -42.867 -53.960  14.259  1.00  0.00    -0.349 N 
HETATM    5  C   UNL     1     -43.645 -53.080  13.374  1.00  0.00     0.145 C 
HETATM    6  C   UNL     1     -42.815 -52.578  12.174  1.00  0.00     0.147 C 
HETATM    7  N   UNL     1     -41.487 -52.091  12.584  1.00  0.00    -0.331 N 
HETATM    8  C   UNL     1     -40.741 -53.017  13.439  1.00  0.00     0.147 C 
HETATM    9  C   UNL     1     -41.565 -53.420  14.664  1.00  0.00     0.145 C 
HETATM   10  C   UNL     1     -40.918 -50.869  12.298  1.00  0.00     0.318 C 
HETATM   11  O   UNL     1     -39.866 -50.491  12.810  1.00  0.00    -0.247 OA
HETATM   12  N   UNL     1     -41.602 -50.090  11.402  1.00  0.00    -0.343 N 
HETATM   13  H   UNL     1     -42.047 -50.621  10.667  1.00  0.00     0.164 HD
ENDROOT
BRANCH  12  14
HETATM   14  C   UNL     1     -41.020 -48.817  10.991  1.00  0.00     0.130 C 
BRANCH  14  15
HETATM   15  C   UNL     1     -41.679 -47.637  11.696  1.00  0.00     0.077 C 
BRANCH  15  16
HETATM   16  C   UNL     1     -40.968 -46.344  11.457  1.00  0.00     0.018 A 
HETATM   17  C   UNL     1     -41.048 -45.206  12.237  1.00  0.00     0.076 A 
HETATM   18  S   UNL     1     -40.107 -43.951  11.551  1.00  0.00    -0.087 SA
HETATM   19  C   UNL     1     -39.657 -45.005  10.271  1.00  0.00     0.046 A 
HETATM   20  C   UNL     1     -38.763 -44.527   9.180  1.00  0.00     0.076 C 
HETATM   21  N   UNL     1     -40.162 -46.219  10.336  1.00  0.00    -0.357 N 
ATOM     22  HN  UNL     1     -39.985 -46.961   9.658  1.00  0.00     0.166 HD
ENDBRANCH  15  16
ENDBRANCH  14  15
ENDBRANCH  12  14
TORSDOF 3
ENDMDL
MODEL 5
REMARK VINA RESULT:      -5.4      4.078      6.548
REMARK  3 active torsions:
REMARK  status: ('A' for Active; 'I' for Inactive)
REMARK       I    between atoms: C_2  and  N_4 
REMARK       I    between atoms: N_7  and  C_10 
REMARK       I    between atoms: C_10  and  N_12 
REMARK    1  A    between atoms: N_12  and  C_13 
REMARK    2  A    between atoms: C_13  and  C_14 
REMARK    3  A    between atoms: C_14  and  C_15 
ROOT
HETATM    1  C   UNL     1     -37.706 -49.943  11.444  1.00  0.00     0.117 C 
HETATM    2  C   UNL     1     -37.813 -50.651  12.773  1.00  0.00     0.215 C 
HETATM    3  O   UNL     1     -36.889 -50.598  13.583  1.00  0.00    -0.274 OA
HETATM    4  N   UNL     1     -38.969 -51.380  12.999  1.00  0.00    -0.349 N 
HETATM    5  C   UNL     1     -39.139 -52.084  14.279  1.00  0.00     0.145 C 
HETATM    6  C   UNL     1     -39.825 -53.455  14.105  1.00  0.00     0.147 C 
HETATM    7  N   UNL     1     -41.011 -53.375  13.235  1.00  0.00    -0.331 N 
HETATM    8  C   UNL     1     -40.780 -52.692  11.960  1.00  0.00     0.147 C 
HETATM    9  C   UNL     1     -40.184 -51.301  12.181  1.00  0.00     0.145 C 
HETATM   10  C   UNL     1     -42.286 -53.815  13.515  1.00  0.00     0.318 C 
HETATM   11  O   UNL     1     -43.247 -53.569  12.789  1.00  0.00    -0.247 OA
HETATM   12  N   UNL     1     -42.423 -54.548  14.665  1.00  0.00    -0.343 N 
HETATM   13  H   UNL     1     -41.633 -55.147  14.854  1.00  0.00     0.164 HD
ENDROOT
BRANCH  12  14
HETATM   14  C   UNL     1     -43.729 -55.114  14.985  1.00  0.00     0.130 C 
BRANCH  14  15
HETATM   15  C   UNL     1     -44.379 -54.408  16.170  1.00  0.00     0.077 C 
BRANCH  15  16
HETATM   16  C   UNL     1     -45.327 -53.330  15.757  1.00  0.00     0.018 A 
HETATM   17  C   UNL     1     -46.119 -52.568  16.594  1.00  0.00     0.076 A 
HETATM   18  S   UNL     1     -47.086 -51.492  15.678  1.00  0.00    -0.087 SA
HETATM   19  C   UNL     1     -46.385 -52.109  14.236  1.00  0.00     0.046 A 
HETATM   20  C   UNL     1     -46.808 -51.587  12.907  1.00  0.00     0.076 C 
HETATM   21  N   UNL     1     -45.482 -53.053  14.407  1.00  0.00    -0.357 N 
ATOM     22  HN  UNL     1     -44.971 -53.515  13.654  1.00  0.00     0.166 HD
ENDBRANCH  15  16
ENDBRANCH  14  15
ENDBRANCH  12  14
TORSDOF 3
ENDMDL
MODEL 6
REMARK VINA RESULT:      -5.4      4.277      6.701
REMARK  3 active torsions:
REMARK  status: ('A' for Active; 'I' for Inactive)
REMARK       I    between atoms: C_2  and  N_4 
REMARK       I    between atoms: N_7  and  C_10 
REMARK       I    between atoms: C_10  and  N_12 
REMARK    1  A    between atoms: N_12  and  C_13 
REMARK    2  A    between atoms: C_13  and  C_14 
REMARK    3  A    between atoms: C_14  and  C_15 
ROOT
HETATM    1  C   UNL     1     -36.317 -47.471  17.100  1.00  0.00     0.117 C 
HETATM    2  C   UNL     1     -36.080 -48.729  16.299  1.00  0.00     0.215 C 
HETATM    3  O   UNL     1     -34.965 -49.247  16.269  1.00  0.00    -0.274 OA
HETATM    4  N   UNL     1     -37.158 -49.226  15.585  1.00  0.00    -0.349 N 
HETATM    5  C   UNL     1     -36.995 -50.455  14.794  1.00  0.00     0.145 C 
HETATM    6  C   UNL     1     -37.764 -50.395  13.457  1.00  0.00     0.147 C 
HETATM    7  N   UNL     1     -39.141 -49.902  13.632  1.00  0.00    -0.331 N 
HETATM    8  C   UNL     1     -39.245 -48.659  14.400  1.00  0.00     0.147 C 
HETATM    9  C   UNL     1     -38.548 -48.791  15.756  1.00  0.00     0.145 C 
HETATM   10  C   UNL     1     -40.306 -50.501  13.205  1.00  0.00     0.318 C 
HETATM   11  O   UNL     1     -41.419 -50.093  13.528  1.00  0.00    -0.247 OA
HETATM   12  N   UNL     1     -40.149 -51.594  12.393  1.00  0.00    -0.343 N 
HETATM   13  H   UNL     1     -39.365 -51.515  11.762  1.00  0.00     0.164 HD
ENDROOT
BRANCH  12  14
HETATM   14  C   UNL     1     -41.337 -52.234  11.839  1.00  0.00     0.130 C 
BRANCH  14  15
HETATM   15  C   UNL     1     -41.738 -53.473  12.631  1.00  0.00     0.077 C 
BRANCH  15  16
HETATM   16  C   UNL     1     -43.191 -53.500  12.975  1.00  0.00     0.018 A 
HETATM   17  C   UNL     1     -43.803 -54.337  13.889  1.00  0.00     0.076 A 
HETATM   18  S   UNL     1     -45.491 -54.051  13.915  1.00  0.00    -0.087 SA
HETATM   19  C   UNL     1     -45.292 -52.836  12.717  1.00  0.00     0.046 A 
HETATM   20  C   UNL     1     -46.471 -52.092  12.194  1.00  0.00     0.076 C 
HETATM   21  N   UNL     1     -44.054 -52.639  12.314  1.00  0.00    -0.357 N 
ATOM     22  HN  UNL     1     -43.770 -51.951  11.616  1.00  0.00     0.166 HD
ENDBRANCH  15  16
ENDBRANCH  14  15
ENDBRANCH  12  14
TORSDOF 3
ENDMDL
MODEL 7
REMARK VINA RESULT:      -5.4      3.629      4.321
REMARK  3 active torsions:
REMARK  status: ('A' for Active; 'I' for Inactive)
REMARK       I    between atoms: C_2  and  N_4 
REMARK       I    between atoms: N_7  and  C_10 
REMARK       I    between atoms: C_10  and  N_12 
REMARK    1  A    between atoms: N_12  and  C_13 
REMARK    2  A    between atoms: C_13  and  C_14 
REMARK    3  A    between atoms: C_14  and  C_15 
ROOT
HETATM    1  C   UNL     1     -46.331 -54.209  15.612  1.00  0.00     0.117 C 
HETATM    2  C   UNL     1     -45.541 -54.525  14.365  1.00  0.00     0.215 C 
HETATM    3  O   UNL     1     -45.643 -55.625  13.825  1.00  0.00    -0.274 OA
HETATM    4  N   UNL     1     -44.683 -53.539  13.905  1.00  0.00    -0.349 N 
HETATM    5  C   UNL     1     -43.894 -53.780  12.688  1.00  0.00     0.145 C 
HETATM    6  C   UNL     1     -42.470 -53.192  12.790  1.00  0.00     0.147 C 
HETATM    7  N   UNL     1     -42.477 -51.813  13.308  1.00  0.00    -0.331 N 
HETATM    8  C   UNL     1     -43.252 -51.633  14.538  1.00  0.00     0.147 C 
HETATM    9  C   UNL     1     -44.683 -52.146  14.366  1.00  0.00     0.145 C 
HETATM   10  C   UNL     1     -41.890 -50.702  12.741  1.00  0.00     0.318 C 
HETATM   11  O   UNL     1     -42.077 -49.564  13.166  1.00  0.00    -0.247 OA
HETATM   12  N   UNL     1     -41.082 -50.943  11.661  1.00  0.00    -0.343 N 
HETATM   13  H   UNL     1     -40.559 -51.803  11.736  1.00  0.00     0.164 HD
ENDROOT
BRANCH  12  14
HETATM   14  C   UNL     1     -40.366 -49.824  11.057  1.00  0.00     0.130 C 
BRANCH  14  15
HETATM   15  C   UNL     1     -38.925 -49.741  11.547  1.00  0.00     0.077 C 
BRANCH  15  16
HETATM   16  C   UNL     1     -38.731 -48.712  12.612  1.00  0.00     0.018 A 
HETATM   17  C   UNL     1     -37.793 -48.746  13.626  1.00  0.00     0.076 A 
HETATM   18  S   UNL     1     -37.974 -47.383  14.647  1.00  0.00    -0.087 SA
HETATM   19  C   UNL     1     -39.280 -46.841  13.670  1.00  0.00     0.046 A 
HETATM   20  C   UNL     1     -40.005 -45.585  14.010  1.00  0.00     0.076 C 
HETATM   21  N   UNL     1     -39.573 -47.611  12.643  1.00  0.00    -0.357 N 
ATOM     22  HN  UNL     1     -40.315 -47.424  11.968  1.00  0.00     0.166 HD
ENDBRANCH  15  16
ENDBRANCH  14  15
ENDBRANCH  12  14
TORSDOF 3
ENDMDL
MODEL 8
REMARK VINA RESULT:      -5.4      2.735      3.697
REMARK  3 active torsions:
REMARK  status: ('A' for Active; 'I' for Inactive)
REMARK       I    between atoms: C_2  and  N_4 
REMARK       I    between atoms: N_7  and  C_10 
REMARK       I    between atoms: C_10  and  N_12 
REMARK    1  A    between atoms: N_12  and  C_13 
REMARK    2  A    between atoms: C_13  and  C_14 
REMARK    3  A    between atoms: C_14  and  C_15 
ROOT
HETATM    1  C   UNL     1     -39.527 -53.246  15.558  1.00  0.00     0.117 C 
HETATM    2  C   UNL     1     -39.804 -53.216  14.074  1.00  0.00     0.215 C 
HETATM    3  O   UNL     1     -39.362 -54.099  13.340  1.00  0.00    -0.274 OA
HETATM    4  N   UNL     1     -40.530 -52.137  13.597  1.00  0.00    -0.349 N 
HETATM    5  C   UNL     1     -40.843 -52.055  12.163  1.00  0.00     0.145 C 
HETATM    6  C   UNL     1     -40.760 -50.609  11.629  1.00  0.00     0.147 C 
HETATM    7  N   UNL     1     -41.453 -49.653  12.509  1.00  0.00    -0.331 N 
HETATM    8  C   UNL     1     -41.083 -49.756  13.923  1.00  0.00     0.147 C 
HETATM    9  C   UNL     1     -41.266 -51.185  14.436  1.00  0.00     0.145 C 
HETATM   10  C   UNL     1     -42.422 -48.739  12.156  1.00  0.00     0.318 C 
HETATM   11  O   UNL     1     -43.052 -48.087  12.985  1.00  0.00    -0.247 OA
HETATM   12  N   UNL     1     -42.646 -48.601  10.811  1.00  0.00    -0.343 N 
HETATM   13  H   UNL     1     -41.807 -48.684  10.254  1.00  0.00     0.164 HD
ENDROOT
BRANCH  12  14
HETATM   14  C   UNL     1     -43.601 -47.596  10.358  1.00  0.00     0.130 C 
BRANCH  14  15
HETATM   15  C   UNL     1     -42.907 -46.393   9.730  1.00  0.00     0.077 C 
BRANCH  15  16
HETATM   16  C   UNL     1     -42.199 -45.540  10.732  1.00  0.00     0.018 A 
HETATM   17  C   UNL     1     -40.880 -45.131  10.677  1.00  0.00     0.076 A 
HETATM   18  S   UNL     1     -40.486 -44.214  12.068  1.00  0.00    -0.087 SA
HETATM   19  C   UNL     1     -42.092 -44.420  12.643  1.00  0.00     0.046 A 
HETATM   20  C   UNL     1     -42.506 -43.835  13.949  1.00  0.00     0.076 C 
HETATM   21  N   UNL     1     -42.886 -45.120  11.861  1.00  0.00    -0.357 N 
ATOM     22  HN  UNL     1     -43.866 -45.325  12.057  1.00  0.00     0.166 HD
ENDBRANCH  15  16
ENDBRANCH  14  15
ENDBRANCH  12  14
TORSDOF 3
ENDMDL
MODEL 9
REMARK VINA RESULT:      -5.3      4.585      6.425
REMARK  3 active torsions:
REMARK  status: ('A' for Active; 'I' for Inactive)
REMARK       I    between atoms: C_2  and  N_4 
REMARK       I    between atoms: N_7  and  C_10 
REMARK       I    between atoms: C_10  and  N_12 
REMARK    1  A    between atoms: N_12  and  C_13 
REMARK    2  A    between atoms: C_13  and  C_14 
REMARK    3  A    between atoms: C_14  and  C_15 
ROOT
HETATM    1  C   UNL     1     -45.237 -55.060  13.815  1.00  0.00     0.117 C 
HETATM    2  C   UNL     1     -44.797 -53.844  13.035  1.00  0.00     0.215 C 
HETATM    3  O   UNL     1     -45.570 -53.293  12.254  1.00  0.00    -0.274 OA
HETATM    4  N   UNL     1     -43.489 -53.426  13.219  1.00  0.00    -0.349 N 
HETATM    5  C   UNL     1     -43.003 -52.241  12.497  1.00  0.00     0.145 C 
HETATM    6  C   UNL     1     -41.543 -52.404  12.023  1.00  0.00     0.147 C 
HETATM    7  N   UNL     1     -40.672 -52.931  13.087  1.00  0.00    -0.331 N 
HETATM    8  C   UNL     1     -41.187 -54.129  13.753  1.00  0.00     0.147 C 
HETATM    9  C   UNL     1     -42.601 -53.896  14.287  1.00  0.00     0.145 C 
HETATM   10  C   UNL     1     -39.485 -52.396  13.539  1.00  0.00     0.318 C 
HETATM   11  O   UNL     1     -38.902 -52.821  14.534  1.00  0.00    -0.247 OA
HETATM   12  N   UNL     1     -38.989 -51.348  12.808  1.00  0.00    -0.343 N 
HETATM   13  H   UNL     1     -39.152 -51.439  11.816  1.00  0.00     0.164 HD
ENDROOT
BRANCH  12  14
HETATM   14  C   UNL     1     -37.697 -50.781  13.181  1.00  0.00     0.130 C 
BRANCH  14  15
HETATM   15  C   UNL     1     -37.849 -49.450  13.907  1.00  0.00     0.077 C 
BRANCH  15  16
HETATM   16  C   UNL     1     -37.685 -49.571  15.387  1.00  0.00     0.018 A 
HETATM   17  C   UNL     1     -38.616 -49.222  16.347  1.00  0.00     0.076 A 
HETATM   18  S   UNL     1     -37.975 -49.481  17.914  1.00  0.00    -0.087 SA
HETATM   19  C   UNL     1     -36.511 -50.040  17.210  1.00  0.00     0.046 A 
HETATM   20  C   UNL     1     -35.375 -50.469  18.072  1.00  0.00     0.076 C 
HETATM   21  N   UNL     1     -36.484 -50.045  15.893  1.00  0.00    -0.357 N 
ATOM     22  HN  UNL     1     -35.694 -50.353  15.327  1.00  0.00     0.166 HD
ENDBRANCH  15  16
ENDBRANCH  14  15
ENDBRANCH  12  14
TORSDOF 3
ENDMDL
