MODEL 1
REMARK VINA RESULT:      -7.3      0.000      0.000
REMARK  6 active torsions:
REMARK  status: ('A' for Active; 'I' for Inactive)
REMARK    1  A    between atoms: O_2  and  C_3 
REMARK    2  A    between atoms: C_6  and  C_10 
REMARK    3  A    between atoms: C_10  and  O_11 
REMARK    4  A    between atoms: C_10  and  C_12 
REMARK    5  A    between atoms: C_12  and  N_13 
REMARK    6  A    between atoms: C_16  and  C_21 
ROOT
HETATM    1  C   UNL     1     -42.422 -47.725  11.526  1.00  0.00     0.189 C 
ENDROOT
BRANCH   1   2
HETATM    2  C   UNL     1     -41.154 -48.316  10.863  1.00  0.00     0.171 C 
BRANCH   2   3
HETATM    3  C   UNL     1     -40.478 -49.438  11.626  1.00  0.00    -0.025 A 
HETATM    4  C   UNL     1     -41.251 -50.472  12.182  1.00  0.00     0.013 A 
HETATM    5  C   UNL     1     -40.642 -51.561  12.818  1.00  0.00     0.040 A 
HETATM    6  C   UNL     1     -39.252 -51.638  12.905  1.00  0.00     0.106 A 
HETATM    7  C   UNL     1     -38.490 -50.572  12.430  1.00  0.00     0.150 A 
HETATM    8  C   UNL     1     -39.091 -49.481  11.808  1.00  0.00     0.055 A 
HETATM    9  F   UNL     1     -37.156 -50.555  12.556  1.00  0.00    -0.203 F 
BRANCH   6  10
HETATM   10  O   UNL     1     -38.753 -52.774  13.484  1.00  0.00    -0.353 OA
HETATM   11  C   UNL     1     -39.753 -53.682  13.948  1.00  0.00     0.210 C 
ENDBRANCH   6  10
ENDBRANCH   2   3
BRANCH   2  12
HETATM   12  O   UNL     1     -41.502 -48.801   9.560  1.00  0.00    -0.389 OA
HETATM   13  H   UNL     1     -41.608 -49.766   9.623  1.00  0.00     0.210 HD
ENDBRANCH   2  12
ENDBRANCH   1   2
BRANCH   1  14
HETATM   14  N   UNL     1     -43.396 -47.141  10.603  1.00  0.00    -0.255 N 
HETATM   15  N   UNL     1     -44.479 -47.935  10.266  1.00  0.00    -0.291 N 
HETATM   16  C   UNL     1     -45.320 -47.485   9.379  1.00  0.00     0.132 A 
ATOM     17  HN  UNL     1     -44.613 -48.849  10.700  1.00  0.00     0.187 HD
HETATM   18  C   UNL     1     -45.158 -46.178   8.696  1.00  0.00     0.041 A 
HETATM   19  C   UNL     1     -44.115 -45.423   9.049  1.00  0.00     0.078 A 
HETATM   20  C   UNL     1     -43.153 -45.887  10.067  1.00  0.00     0.262 A 
HETATM   21  O   UNL     1     -42.206 -45.166  10.364  1.00  0.00    -0.267 OA
BRANCH  16  22
HETATM   22  C   UNL     1     -46.549 -48.316   8.993  1.00  0.00     0.433 C 
HETATM   23  F   UNL     1     -46.731 -49.394   9.808  1.00  0.00    -0.165 F 
HETATM   24  F   UNL     1     -47.702 -47.597   9.058  1.00  0.00    -0.165 F 
HETATM   25  F   UNL     1     -46.464 -48.810   7.728  1.00  0.00    -0.165 F 
ENDBRANCH  16  22
ENDBRANCH   1  14
TORSDOF 6
ENDMDL
MODEL 2
REMARK VINA RESULT:      -7.1      1.939      2.245
REMARK  6 active torsions:
REMARK  status: ('A' for Active; 'I' for Inactive)
REMARK    1  A    between atoms: O_2  and  C_3 
REMARK    2  A    between atoms: C_6  and  C_10 
REMARK    3  A    between atoms: C_10  and  O_11 
REMARK    4  A    between atoms: C_10  and  C_12 
REMARK    5  A    between atoms: C_12  and  N_13 
REMARK    6  A    between atoms: C_16  and  C_21 
ROOT
HETATM    1  C   UNL     1     -42.516 -47.654  11.956  1.00  0.00     0.189 C 
ENDROOT
BRANCH   1   2
HETATM    2  C   UNL     1     -41.565 -48.802  11.539  1.00  0.00     0.171 C 
BRANCH   2   3
HETATM    3  C   UNL     1     -41.905 -50.170  12.097  1.00  0.00    -0.025 A 
HETATM    4  C   UNL     1     -43.066 -50.342  12.870  1.00  0.00     0.013 A 
HETATM    5  C   UNL     1     -43.444 -51.611  13.325  1.00  0.00     0.040 A 
HETATM    6  C   UNL     1     -42.674 -52.730  13.010  1.00  0.00     0.106 A 
HETATM    7  C   UNL     1     -41.478 -52.548  12.317  1.00  0.00     0.150 A 
HETATM    8  C   UNL     1     -41.091 -51.286  11.873  1.00  0.00     0.055 A 
HETATM    9  F   UNL     1     -40.658 -53.575  12.054  1.00  0.00    -0.203 F 
BRANCH   6  10
HETATM   10  O   UNL     1     -43.163 -53.933  13.443  1.00  0.00    -0.353 OA
HETATM   11  C   UNL     1     -44.498 -54.209  13.017  1.00  0.00     0.210 C 
ENDBRANCH   6  10
ENDBRANCH   2   3
BRANCH   2  12
HETATM   12  O   UNL     1     -41.551 -48.887  10.108  1.00  0.00    -0.389 OA
HETATM   13  H   UNL     1     -42.224 -49.537   9.845  1.00  0.00     0.210 HD
ENDBRANCH   2  12
ENDBRANCH   1   2
BRANCH   1  14
HETATM   14  N   UNL     1     -43.343 -47.105  10.882  1.00  0.00    -0.255 N 
HETATM   15  N   UNL     1     -44.434 -47.865  10.494  1.00  0.00    -0.291 N 
HETATM   16  C   UNL     1     -45.143 -47.452   9.482  1.00  0.00     0.132 A 
ATOM     17  HN  UNL     1     -44.675 -48.724  10.988  1.00  0.00     0.187 HD
HETATM   18  C   UNL     1     -44.821 -46.227   8.711  1.00  0.00     0.041 A 
HETATM   19  C   UNL     1     -43.775 -45.503   9.113  1.00  0.00     0.078 A 
HETATM   20  C   UNL     1     -42.961 -45.922  10.270  1.00  0.00     0.262 A 
HETATM   21  O   UNL     1     -42.005 -45.232  10.609  1.00  0.00    -0.267 OA
BRANCH  16  22
HETATM   22  C   UNL     1     -46.376 -48.245   9.033  1.00  0.00     0.433 C 
HETATM   23  F   UNL     1     -46.626 -49.324   9.830  1.00  0.00    -0.165 F 
HETATM   24  F   UNL     1     -47.510 -47.494   9.051  1.00  0.00    -0.165 F 
HETATM   25  F   UNL     1     -46.246 -48.733   7.770  1.00  0.00    -0.165 F 
ENDBRANCH  16  22
ENDBRANCH   1  14
TORSDOF 6
ENDMDL
MODEL 3
REMARK VINA RESULT:      -6.9      1.779      2.438
REMARK  6 active torsions:
REMARK  status: ('A' for Active; 'I' for Inactive)
REMARK    1  A    between atoms: O_2  and  C_3 
REMARK    2  A    between atoms: C_6  and  C_10 
REMARK    3  A    between atoms: C_10  and  O_11 
REMARK    4  A    between atoms: C_10  and  C_12 
REMARK    5  A    between atoms: C_12  and  N_13 
REMARK    6  A    between atoms: C_16  and  C_21 
ROOT
HETATM    1  C   UNL     1     -42.349 -47.984  11.529  1.00  0.00     0.189 C 
ENDROOT
BRANCH   1   2
HETATM    2  C   UNL     1     -40.943 -48.235  10.932  1.00  0.00     0.171 C 
BRANCH   2   3
HETATM    3  C   UNL     1     -39.811 -48.330  11.937  1.00  0.00    -0.025 A 
HETATM    4  C   UNL     1     -39.653 -47.327  12.908  1.00  0.00     0.013 A 
HETATM    5  C   UNL     1     -38.667 -47.435  13.897  1.00  0.00     0.040 A 
HETATM    6  C   UNL     1     -37.829 -48.549  13.936  1.00  0.00     0.106 A 
HETATM    7  C   UNL     1     -37.929 -49.500  12.922  1.00  0.00     0.150 A 
HETATM    8  C   UNL     1     -38.899 -49.391  11.929  1.00  0.00     0.055 A 
HETATM    9  F   UNL     1     -37.099 -50.551  12.863  1.00  0.00    -0.203 F 
BRANCH   6  10
HETATM   10  O   UNL     1     -36.945 -48.594  14.980  1.00  0.00    -0.353 OA
HETATM   11  C   UNL     1     -37.244 -47.685  16.041  1.00  0.00     0.210 C 
ENDBRANCH   6  10
ENDBRANCH   2   3
BRANCH   2  12
HETATM   12  O   UNL     1     -40.978 -49.451  10.174  1.00  0.00    -0.389 OA
HETATM   13  H   UNL     1     -40.268 -50.026  10.507  1.00  0.00     0.210 HD
ENDBRANCH   2  12
ENDBRANCH   1   2
BRANCH   1  14
HETATM   14  N   UNL     1     -43.295 -47.309  10.640  1.00  0.00    -0.255 N 
HETATM   15  N   UNL     1     -44.409 -48.037  10.259  1.00  0.00    -0.291 N 
HETATM   16  C   UNL     1     -45.229 -47.502   9.399  1.00  0.00     0.132 A 
ATOM     17  HN  UNL     1     -44.584 -48.966  10.642  1.00  0.00     0.187 HD
HETATM   18  C   UNL     1     -45.010 -46.168   8.790  1.00  0.00     0.041 A 
HETATM   19  C   UNL     1     -43.937 -45.479   9.184  1.00  0.00     0.078 A 
HETATM   20  C   UNL     1     -42.998 -46.038  10.174  1.00  0.00     0.262 A 
HETATM   21  O   UNL     1     -42.021 -45.376  10.511  1.00  0.00    -0.267 OA
BRANCH  16  22
HETATM   22  C   UNL     1     -46.491 -48.258   8.968  1.00  0.00     0.433 C 
HETATM   23  F   UNL     1     -46.412 -48.728   7.690  1.00  0.00    -0.165 F 
HETATM   24  F   UNL     1     -46.739 -49.342   9.752  1.00  0.00    -0.165 F 
HETATM   25  F   UNL     1     -47.604 -47.477   9.013  1.00  0.00    -0.165 F 
ENDBRANCH  16  22
ENDBRANCH   1  14
TORSDOF 6
ENDMDL
MODEL 4
REMARK VINA RESULT:      -6.9      2.779      3.540
REMARK  6 active torsions:
REMARK  status: ('A' for Active; 'I' for Inactive)
REMARK    1  A    between atoms: O_2  and  C_3 
REMARK    2  A    between atoms: C_6  and  C_10 
REMARK    3  A    between atoms: C_10  and  O_11 
REMARK    4  A    between atoms: C_10  and  C_12 
REMARK    5  A    between atoms: C_12  and  N_13 
REMARK    6  A    between atoms: C_16  and  C_21 
ROOT
HETATM    1  C   UNL     1     -42.855 -47.986  12.426  1.00  0.00     0.189 C 
ENDROOT
BRANCH   1   2
HETATM    2  C   UNL     1     -42.157 -49.360  12.286  1.00  0.00     0.171 C 
BRANCH   2   3
HETATM    3  C   UNL     1     -42.927 -50.545  12.836  1.00  0.00    -0.025 A 
HETATM    4  C   UNL     1     -42.343 -51.824  12.824  1.00  0.00     0.013 A 
HETATM    5  C   UNL     1     -43.000 -52.918  13.402  1.00  0.00     0.040 A 
HETATM    6  C   UNL     1     -44.247 -52.752  14.005  1.00  0.00     0.106 A 
HETATM    7  C   UNL     1     -44.862 -51.502  13.940  1.00  0.00     0.150 A 
HETATM    8  C   UNL     1     -44.219 -50.415  13.357  1.00  0.00     0.055 A 
HETATM    9  F   UNL     1     -46.092 -51.302  14.434  1.00  0.00    -0.203 F 
BRANCH   6  10
HETATM   10  O   UNL     1     -44.775 -53.866  14.600  1.00  0.00    -0.353 OA
HETATM   11  C   UNL     1     -45.256 -54.847  13.682  1.00  0.00     0.210 C 
ENDBRANCH   6  10
ENDBRANCH   2   3
BRANCH   2  12
HETATM   12  O   UNL     1     -41.889 -49.599  10.898  1.00  0.00    -0.389 OA
HETATM   13  H   UNL     1     -42.376 -48.932  10.385  1.00  0.00     0.210 HD
ENDBRANCH   2  12
ENDBRANCH   1   2
BRANCH   1  14
HETATM   14  N   UNL     1     -43.375 -47.419  11.181  1.00  0.00    -0.255 N 
HETATM   15  N   UNL     1     -44.545 -47.977  10.693  1.00  0.00    -0.291 N 
HETATM   16  C   UNL     1     -44.992 -47.560   9.542  1.00  0.00     0.132 A 
ATOM     17  HN  UNL     1     -45.043 -48.695  11.219  1.00  0.00     0.187 HD
HETATM   18  C   UNL     1     -44.294 -46.540   8.722  1.00  0.00     0.041 A 
HETATM   19  C   UNL     1     -43.177 -46.006   9.220  1.00  0.00     0.078 A 
HETATM   20  C   UNL     1     -42.652 -46.433  10.531  1.00  0.00     0.262 A 
HETATM   21  O   UNL     1     -41.621 -45.921  10.956  1.00  0.00    -0.267 OA
BRANCH  16  22
HETATM   22  C   UNL     1     -46.297 -48.127   8.973  1.00  0.00     0.433 C 
HETATM   23  F   UNL     1     -46.754 -49.202   9.677  1.00  0.00    -0.165 F 
HETATM   24  F   UNL     1     -47.306 -47.215   8.982  1.00  0.00    -0.165 F 
HETATM   25  F   UNL     1     -46.161 -48.550   7.687  1.00  0.00    -0.165 F 
ENDBRANCH  16  22
ENDBRANCH   1  14
TORSDOF 6
ENDMDL
MODEL 5
REMARK VINA RESULT:      -6.9      3.962      6.310
REMARK  6 active torsions:
REMARK  status: ('A' for Active; 'I' for Inactive)
REMARK    1  A    between atoms: O_2  and  C_3 
REMARK    2  A    between atoms: C_6  and  C_10 
REMARK    3  A    between atoms: C_10  and  O_11 
REMARK    4  A    between atoms: C_10  and  C_12 
REMARK    5  A    between atoms: C_12  and  N_13 
REMARK    6  A    between atoms: C_16  and  C_21 
ROOT
HETATM    1  C   UNL     1     -40.078 -52.503  13.643  1.00  0.00     0.189 C 
ENDROOT
BRANCH   1   2
HETATM    2  C   UNL     1     -40.790 -53.590  12.803  1.00  0.00     0.171 C 
BRANCH   2   3
HETATM    3  C   UNL     1     -42.255 -53.813  13.125  1.00  0.00    -0.025 A 
HETATM    4  C   UNL     1     -42.617 -54.623  14.215  1.00  0.00     0.013 A 
HETATM    5  C   UNL     1     -43.959 -54.776  14.582  1.00  0.00     0.040 A 
HETATM    6  C   UNL     1     -44.962 -54.117  13.872  1.00  0.00     0.106 A 
HETATM    7  C   UNL     1     -44.611 -53.383  12.739  1.00  0.00     0.150 A 
HETATM    8  C   UNL     1     -43.279 -53.239  12.363  1.00  0.00     0.055 A 
HETATM    9  F   UNL     1     -45.539 -52.792  11.973  1.00  0.00    -0.203 F 
BRANCH   6  10
HETATM   10  O   UNL     1     -46.235 -54.275  14.350  1.00  0.00    -0.353 OA
HETATM   11  C   UNL     1     -46.755 -53.127  15.021  1.00  0.00     0.210 C 
ENDBRANCH   6  10
ENDBRANCH   2   3
BRANCH   2  12
HETATM   12  O   UNL     1     -40.679 -53.245  11.417  1.00  0.00    -0.389 OA
HETATM   13  H   UNL     1     -39.785 -53.487  11.123  1.00  0.00     0.210 HD
ENDBRANCH   2  12
ENDBRANCH   1   2
BRANCH   1  14
HETATM   14  N   UNL     1     -39.781 -51.259  12.933  1.00  0.00    -0.255 N 
HETATM   15  N   UNL     1     -40.870 -50.495  12.546  1.00  0.00    -0.291 N 
HETATM   16  C   UNL     1     -40.651 -49.426  11.834  1.00  0.00     0.132 A 
ATOM     17  HN  UNL     1     -41.818 -50.763  12.811  1.00  0.00     0.187 HD
HETATM   18  C   UNL     1     -39.297 -49.005  11.398  1.00  0.00     0.041 A 
HETATM   19  C   UNL     1     -38.262 -49.748  11.796  1.00  0.00     0.078 A 
HETATM   20  C   UNL     1     -38.466 -50.952  12.623  1.00  0.00     0.262 A 
HETATM   21  O   UNL     1     -37.491 -51.611  12.968  1.00  0.00    -0.267 OA
BRANCH  16  22
HETATM   22  C   UNL     1     -41.822 -48.534  11.406  1.00  0.00     0.433 C 
HETATM   23  F   UNL     1     -41.717 -47.262  11.886  1.00  0.00    -0.165 F 
HETATM   24  F   UNL     1     -41.916 -48.418  10.054  1.00  0.00    -0.165 F 
HETATM   25  F   UNL     1     -43.020 -49.005  11.846  1.00  0.00    -0.165 F 
ENDBRANCH  16  22
ENDBRANCH   1  14
TORSDOF 6
ENDMDL
MODEL 6
REMARK VINA RESULT:      -6.8      3.470      6.418
REMARK  6 active torsions:
REMARK  status: ('A' for Active; 'I' for Inactive)
REMARK    1  A    between atoms: O_2  and  C_3 
REMARK    2  A    between atoms: C_6  and  C_10 
REMARK    3  A    between atoms: C_10  and  O_11 
REMARK    4  A    between atoms: C_10  and  C_12 
REMARK    5  A    between atoms: C_12  and  N_13 
REMARK    6  A    between atoms: C_16  and  C_21 
ROOT
HETATM    1  C   UNL     1     -41.585 -50.032  12.464  1.00  0.00     0.189 C 
ENDROOT
BRANCH   1   2
HETATM    2  C   UNL     1     -41.411 -49.472  11.031  1.00  0.00     0.171 C 
BRANCH   2   3
HETATM    3  C   UNL     1     -41.277 -47.965  10.928  1.00  0.00    -0.025 A 
HETATM    4  C   UNL     1     -40.070 -47.344  11.291  1.00  0.00     0.013 A 
HETATM    5  C   UNL     1     -39.896 -45.964  11.125  1.00  0.00     0.040 A 
HETATM    6  C   UNL     1     -40.919 -45.184  10.588  1.00  0.00     0.106 A 
HETATM    7  C   UNL     1     -42.145 -45.787  10.308  1.00  0.00     0.150 A 
HETATM    8  C   UNL     1     -42.328 -47.156  10.483  1.00  0.00     0.055 A 
HETATM    9  F   UNL     1     -43.190 -45.074   9.864  1.00  0.00    -0.203 F 
BRANCH   6  10
HETATM   10  O   UNL     1     -40.626 -43.860  10.402  1.00  0.00    -0.353 OA
HETATM   11  C   UNL     1     -40.715 -43.069  11.587  1.00  0.00     0.210 C 
ENDBRANCH   6  10
ENDBRANCH   2   3
BRANCH   2  12
HETATM   12  O   UNL     1     -40.249 -50.071  10.444  1.00  0.00    -0.389 OA
HETATM   13  H   UNL     1     -39.470 -49.721  10.909  1.00  0.00     0.210 HD
ENDBRANCH   2  12
ENDBRANCH   1   2
BRANCH   1  14
HETATM   14  N   UNL     1     -42.299 -51.306  12.555  1.00  0.00    -0.255 N 
HETATM   15  N   UNL     1     -43.676 -51.233  12.682  1.00  0.00    -0.291 N 
HETATM   16  C   UNL     1     -44.338 -52.341  12.855  1.00  0.00     0.132 A 
ATOM     17  HN  UNL     1     -44.159 -50.335  12.640  1.00  0.00     0.187 HD
HETATM   18  C   UNL     1     -43.686 -53.669  12.950  1.00  0.00     0.041 A 
HETATM   19  C   UNL     1     -42.360 -53.717  12.810  1.00  0.00     0.078 A 
HETATM   20  C   UNL     1     -41.576 -52.487  12.588  1.00  0.00     0.262 A 
HETATM   21  O   UNL     1     -40.358 -52.570  12.466  1.00  0.00    -0.267 OA
BRANCH  16  22
HETATM   22  C   UNL     1     -45.867 -52.313  12.972  1.00  0.00     0.433 C 
HETATM   23  F   UNL     1     -46.329 -51.170  13.554  1.00  0.00    -0.165 F 
HETATM   24  F   UNL     1     -46.481 -52.392  11.760  1.00  0.00    -0.165 F 
HETATM   25  F   UNL     1     -46.347 -53.340  13.724  1.00  0.00    -0.165 F 
ENDBRANCH  16  22
ENDBRANCH   1  14
TORSDOF 6
ENDMDL
MODEL 7
REMARK VINA RESULT:      -6.5      5.445      7.005
REMARK  6 active torsions:
REMARK  status: ('A' for Active; 'I' for Inactive)
REMARK    1  A    between atoms: O_2  and  C_3 
REMARK    2  A    between atoms: C_6  and  C_10 
REMARK    3  A    between atoms: C_10  and  O_11 
REMARK    4  A    between atoms: C_10  and  C_12 
REMARK    5  A    between atoms: C_12  and  N_13 
REMARK    6  A    between atoms: C_16  and  C_21 
ROOT
HETATM    1  C   UNL     1     -44.754 -55.018  14.261  1.00  0.00     0.189 C 
ENDROOT
BRANCH   1   2
HETATM    2  C   UNL     1     -43.437 -55.128  15.067  1.00  0.00     0.171 C 
BRANCH   2   3
HETATM    3  C   UNL     1     -42.277 -54.303  14.545  1.00  0.00    -0.025 A 
HETATM    4  C   UNL     1     -41.936 -54.360  13.182  1.00  0.00     0.013 A 
HETATM    5  C   UNL     1     -40.924 -53.544  12.662  1.00  0.00     0.040 A 
HETATM    6  C   UNL     1     -40.240 -52.655  13.490  1.00  0.00     0.106 A 
HETATM    7  C   UNL     1     -40.519 -52.662  14.857  1.00  0.00     0.150 A 
HETATM    8  C   UNL     1     -41.515 -53.479  15.381  1.00  0.00     0.055 A 
HETATM    9  F   UNL     1     -39.839 -51.886  15.713  1.00  0.00    -0.203 F 
BRANCH   6  10
HETATM   10  O   UNL     1     -39.316 -51.855  12.874  1.00  0.00    -0.353 OA
HETATM   11  C   UNL     1     -39.865 -50.676  12.284  1.00  0.00     0.210 C 
ENDBRANCH   6  10
ENDBRANCH   2   3
BRANCH   2  12
HETATM   12  O   UNL     1     -43.695 -54.738  16.422  1.00  0.00    -0.389 OA
HETATM   13  H   UNL     1     -43.671 -53.767  16.459  1.00  0.00     0.210 HD
ENDBRANCH   2  12
ENDBRANCH   1   2
BRANCH   1  14
HETATM   14  N   UNL     1     -45.390 -53.701  14.280  1.00  0.00    -0.255 N 
HETATM   15  N   UNL     1     -45.905 -53.283  15.496  1.00  0.00    -0.291 N 
HETATM   16  C   UNL     1     -46.557 -52.156  15.533  1.00  0.00     0.132 A 
ATOM     17  HN  UNL     1     -45.778 -53.843  16.339  1.00  0.00     0.187 HD
HETATM   18  C   UNL     1     -46.797 -51.316  14.335  1.00  0.00     0.041 A 
HETATM   19  C   UNL     1     -46.277 -51.731  13.178  1.00  0.00     0.078 A 
HETATM   20  C   UNL     1     -45.511 -52.990  13.098  1.00  0.00     0.262 A 
HETATM   21  O   UNL     1     -45.050 -53.340  12.016  1.00  0.00    -0.267 OA
BRANCH  16  22
HETATM   22  C   UNL     1     -47.123 -51.638  16.861  1.00  0.00     0.433 C 
HETATM   23  F   UNL     1     -46.427 -50.571  17.348  1.00  0.00    -0.165 F 
HETATM   24  F   UNL     1     -48.414 -51.226  16.749  1.00  0.00    -0.165 F 
HETATM   25  F   UNL     1     -47.095 -52.584  17.839  1.00  0.00    -0.165 F 
ENDBRANCH  16  22
ENDBRANCH   1  14
TORSDOF 6
ENDMDL
MODEL 8
REMARK VINA RESULT:      -6.5      3.338      6.418
REMARK  6 active torsions:
REMARK  status: ('A' for Active; 'I' for Inactive)
REMARK    1  A    between atoms: O_2  and  C_3 
REMARK    2  A    between atoms: C_6  and  C_10 
REMARK    3  A    between atoms: C_10  and  O_11 
REMARK    4  A    between atoms: C_10  and  C_12 
REMARK    5  A    between atoms: C_12  and  N_13 
REMARK    6  A    between atoms: C_16  and  C_21 
ROOT
HETATM    1  C   UNL     1     -41.380 -51.403  11.953  1.00  0.00     0.189 C 
ENDROOT
BRANCH   1   2
HETATM    2  C   UNL     1     -41.293 -50.033  12.667  1.00  0.00     0.171 C 
BRANCH   2   3
HETATM    3  C   UNL     1     -41.647 -48.827  11.819  1.00  0.00    -0.025 A 
HETATM    4  C   UNL     1     -42.982 -48.605  11.442  1.00  0.00     0.013 A 
HETATM    5  C   UNL     1     -43.345 -47.454  10.730  1.00  0.00     0.040 A 
HETATM    6  C   UNL     1     -42.383 -46.505  10.389  1.00  0.00     0.106 A 
HETATM    7  C   UNL     1     -41.046 -46.767  10.688  1.00  0.00     0.150 A 
HETATM    8  C   UNL     1     -40.679 -47.915  11.384  1.00  0.00     0.055 A 
HETATM    9  F   UNL     1     -40.069 -45.928  10.316  1.00  0.00    -0.203 F 
BRANCH   6  10
HETATM   10  O   UNL     1     -42.848 -45.385   9.755  1.00  0.00    -0.353 OA
HETATM   11  C   UNL     1     -44.053 -45.588   9.017  1.00  0.00     0.210 C 
ENDBRANCH   6  10
ENDBRANCH   2   3
BRANCH   2  12
HETATM   12  O   UNL     1     -42.161 -50.054  13.808  1.00  0.00    -0.389 OA
HETATM   13  H   UNL     1     -41.730 -49.545  14.515  1.00  0.00     0.210 HD
ENDBRANCH   2  12
ENDBRANCH   1   2
BRANCH   1  14
HETATM   14  N   UNL     1     -42.368 -52.333  12.502  1.00  0.00    -0.255 N 
HETATM   15  N   UNL     1     -43.693 -51.940  12.424  1.00  0.00    -0.291 N 
HETATM   16  C   UNL     1     -44.594 -52.699  12.981  1.00  0.00     0.132 A 
ATOM     17  HN  UNL     1     -43.957 -51.079  11.944  1.00  0.00     0.187 HD
HETATM   18  C   UNL     1     -44.264 -53.945  13.715  1.00  0.00     0.041 A 
HETATM   19  C   UNL     1     -42.982 -54.311  13.763  1.00  0.00     0.078 A 
HETATM   20  C   UNL     1     -41.934 -53.492  13.124  1.00  0.00     0.262 A 
HETATM   21  O   UNL     1     -40.765 -53.859  13.191  1.00  0.00    -0.267 OA
BRANCH  16  22
HETATM   22  C   UNL     1     -46.077 -52.321  12.897  1.00  0.00     0.433 C 
HETATM   23  F   UNL     1     -46.311 -51.027  13.262  1.00  0.00    -0.165 F 
HETATM   24  F   UNL     1     -46.575 -52.451  11.638  1.00  0.00    -0.165 F 
HETATM   25  F   UNL     1     -46.854 -53.087  13.709  1.00  0.00    -0.165 F 
ENDBRANCH  16  22
ENDBRANCH   1  14
TORSDOF 6
ENDMDL
MODEL 9
REMARK VINA RESULT:      -6.4      3.380      6.440
REMARK  6 active torsions:
REMARK  status: ('A' for Active; 'I' for Inactive)
REMARK    1  A    between atoms: O_2  and  C_3 
REMARK    2  A    between atoms: C_6  and  C_10 
REMARK    3  A    between atoms: C_10  and  O_11 
REMARK    4  A    between atoms: C_10  and  C_12 
REMARK    5  A    between atoms: C_12  and  N_13 
REMARK    6  A    between atoms: C_16  and  C_21 
ROOT
HETATM    1  C   UNL     1     -41.264 -51.703  11.882  1.00  0.00     0.189 C 
ENDROOT
BRANCH   1   2
HETATM    2  C   UNL     1     -40.828 -50.498  12.750  1.00  0.00     0.171 C 
BRANCH   2   3
HETATM    3  C   UNL     1     -40.952 -49.137  12.092  1.00  0.00    -0.025 A 
HETATM    4  C   UNL     1     -39.865 -48.246  12.120  1.00  0.00     0.013 A 
HETATM    5  C   UNL     1     -39.927 -47.019  11.448  1.00  0.00     0.040 A 
HETATM    6  C   UNL     1     -41.070 -46.664  10.733  1.00  0.00     0.106 A 
HETATM    7  C   UNL     1     -42.178 -47.510  10.777  1.00  0.00     0.150 A 
HETATM    8  C   UNL     1     -42.127 -48.725  11.454  1.00  0.00     0.055 A 
HETATM    9  F   UNL     1     -43.330 -47.185  10.174  1.00  0.00    -0.203 F 
BRANCH   6  10
HETATM   10  O   UNL     1     -41.006 -45.476  10.055  1.00  0.00    -0.353 OA
HETATM   11  C   UNL     1     -39.848 -44.696  10.351  1.00  0.00     0.210 C 
ENDBRANCH   6  10
ENDBRANCH   2   3
BRANCH   2  12
HETATM   12  O   UNL     1     -41.610 -50.492  13.951  1.00  0.00    -0.389 OA
HETATM   13  H   UNL     1     -41.080 -50.065  14.646  1.00  0.00     0.210 HD
ENDBRANCH   2  12
ENDBRANCH   1   2
BRANCH   1  14
HETATM   14  N   UNL     1     -42.293 -52.559  12.472  1.00  0.00    -0.255 N 
HETATM   15  N   UNL     1     -43.595 -52.091  12.407  1.00  0.00    -0.291 N 
HETATM   16  C   UNL     1     -44.528 -52.782  12.999  1.00  0.00     0.132 A 
ATOM     17  HN  UNL     1     -43.817 -51.228  11.910  1.00  0.00     0.187 HD
HETATM   18  C   UNL     1     -44.258 -54.026  13.759  1.00  0.00     0.041 A 
HETATM   19  C   UNL     1     -42.998 -54.466  13.794  1.00  0.00     0.078 A 
HETATM   20  C   UNL     1     -41.917 -53.726  13.116  1.00  0.00     0.262 A 
HETATM   21  O   UNL     1     -40.770 -54.160  13.172  1.00  0.00    -0.267 OA
BRANCH  16  22
HETATM   22  C   UNL     1     -45.988 -52.319  12.932  1.00  0.00     0.433 C 
HETATM   23  F   UNL     1     -46.517 -52.427  11.679  1.00  0.00    -0.165 F 
HETATM   24  F   UNL     1     -46.800 -53.045  13.746  1.00  0.00    -0.165 F 
HETATM   25  F   UNL     1     -46.134 -51.015  13.290  1.00  0.00    -0.165 F 
ENDBRANCH  16  22
ENDBRANCH   1  14
TORSDOF 6
ENDMDL
