MODEL 1
REMARK VINA RESULT:      -5.8      0.000      0.000
REMARK  7 active torsions:
REMARK  status: ('A' for Active; 'I' for Inactive)
REMARK    1  A    between atoms: C_2  and  O_3 
REMARK    2  A    between atoms: O_3  and  C_4 
REMARK    3  A    between atoms: C_4  and  C_5 
REMARK    4  A    between atoms: C_5  and  N_6 
REMARK    5  A    between atoms: C_7  and  C_16 
REMARK    6  A    between atoms: C_16  and  N_18 
REMARK       I    between atoms: N_18  and  C_19 
REMARK    7  A    between atoms: C_19  and  C_21 
ROOT
HETATM    1  N   UNL     1     -39.563 -47.350  13.141  1.00  0.00    -0.331 N 
HETATM    2  C   UNL     1     -39.771 -47.220  11.777  1.00  0.00     0.107 A 
HETATM    3  N   UNL     1     -39.233 -48.242  11.131  1.00  0.00    -0.342 N 
ATOM      4  HN  UNL     1     -39.241 -48.401  10.123  1.00  0.00     0.167 HD
HETATM    5  C   UNL     1     -38.664 -49.043  12.084  1.00  0.00     0.060 A 
HETATM    6  C   UNL     1     -37.938 -50.235  11.932  1.00  0.00     0.032 A 
HETATM    7  C   UNL     1     -37.464 -50.892  13.075  1.00  0.00     0.002 A 
HETATM    8  C   UNL     1     -37.722 -50.381  14.345  1.00  0.00     0.002 A 
HETATM    9  C   UNL     1     -38.450 -49.199  14.514  1.00  0.00     0.032 A 
HETATM   10  C   UNL     1     -38.890 -48.538  13.357  1.00  0.00     0.062 A 
ENDROOT
BRANCH   2  11
HETATM   11  C   UNL     1     -40.516 -46.094  11.102  1.00  0.00     0.148 C 
HETATM   12  C   UNL     1     -39.562 -45.228  10.281  1.00  0.00     0.040 C 
BRANCH  11  13
HETATM   13  N   UNL     1     -41.527 -46.691  10.248  1.00  0.00    -0.344 N 
HETATM   14  C   UNL     1     -42.818 -46.918  10.672  1.00  0.00     0.276 C 
HETATM   15  O   UNL     1     -43.163 -46.737  11.839  1.00  0.00    -0.265 OA
HETATM   16  H   UNL     1     -41.330 -46.759   9.255  1.00  0.00     0.163 HD
BRANCH  14  17
HETATM   17  C   UNL     1     -43.723 -47.392   9.643  1.00  0.00     0.142 A 
HETATM   18  C   UNL     1     -43.497 -47.718   8.316  1.00  0.00     0.045 A 
HETATM   19  C   UNL     1     -44.744 -48.105   7.770  1.00  0.00     0.027 A 
HETATM   20  C   UNL     1     -45.656 -48.000   8.794  1.00  0.00     0.143 A 
HETATM   21  O   UNL     1     -45.052 -47.571   9.932  1.00  0.00    -0.317 OA
ENDBRANCH  14  17
ENDBRANCH  11  13
ENDBRANCH   2  11
BRANCH   1  22
HETATM   22  C   UNL     1     -39.984 -46.450  14.203  1.00  0.00     0.156 C 
BRANCH  22  23
HETATM   23  C   UNL     1     -38.926 -45.415  14.591  1.00  0.00     0.187 C 
BRANCH  23  24
HETATM   24  O   UNL     1     -39.528 -44.136  14.784  1.00  0.00    -0.390 OA
BRANCH  24  25
HETATM   25  C   UNL     1     -40.811 -44.066  14.161  1.00  0.00     0.163 C 
HETATM   26  C   UNL     1     -40.799 -42.932  13.157  1.00  0.00     0.033 C 
ENDBRANCH  24  25
ENDBRANCH  23  24
ENDBRANCH  22  23
ENDBRANCH   1  22
TORSDOF 7
ENDMDL
MODEL 2
REMARK VINA RESULT:      -5.8      4.660      5.821
REMARK  7 active torsions:
REMARK  status: ('A' for Active; 'I' for Inactive)
REMARK    1  A    between atoms: C_2  and  O_3 
REMARK    2  A    between atoms: O_3  and  C_4 
REMARK    3  A    between atoms: C_4  and  C_5 
REMARK    4  A    between atoms: C_5  and  N_6 
REMARK    5  A    between atoms: C_7  and  C_16 
REMARK    6  A    between atoms: C_16  and  N_18 
REMARK       I    between atoms: N_18  and  C_19 
REMARK    7  A    between atoms: C_19  and  C_21 
ROOT
HETATM    1  N   UNL     1     -42.412 -51.490  14.155  1.00  0.00    -0.331 N 
HETATM    2  C   UNL     1     -42.244 -51.136  12.826  1.00  0.00     0.107 A 
HETATM    3  N   UNL     1     -42.922 -51.959  12.042  1.00  0.00    -0.342 N 
ATOM      4  HN  UNL     1     -42.978 -51.927  11.024  1.00  0.00     0.167 HD
HETATM    5  C   UNL     1     -43.533 -52.863  12.870  1.00  0.00     0.060 A 
HETATM    6  C   UNL     1     -44.342 -53.964  12.549  1.00  0.00     0.032 A 
HETATM    7  C   UNL     1     -44.873 -54.742  13.586  1.00  0.00     0.002 A 
HETATM    8  C   UNL     1     -44.618 -54.419  14.917  1.00  0.00     0.002 A 
HETATM    9  C   UNL     1     -43.821 -53.321  15.254  1.00  0.00     0.032 A 
HETATM   10  C   UNL     1     -43.271 -52.572  14.202  1.00  0.00     0.062 A 
ENDROOT
BRANCH   2  11
HETATM   11  C   UNL     1     -41.427 -49.972  12.320  1.00  0.00     0.148 C 
HETATM   12  C   UNL     1     -40.123 -50.460  11.688  1.00  0.00     0.040 C 
BRANCH  11  13
HETATM   13  N   UNL     1     -42.234 -49.265  11.342  1.00  0.00    -0.344 N 
HETATM   14  C   UNL     1     -42.907 -48.099  11.638  1.00  0.00     0.276 C 
HETATM   15  O   UNL     1     -42.959 -47.648  12.781  1.00  0.00    -0.265 OA
HETATM   16  H   UNL     1     -42.139 -49.530  10.368  1.00  0.00     0.163 HD
BRANCH  14  17
HETATM   17  C   UNL     1     -43.546 -47.461  10.504  1.00  0.00     0.142 A 
HETATM   18  C   UNL     1     -44.814 -47.621   9.969  1.00  0.00     0.045 A 
HETATM   19  C   UNL     1     -44.899 -46.757   8.851  1.00  0.00     0.027 A 
HETATM   20  C   UNL     1     -43.685 -46.115   8.773  1.00  0.00     0.143 A 
HETATM   21  O   UNL     1     -42.858 -46.530   9.767  1.00  0.00    -0.317 OA
ENDBRANCH  14  17
ENDBRANCH  11  13
ENDBRANCH   2  11
BRANCH   1  22
HETATM   22  C   UNL     1     -41.841 -50.854  15.333  1.00  0.00     0.156 C 
BRANCH  22  23
HETATM   23  C   UNL     1     -40.383 -51.236  15.595  1.00  0.00     0.187 C 
BRANCH  23  24
HETATM   24  O   UNL     1     -40.218 -52.652  15.520  1.00  0.00    -0.390 OA
BRANCH  24  25
HETATM   25  C   UNL     1     -39.328 -53.016  14.464  1.00  0.00     0.163 C 
HETATM   26  C   UNL     1     -39.942 -54.164  13.691  1.00  0.00     0.033 C 
ENDBRANCH  24  25
ENDBRANCH  23  24
ENDBRANCH  22  23
ENDBRANCH   1  22
TORSDOF 7
ENDMDL
MODEL 3
REMARK VINA RESULT:      -5.7      4.976      6.458
REMARK  7 active torsions:
REMARK  status: ('A' for Active; 'I' for Inactive)
REMARK    1  A    between atoms: C_2  and  O_3 
REMARK    2  A    between atoms: O_3  and  C_4 
REMARK    3  A    between atoms: C_4  and  C_5 
REMARK    4  A    between atoms: C_5  and  N_6 
REMARK    5  A    between atoms: C_7  and  C_16 
REMARK    6  A    between atoms: C_16  and  N_18 
REMARK       I    between atoms: N_18  and  C_19 
REMARK    7  A    between atoms: C_19  and  C_21 
ROOT
HETATM    1  N   UNL     1     -43.205 -50.845  14.739  1.00  0.00    -0.331 N 
HETATM    2  C   UNL     1     -43.255 -50.613  13.374  1.00  0.00     0.107 A 
HETATM    3  N   UNL     1     -44.482 -50.813  12.919  1.00  0.00    -0.342 N 
ATOM      4  HN  UNL     1     -44.801 -50.711  11.956  1.00  0.00     0.167 HD
HETATM    5  C   UNL     1     -45.237 -51.185  13.999  1.00  0.00     0.060 A 
HETATM    6  C   UNL     1     -46.593 -51.543  14.060  1.00  0.00     0.032 A 
HETATM    7  C   UNL     1     -47.152 -51.874  15.301  1.00  0.00     0.002 A 
HETATM    8  C   UNL     1     -46.381 -51.832  16.461  1.00  0.00     0.002 A 
HETATM    9  C   UNL     1     -45.031 -51.469  16.418  1.00  0.00     0.032 A 
HETATM   10  C   UNL     1     -44.480 -51.172  15.162  1.00  0.00     0.062 A 
ENDROOT
BRANCH   2  11
HETATM   11  C   UNL     1     -42.097 -50.176  12.511  1.00  0.00     0.148 C 
HETATM   12  C   UNL     1     -41.420 -51.383  11.862  1.00  0.00     0.040 C 
BRANCH  11  13
HETATM   13  N   UNL     1     -42.623 -49.280  11.496  1.00  0.00    -0.344 N 
HETATM   14  C   UNL     1     -42.142 -48.002  11.313  1.00  0.00     0.276 C 
HETATM   15  O   UNL     1     -41.317 -47.499  12.074  1.00  0.00    -0.265 OA
HETATM   16  H   UNL     1     -43.221 -49.675  10.779  1.00  0.00     0.163 HD
BRANCH  14  17
HETATM   17  C   UNL     1     -42.690 -47.304  10.166  1.00  0.00     0.142 A 
HETATM   18  C   UNL     1     -43.012 -45.969   9.986  1.00  0.00     0.045 A 
HETATM   19  C   UNL     1     -43.529 -45.846   8.674  1.00  0.00     0.027 A 
HETATM   20  C   UNL     1     -43.485 -47.107   8.127  1.00  0.00     0.143 A 
HETATM   21  O   UNL     1     -42.978 -47.998   9.019  1.00  0.00    -0.317 OA
ENDBRANCH  14  17
ENDBRANCH  11  13
ENDBRANCH   2  11
BRANCH   1  22
HETATM   22  C   UNL     1     -42.056 -50.743  15.625  1.00  0.00     0.156 C 
BRANCH  22  23
HETATM   23  C   UNL     1     -41.078 -51.913  15.505  1.00  0.00     0.187 C 
BRANCH  23  24
HETATM   24  O   UNL     1     -41.742 -53.147  15.776  1.00  0.00    -0.390 OA
BRANCH  24  25
HETATM   25  C   UNL     1     -41.542 -54.087  14.720  1.00  0.00     0.163 C 
HETATM   26  C   UNL     1     -42.863 -54.306  14.012  1.00  0.00     0.033 C 
ENDBRANCH  24  25
ENDBRANCH  23  24
ENDBRANCH  22  23
ENDBRANCH   1  22
TORSDOF 7
ENDMDL
MODEL 4
REMARK VINA RESULT:      -5.7      3.092      6.171
REMARK  7 active torsions:
REMARK  status: ('A' for Active; 'I' for Inactive)
REMARK    1  A    between atoms: C_2  and  O_3 
REMARK    2  A    between atoms: O_3  and  C_4 
REMARK    3  A    between atoms: C_4  and  C_5 
REMARK    4  A    between atoms: C_5  and  N_6 
REMARK    5  A    between atoms: C_7  and  C_16 
REMARK    6  A    between atoms: C_16  and  N_18 
REMARK       I    between atoms: N_18  and  C_19 
REMARK    7  A    between atoms: C_19  and  C_21 
ROOT
HETATM    1  N   UNL     1     -41.864 -46.655  10.454  1.00  0.00    -0.331 N 
HETATM    2  C   UNL     1     -41.807 -47.914  11.030  1.00  0.00     0.107 A 
HETATM    3  N   UNL     1     -42.968 -48.535  10.891  1.00  0.00    -0.342 N 
ATOM      4  HN  UNL     1     -43.203 -49.473  11.217  1.00  0.00     0.167 HD
HETATM    5  C   UNL     1     -43.790 -47.669  10.222  1.00  0.00     0.060 A 
HETATM    6  C   UNL     1     -45.135 -47.821   9.849  1.00  0.00     0.032 A 
HETATM    7  C   UNL     1     -45.765 -46.786   9.146  1.00  0.00     0.002 A 
HETATM    8  C   UNL     1     -45.066 -45.630   8.805  1.00  0.00     0.002 A 
HETATM    9  C   UNL     1     -43.724 -45.467   9.162  1.00  0.00     0.032 A 
HETATM   10  C   UNL     1     -43.117 -46.499   9.893  1.00  0.00     0.062 A 
ENDROOT
BRANCH   2  11
HETATM   11  C   UNL     1     -40.603 -48.520  11.709  1.00  0.00     0.148 C 
HETATM   12  C   UNL     1     -40.276 -47.773  13.002  1.00  0.00     0.040 C 
BRANCH  11  13
HETATM   13  N   UNL     1     -40.915 -49.911  11.988  1.00  0.00    -0.344 N 
HETATM   14  C   UNL     1     -39.940 -50.861  12.203  1.00  0.00     0.276 C 
HETATM   15  O   UNL     1     -38.744 -50.615  12.056  1.00  0.00    -0.265 OA
HETATM   16  H   UNL     1     -41.873 -50.144  12.225  1.00  0.00     0.163 HD
BRANCH  14  17
HETATM   17  C   UNL     1     -40.437 -52.163  12.604  1.00  0.00     0.142 A 
HETATM   18  C   UNL     1     -41.713 -52.701  12.557  1.00  0.00     0.045 A 
HETATM   19  C   UNL     1     -41.627 -54.007  13.095  1.00  0.00     0.027 A 
HETATM   20  C   UNL     1     -40.306 -54.194  13.431  1.00  0.00     0.143 A 
HETATM   21  O   UNL     1     -39.576 -53.088  13.138  1.00  0.00    -0.317 OA
ENDBRANCH  14  17
ENDBRANCH  11  13
ENDBRANCH   2  11
BRANCH   1  22
HETATM   22  C   UNL     1     -40.814 -45.650  10.389  1.00  0.00     0.156 C 
BRANCH  22  23
HETATM   23  C   UNL     1     -40.954 -44.542  11.434  1.00  0.00     0.187 C 
BRANCH  23  24
HETATM   24  O   UNL     1     -40.931 -43.260  10.807  1.00  0.00    -0.390 OA
BRANCH  24  25
HETATM   25  C   UNL     1     -40.593 -42.232  11.739  1.00  0.00     0.163 C 
HETATM   26  C   UNL     1     -39.765 -42.843  12.851  1.00  0.00     0.033 C 
ENDBRANCH  24  25
ENDBRANCH  23  24
ENDBRANCH  22  23
ENDBRANCH   1  22
TORSDOF 7
ENDMDL
MODEL 5
REMARK VINA RESULT:      -5.6      3.371      7.744
REMARK  7 active torsions:
REMARK  status: ('A' for Active; 'I' for Inactive)
REMARK    1  A    between atoms: C_2  and  O_3 
REMARK    2  A    between atoms: O_3  and  C_4 
REMARK    3  A    between atoms: C_4  and  C_5 
REMARK    4  A    between atoms: C_5  and  N_6 
REMARK    5  A    between atoms: C_7  and  C_16 
REMARK    6  A    between atoms: C_16  and  N_18 
REMARK       I    between atoms: N_18  and  C_19 
REMARK    7  A    between atoms: C_19  and  C_21 
ROOT
HETATM    1  N   UNL     1     -40.731 -49.767  12.187  1.00  0.00    -0.331 N 
HETATM    2  C   UNL     1     -39.442 -49.368  11.873  1.00  0.00     0.107 A 
HETATM    3  N   UNL     1     -39.460 -48.192  11.265  1.00  0.00    -0.342 N 
ATOM      4  HN  UNL     1     -38.654 -47.665  10.929  1.00  0.00     0.167 HD
HETATM    5  C   UNL     1     -40.776 -47.824  11.178  1.00  0.00     0.060 A 
HETATM    6  C   UNL     1     -41.348 -46.682  10.596  1.00  0.00     0.032 A 
HETATM    7  C   UNL     1     -42.738 -46.517  10.648  1.00  0.00     0.002 A 
HETATM    8  C   UNL     1     -43.542 -47.462  11.282  1.00  0.00     0.002 A 
HETATM    9  C   UNL     1     -42.987 -48.601  11.875  1.00  0.00     0.032 A 
HETATM   10  C   UNL     1     -41.596 -48.766  11.785  1.00  0.00     0.062 A 
ENDROOT
BRANCH   2  11
HETATM   11  C   UNL     1     -38.181 -50.137  12.183  1.00  0.00     0.148 C 
HETATM   12  C   UNL     1     -37.202 -50.067  11.012  1.00  0.00     0.040 C 
BRANCH  11  13
HETATM   13  N   UNL     1     -37.594 -49.548  13.374  1.00  0.00    -0.344 N 
HETATM   14  C   UNL     1     -37.572 -50.197  14.590  1.00  0.00     0.276 C 
HETATM   15  O   UNL     1     -38.152 -51.267  14.769  1.00  0.00    -0.265 OA
HETATM   16  H   UNL     1     -37.013 -48.725  13.260  1.00  0.00     0.163 HD
BRANCH  14  17
HETATM   17  C   UNL     1     -36.824 -49.518  15.629  1.00  0.00     0.142 A 
HETATM   18  C   UNL     1     -36.533 -49.894  16.930  1.00  0.00     0.045 A 
HETATM   19  C   UNL     1     -35.784 -48.838  17.504  1.00  0.00     0.027 A 
HETATM   20  C   UNL     1     -35.654 -47.885  16.520  1.00  0.00     0.143 A 
HETATM   21  O   UNL     1     -36.277 -48.284  15.381  1.00  0.00    -0.317 OA
ENDBRANCH  14  17
ENDBRANCH  11  13
ENDBRANCH   2  11
BRANCH   1  22
HETATM   22  C   UNL     1     -41.156 -50.989  12.851  1.00  0.00     0.156 C 
BRANCH  22  23
HETATM   23  C   UNL     1     -41.358 -52.170  11.900  1.00  0.00     0.187 C 
BRANCH  23  24
HETATM   24  O   UNL     1     -40.459 -53.230  12.223  1.00  0.00    -0.390 OA
BRANCH  24  25
HETATM   25  C   UNL     1     -40.518 -53.556  13.613  1.00  0.00     0.163 C 
HETATM   26  C   UNL     1     -39.383 -54.505  13.934  1.00  0.00     0.033 C 
ENDBRANCH  24  25
ENDBRANCH  23  24
ENDBRANCH  22  23
ENDBRANCH   1  22
TORSDOF 7
ENDMDL
MODEL 6
REMARK VINA RESULT:      -5.5      3.559      5.736
REMARK  7 active torsions:
REMARK  status: ('A' for Active; 'I' for Inactive)
REMARK    1  A    between atoms: C_2  and  O_3 
REMARK    2  A    between atoms: O_3  and  C_4 
REMARK    3  A    between atoms: C_4  and  C_5 
REMARK    4  A    between atoms: C_5  and  N_6 
REMARK    5  A    between atoms: C_7  and  C_16 
REMARK    6  A    between atoms: C_16  and  N_18 
REMARK       I    between atoms: N_18  and  C_19 
REMARK    7  A    between atoms: C_19  and  C_21 
ROOT
HETATM    1  N   UNL     1     -40.969 -47.895  11.451  1.00  0.00    -0.331 N 
HETATM    2  C   UNL     1     -40.632 -48.813  12.432  1.00  0.00     0.107 A 
HETATM    3  N   UNL     1     -39.903 -48.233  13.373  1.00  0.00    -0.342 N 
ATOM      4  HN  UNL     1     -39.524 -48.673  14.211  1.00  0.00     0.167 HD
HETATM    5  C   UNL     1     -39.761 -46.924  12.997  1.00  0.00     0.060 A 
HETATM    6  C   UNL     1     -39.053 -45.886  13.624  1.00  0.00     0.032 A 
HETATM    7  C   UNL     1     -39.070 -44.610  13.048  1.00  0.00     0.002 A 
HETATM    8  C   UNL     1     -39.790 -44.366  11.880  1.00  0.00     0.002 A 
HETATM    9  C   UNL     1     -40.506 -45.388  11.248  1.00  0.00     0.032 A 
HETATM   10  C   UNL     1     -40.453 -46.667  11.821  1.00  0.00     0.062 A 
ENDROOT
BRANCH   2  11
HETATM   11  C   UNL     1     -41.038 -50.266  12.458  1.00  0.00     0.148 C 
HETATM   12  C   UNL     1     -40.057 -51.089  13.293  1.00  0.00     0.040 C 
BRANCH  11  13
HETATM   13  N   UNL     1     -42.373 -50.336  13.025  1.00  0.00    -0.344 N 
HETATM   14  C   UNL     1     -43.160 -51.464  12.937  1.00  0.00     0.276 C 
HETATM   15  O   UNL     1     -42.825 -52.443  12.273  1.00  0.00    -0.265 OA
HETATM   16  H   UNL     1     -42.654 -49.605  13.669  1.00  0.00     0.163 HD
BRANCH  14  17
HETATM   17  C   UNL     1     -44.404 -51.399  13.679  1.00  0.00     0.142 A 
HETATM   18  C   UNL     1     -45.718 -51.504  13.257  1.00  0.00     0.045 A 
HETATM   19  C   UNL     1     -46.532 -51.346  14.405  1.00  0.00     0.027 A 
HETATM   20  C   UNL     1     -45.669 -51.162  15.460  1.00  0.00     0.143 A 
HETATM   21  O   UNL     1     -44.379 -51.193  15.036  1.00  0.00    -0.317 OA
ENDBRANCH  14  17
ENDBRANCH  11  13
ENDBRANCH   2  11
BRANCH   1  22
HETATM   22  C   UNL     1     -41.753 -48.117  10.246  1.00  0.00     0.156 C 
BRANCH  22  23
HETATM   23  C   UNL     1     -43.228 -47.736  10.390  1.00  0.00     0.187 C 
BRANCH  23  24
HETATM   24  O   UNL     1     -43.862 -47.707   9.112  1.00  0.00    -0.390 OA
BRANCH  24  25
HETATM   25  C   UNL     1     -44.990 -46.831   9.112  1.00  0.00     0.163 C 
HETATM   26  C   UNL     1     -46.242 -47.658   8.901  1.00  0.00     0.033 C 
ENDBRANCH  24  25
ENDBRANCH  23  24
ENDBRANCH  22  23
ENDBRANCH   1  22
TORSDOF 7
ENDMDL
MODEL 7
REMARK VINA RESULT:      -5.5      5.281      8.361
REMARK  7 active torsions:
REMARK  status: ('A' for Active; 'I' for Inactive)
REMARK    1  A    between atoms: C_2  and  O_3 
REMARK    2  A    between atoms: O_3  and  C_4 
REMARK    3  A    between atoms: C_4  and  C_5 
REMARK    4  A    between atoms: C_5  and  N_6 
REMARK    5  A    between atoms: C_7  and  C_16 
REMARK    6  A    between atoms: C_16  and  N_18 
REMARK       I    between atoms: N_18  and  C_19 
REMARK    7  A    between atoms: C_19  and  C_21 
ROOT
HETATM    1  N   UNL     1     -40.974 -52.985  13.534  1.00  0.00    -0.331 N 
HETATM    2  C   UNL     1     -41.019 -52.007  12.554  1.00  0.00     0.107 A 
HETATM    3  N   UNL     1     -42.231 -51.942  12.025  1.00  0.00    -0.342 N 
ATOM      4  HN  UNL     1     -42.544 -51.311  11.288  1.00  0.00     0.167 HD
HETATM    5  C   UNL     1     -42.981 -52.893  12.665  1.00  0.00     0.060 A 
HETATM    6  C   UNL     1     -44.321 -53.260  12.462  1.00  0.00     0.032 A 
HETATM    7  C   UNL     1     -44.878 -54.264  13.264  1.00  0.00     0.002 A 
HETATM    8  C   UNL     1     -44.122 -54.878  14.260  1.00  0.00     0.002 A 
HETATM    9  C   UNL     1     -42.789 -54.519  14.481  1.00  0.00     0.032 A 
HETATM   10  C   UNL     1     -42.237 -53.534  13.647  1.00  0.00     0.062 A 
ENDROOT
BRANCH   2  11
HETATM   11  C   UNL     1     -39.872 -51.118  12.141  1.00  0.00     0.148 C 
HETATM   12  C   UNL     1     -40.359 -49.991  11.232  1.00  0.00     0.040 C 
BRANCH  11  13
HETATM   13  N   UNL     1     -39.282 -50.576  13.353  1.00  0.00    -0.344 N 
HETATM   14  C   UNL     1     -37.923 -50.564  13.577  1.00  0.00     0.276 C 
HETATM   15  O   UNL     1     -37.131 -51.117  12.815  1.00  0.00    -0.265 OA
HETATM   16  H   UNL     1     -39.873 -50.016  13.959  1.00  0.00     0.163 HD
BRANCH  14  17
HETATM   17  C   UNL     1     -37.509 -49.860  14.775  1.00  0.00     0.142 A 
HETATM   18  C   UNL     1     -37.408 -50.287  16.088  1.00  0.00     0.045 A 
HETATM   19  C   UNL     1     -36.969 -49.176  16.848  1.00  0.00     0.027 A 
HETATM   20  C   UNL     1     -36.819 -48.140  15.956  1.00  0.00     0.143 A 
HETATM   21  O   UNL     1     -37.140 -48.541  14.699  1.00  0.00    -0.317 OA
ENDBRANCH  14  17
ENDBRANCH  11  13
ENDBRANCH   2  11
BRANCH   1  22
HETATM   22  C   UNL     1     -39.839 -53.381  14.355  1.00  0.00     0.156 C 
BRANCH  22  23
HETATM   23  C   UNL     1     -39.173 -54.681  13.899  1.00  0.00     0.187 C 
BRANCH  23  24
HETATM   24  O   UNL     1     -38.827 -55.485  15.027  1.00  0.00    -0.390 OA
BRANCH  24  25
HETATM   25  C   UNL     1     -39.552 -55.085  16.191  1.00  0.00     0.163 C 
HETATM   26  C   UNL     1     -40.275 -56.294  16.746  1.00  0.00     0.033 C 
ENDBRANCH  24  25
ENDBRANCH  23  24
ENDBRANCH  22  23
ENDBRANCH   1  22
TORSDOF 7
ENDMDL
MODEL 8
REMARK VINA RESULT:      -5.4      5.147      8.257
REMARK  7 active torsions:
REMARK  status: ('A' for Active; 'I' for Inactive)
REMARK    1  A    between atoms: C_2  and  O_3 
REMARK    2  A    between atoms: O_3  and  C_4 
REMARK    3  A    between atoms: C_4  and  C_5 
REMARK    4  A    between atoms: C_5  and  N_6 
REMARK    5  A    between atoms: C_7  and  C_16 
REMARK    6  A    between atoms: C_16  and  N_18 
REMARK       I    between atoms: N_18  and  C_19 
REMARK    7  A    between atoms: C_19  and  C_21 
ROOT
HETATM    1  N   UNL     1     -42.492 -52.586  12.730  1.00  0.00    -0.331 N 
HETATM    2  C   UNL     1     -42.354 -51.220  12.547  1.00  0.00     0.107 A 
HETATM    3  N   UNL     1     -43.500 -50.605  12.793  1.00  0.00    -0.342 N 
ATOM      4  HN  UNL     1     -43.681 -49.603  12.739  1.00  0.00     0.167 HD
HETATM    5  C   UNL     1     -44.396 -51.583  13.136  1.00  0.00     0.060 A 
HETATM    6  C   UNL     1     -45.757 -51.475  13.460  1.00  0.00     0.032 A 
HETATM    7  C   UNL     1     -46.469 -52.633  13.797  1.00  0.00     0.002 A 
HETATM    8  C   UNL     1     -45.833 -53.873  13.828  1.00  0.00     0.002 A 
HETATM    9  C   UNL     1     -44.476 -53.997  13.516  1.00  0.00     0.032 A 
HETATM   10  C   UNL     1     -43.786 -52.831  13.150  1.00  0.00     0.062 A 
ENDROOT
BRANCH   2  11
HETATM   11  C   UNL     1     -41.087 -50.508  12.141  1.00  0.00     0.148 C 
HETATM   12  C   UNL     1     -41.397 -49.109  11.611  1.00  0.00     0.040 C 
BRANCH  11  13
HETATM   13  N   UNL     1     -40.235 -50.431  13.315  1.00  0.00    -0.344 N 
HETATM   14  C   UNL     1     -38.928 -50.868  13.314  1.00  0.00     0.276 C 
HETATM   15  O   UNL     1     -38.437 -51.456  12.352  1.00  0.00    -0.265 OA
HETATM   16  H   UNL     1     -40.550 -49.863  14.094  1.00  0.00     0.163 HD
BRANCH  14  17
HETATM   17  C   UNL     1     -38.191 -50.586  14.531  1.00  0.00     0.142 A 
HETATM   18  C   UNL     1     -38.225 -51.195  15.774  1.00  0.00     0.045 A 
HETATM   19  C   UNL     1     -37.308 -50.498  16.597  1.00  0.00     0.027 A 
HETATM   20  C   UNL     1     -36.763 -49.512  15.809  1.00  0.00     0.143 A 
HETATM   21  O   UNL     1     -37.286 -49.554  14.557  1.00  0.00    -0.317 OA
ENDBRANCH  14  17
ENDBRANCH  11  13
ENDBRANCH   2  11
BRANCH   1  22
HETATM   22  C   UNL     1     -41.483 -53.621  12.561  1.00  0.00     0.156 C 
BRANCH  22  23
HETATM   23  C   UNL     1     -40.811 -54.046  13.868  1.00  0.00     0.187 C 
BRANCH  23  24
HETATM   24  O   UNL     1     -39.431 -54.336  13.647  1.00  0.00    -0.390 OA
BRANCH  24  25
HETATM   25  C   UNL     1     -38.830 -54.917  14.805  1.00  0.00     0.163 C 
HETATM   26  C   UNL     1     -39.859 -54.948  15.916  1.00  0.00     0.033 C 
ENDBRANCH  24  25
ENDBRANCH  23  24
ENDBRANCH  22  23
ENDBRANCH   1  22
TORSDOF 7
ENDMDL
MODEL 9
REMARK VINA RESULT:      -5.4      6.413      7.739
REMARK  7 active torsions:
REMARK  status: ('A' for Active; 'I' for Inactive)
REMARK    1  A    between atoms: C_2  and  O_3 
REMARK    2  A    between atoms: O_3  and  C_4 
REMARK    3  A    between atoms: C_4  and  C_5 
REMARK    4  A    between atoms: C_5  and  N_6 
REMARK    5  A    between atoms: C_7  and  C_16 
REMARK    6  A    between atoms: C_16  and  N_18 
REMARK       I    between atoms: N_18  and  C_19 
REMARK    7  A    between atoms: C_19  and  C_21 
ROOT
HETATM    1  N   UNL     1     -41.310 -53.871  14.013  1.00  0.00    -0.331 N 
HETATM    2  C   UNL     1     -42.641 -53.934  14.391  1.00  0.00     0.107 A 
HETATM    3  N   UNL     1     -42.776 -54.675  15.479  1.00  0.00    -0.342 N 
ATOM      4  HN  UNL     1     -43.643 -54.885  15.973  1.00  0.00     0.167 HD
HETATM    5  C   UNL     1     -41.518 -55.105  15.810  1.00  0.00     0.060 A 
HETATM    6  C   UNL     1     -41.107 -55.944  16.857  1.00  0.00     0.032 A 
HETATM    7  C   UNL     1     -39.743 -56.229  17.003  1.00  0.00     0.002 A 
HETATM    8  C   UNL     1     -38.805 -55.677  16.133  1.00  0.00     0.002 A 
HETATM    9  C   UNL     1     -39.198 -54.833  15.089  1.00  0.00     0.032 A 
HETATM   10  C   UNL     1     -40.570 -54.584  14.939  1.00  0.00     0.062 A 
ENDROOT
BRANCH   2  11
HETATM   11  C   UNL     1     -43.790 -53.249  13.691  1.00  0.00     0.148 C 
HETATM   12  C   UNL     1     -44.483 -54.208  12.723  1.00  0.00     0.040 C 
BRANCH  11  13
HETATM   13  N   UNL     1     -44.717 -52.798  14.713  1.00  0.00    -0.344 N 
HETATM   14  C   UNL     1     -45.003 -51.466  14.921  1.00  0.00     0.276 C 
HETATM   15  O   UNL     1     -44.402 -50.570  14.330  1.00  0.00    -0.265 OA
HETATM   16  H   UNL     1     -45.315 -53.491  15.151  1.00  0.00     0.163 HD
BRANCH  14  17
HETATM   17  C   UNL     1     -46.053 -51.212  15.888  1.00  0.00     0.142 A 
HETATM   18  C   UNL     1     -47.387 -51.583  15.896  1.00  0.00     0.045 A 
HETATM   19  C   UNL     1     -47.954 -51.048  17.079  1.00  0.00     0.027 A 
HETATM   20  C   UNL     1     -46.934 -50.391  17.726  1.00  0.00     0.143 A 
HETATM   21  O   UNL     1     -45.778 -50.484  17.018  1.00  0.00    -0.317 OA
ENDBRANCH  14  17
ENDBRANCH  11  13
ENDBRANCH   2  11
BRANCH   1  22
HETATM   22  C   UNL     1     -40.731 -53.169  12.878  1.00  0.00     0.156 C 
BRANCH  22  23
HETATM   23  C   UNL     1     -40.124 -51.811  13.237  1.00  0.00     0.187 C 
BRANCH  23  24
HETATM   24  O   UNL     1     -38.909 -51.603  12.517  1.00  0.00    -0.390 OA
BRANCH  24  25
HETATM   25  C   UNL     1     -38.797 -50.252  12.068  1.00  0.00     0.163 C 
HETATM   26  C   UNL     1     -37.455 -50.080  11.388  1.00  0.00     0.033 C 
ENDBRANCH  24  25
ENDBRANCH  23  24
ENDBRANCH  22  23
ENDBRANCH   1  22
TORSDOF 7
ENDMDL
