MODEL 1
REMARK VINA RESULT:      -5.6      0.000      0.000
REMARK  3 active torsions:
REMARK  status: ('A' for Active; 'I' for Inactive)
REMARK       I    between atoms: N_8  and  C_9 
REMARK       I    between atoms: C_9  and  N_11 
REMARK    1  A    between atoms: N_11  and  C_12 
REMARK    2  A    between atoms: C_12  and  C_13 
REMARK    3  A    between atoms: C_13  and  N_14 
ROOT
HETATM    1  C   UNL     1     -42.704 -46.915  11.475  1.00  0.00     0.078 C 
HETATM    2  C   UNL     1     -42.426 -48.358  11.663  1.00  0.00     0.066 A 
HETATM    3  N   UNL     1     -43.316 -49.237  12.073  1.00  0.00    -0.296 N 
ATOM      4  HN  UNL     1     -44.297 -49.018  12.248  1.00  0.00     0.187 HD
HETATM    5  N   UNL     1     -42.765 -50.486  12.236  1.00  0.00    -0.279 N 
ATOM      6  HN  UNL     1     -43.287 -51.302  12.557  1.00  0.00     0.189 HD
HETATM    7  C   UNL     1     -41.490 -50.505  11.929  1.00  0.00     0.169 A 
HETATM    8  N   UNL     1     -40.614 -51.547  12.026  1.00  0.00    -0.288 N 
HETATM    9  C   UNL     1     -40.896 -52.743  12.615  1.00  0.00     0.322 C 
HETATM   10  O   UNL     1     -40.031 -53.619  12.662  1.00  0.00    -0.247 OA
HETATM   11  N   UNL     1     -42.136 -52.892  13.164  1.00  0.00    -0.341 N 
HETATM   12  S   UNL     1     -40.858 -49.020  11.382  1.00  0.00    -0.038 SA
HETATM   13  H   UNL     1     -39.671 -51.427  11.692  1.00  0.00     0.172 HD
HETATM   14  H   UNL     1     -42.817 -52.152  13.019  1.00  0.00     0.164 HD
ENDROOT
BRANCH  11  15
HETATM   15  C   UNL     1     -42.581 -54.093  13.831  1.00  0.00     0.154 C 
BRANCH  15  16
HETATM   16  C   UNL     1     -44.082 -54.075  14.178  1.00  0.00     0.292 C 
BRANCH  16  17
HETATM   17  N   UNL     1     -44.716 -52.787  13.859  1.00  0.00     0.090 N 
HETATM   18  C   UNL     1     -45.449 -52.220  14.998  1.00  0.00     0.272 C 
HETATM   19  C   UNL     1     -46.609 -51.432  14.390  1.00  0.00     0.032 C 
HETATM   20  C   UNL     1     -46.458 -51.597  12.889  1.00  0.00     0.032 C 
HETATM   21  C   UNL     1     -45.676 -52.885  12.756  1.00  0.00     0.272 C 
ENDBRANCH  16  17
ENDBRANCH  15  16
ENDBRANCH  11  15
TORSDOF 3
ENDMDL
MODEL 2
REMARK VINA RESULT:      -5.6      3.631      5.363
REMARK  3 active torsions:
REMARK  status: ('A' for Active; 'I' for Inactive)
REMARK       I    between atoms: N_8  and  C_9 
REMARK       I    between atoms: C_9  and  N_11 
REMARK    1  A    between atoms: N_11  and  C_12 
REMARK    2  A    between atoms: C_12  and  C_13 
REMARK    3  A    between atoms: C_13  and  N_14 
ROOT
HETATM    1  C   UNL     1     -46.766 -47.093   9.062  1.00  0.00     0.078 C 
HETATM    2  C   UNL     1     -45.319 -47.129   9.376  1.00  0.00     0.066 A 
HETATM    3  N   UNL     1     -44.724 -48.112  10.017  1.00  0.00    -0.296 N 
ATOM      4  HN  UNL     1     -45.193 -48.969  10.313  1.00  0.00     0.187 HD
HETATM    5  N   UNL     1     -43.394 -47.847  10.242  1.00  0.00    -0.279 N 
ATOM      6  HN  UNL     1     -42.761 -48.479  10.734  1.00  0.00     0.189 HD
HETATM    7  C   UNL     1     -43.034 -46.686   9.749  1.00  0.00     0.169 A 
HETATM    8  N   UNL     1     -41.818 -46.073   9.835  1.00  0.00    -0.288 N 
HETATM    9  C   UNL     1     -40.779 -46.516  10.598  1.00  0.00     0.322 C 
HETATM   10  O   UNL     1     -39.722 -45.885  10.616  1.00  0.00    -0.247 OA
HETATM   11  N   UNL     1     -40.988 -47.641  11.343  1.00  0.00    -0.341 N 
HETATM   12  S   UNL     1     -44.268 -45.832   8.940  1.00  0.00    -0.038 SA
HETATM   13  H   UNL     1     -41.673 -45.202   9.349  1.00  0.00     0.172 HD
HETATM   14  H   UNL     1     -41.860 -48.146  11.216  1.00  0.00     0.164 HD
ENDROOT
BRANCH  11  15
HETATM   15  C   UNL     1     -39.990 -48.228  12.208  1.00  0.00     0.154 C 
BRANCH  15  16
HETATM   16  C   UNL     1     -40.552 -49.340  13.115  1.00  0.00     0.292 C 
BRANCH  16  17
HETATM   17  N   UNL     1     -40.882 -50.561  12.365  1.00  0.00     0.090 N 
HETATM   18  C   UNL     1     -42.304 -50.917  12.463  1.00  0.00     0.272 C 
HETATM   19  C   UNL     1     -42.354 -52.442  12.376  1.00  0.00     0.032 C 
HETATM   20  C   UNL     1     -40.909 -52.878  12.221  1.00  0.00     0.032 C 
HETATM   21  C   UNL     1     -40.130 -51.731  12.826  1.00  0.00     0.272 C 
ENDBRANCH  16  17
ENDBRANCH  15  16
ENDBRANCH  11  15
TORSDOF 3
ENDMDL
MODEL 3
REMARK VINA RESULT:      -5.5      1.771      2.378
REMARK  3 active torsions:
REMARK  status: ('A' for Active; 'I' for Inactive)
REMARK       I    between atoms: N_8  and  C_9 
REMARK       I    between atoms: C_9  and  N_11 
REMARK    1  A    between atoms: N_11  and  C_12 
REMARK    2  A    between atoms: C_12  and  C_13 
REMARK    3  A    between atoms: C_13  and  N_14 
ROOT
HETATM    1  C   UNL     1     -42.580 -46.106  10.401  1.00  0.00     0.078 C 
HETATM    2  C   UNL     1     -41.886 -47.378  10.711  1.00  0.00     0.066 A 
HETATM    3  N   UNL     1     -42.413 -48.572  10.538  1.00  0.00    -0.296 N 
ATOM      4  HN  UNL     1     -43.330 -48.736  10.123  1.00  0.00     0.187 HD
HETATM    5  N   UNL     1     -41.579 -49.570  10.984  1.00  0.00    -0.279 N 
ATOM      6  HN  UNL     1     -41.809 -50.563  10.949  1.00  0.00     0.189 HD
HETATM    7  C   UNL     1     -40.453 -49.093  11.459  1.00  0.00     0.169 A 
HETATM    8  N   UNL     1     -39.423 -49.779  12.036  1.00  0.00    -0.288 N 
HETATM    9  C   UNL     1     -39.459 -51.104  12.357  1.00  0.00     0.322 C 
HETATM   10  O   UNL     1     -38.479 -51.629  12.886  1.00  0.00    -0.247 OA
HETATM   11  N   UNL     1     -40.618 -51.777  12.100  1.00  0.00    -0.341 N 
HETATM   12  S   UNL     1     -40.293 -47.399  11.373  1.00  0.00    -0.038 SA
HETATM   13  H   UNL     1     -38.589 -49.280  12.299  1.00  0.00     0.172 HD
HETATM   14  H   UNL     1     -41.353 -51.292  11.594  1.00  0.00     0.164 HD
ENDROOT
BRANCH  11  15
HETATM   15  C   UNL     1     -40.814 -53.178  12.392  1.00  0.00     0.154 C 
BRANCH  15  16
HETATM   16  C   UNL     1     -41.705 -53.423  13.625  1.00  0.00     0.292 C 
BRANCH  16  17
HETATM   17  N   UNL     1     -42.979 -54.070  13.275  1.00  0.00     0.090 N 
HETATM   18  C   UNL     1     -43.930 -53.143  12.647  1.00  0.00     0.272 C 
HETATM   19  C   UNL     1     -45.317 -53.636  13.055  1.00  0.00     0.032 C 
HETATM   20  C   UNL     1     -45.066 -54.861  13.916  1.00  0.00     0.032 C 
HETATM   21  C   UNL     1     -43.664 -54.639  14.439  1.00  0.00     0.272 C 
ENDBRANCH  16  17
ENDBRANCH  15  16
ENDBRANCH  11  15
TORSDOF 3
ENDMDL
MODEL 4
REMARK VINA RESULT:      -5.5      2.223      3.234
REMARK  3 active torsions:
REMARK  status: ('A' for Active; 'I' for Inactive)
REMARK       I    between atoms: N_8  and  C_9 
REMARK       I    between atoms: C_9  and  N_11 
REMARK    1  A    between atoms: N_11  and  C_12 
REMARK    2  A    between atoms: C_12  and  C_13 
REMARK    3  A    between atoms: C_13  and  N_14 
ROOT
HETATM    1  C   UNL     1     -43.961 -45.344   9.261  1.00  0.00     0.078 C 
HETATM    2  C   UNL     1     -43.091 -46.465   9.687  1.00  0.00     0.066 A 
HETATM    3  N   UNL     1     -43.430 -47.735   9.617  1.00  0.00    -0.296 N 
ATOM      4  HN  UNL     1     -44.304 -48.071   9.212  1.00  0.00     0.187 HD
HETATM    5  N   UNL     1     -42.466 -48.553  10.155  1.00  0.00    -0.279 N 
ATOM      6  HN  UNL     1     -42.544 -49.569  10.207  1.00  0.00     0.189 HD
HETATM    7  C   UNL     1     -41.433 -47.873  10.594  1.00  0.00     0.169 A 
HETATM    8  N   UNL     1     -40.325 -48.343  11.237  1.00  0.00    -0.288 N 
HETATM    9  C   UNL     1     -40.169 -49.625  11.674  1.00  0.00     0.322 C 
HETATM   10  O   UNL     1     -39.132 -49.949  12.255  1.00  0.00    -0.247 OA
HETATM   11  N   UNL     1     -41.208 -50.485  11.470  1.00  0.00    -0.341 N 
HETATM   12  S   UNL     1     -41.527 -46.188  10.359  1.00  0.00    -0.038 SA
HETATM   13  H   UNL     1     -39.580 -47.703  11.460  1.00  0.00     0.172 HD
HETATM   14  H   UNL     1     -41.997 -50.162  10.918  1.00  0.00     0.164 HD
ENDROOT
BRANCH  11  15
HETATM   15  C   UNL     1     -41.198 -51.869  11.884  1.00  0.00     0.154 C 
BRANCH  15  16
HETATM   16  C   UNL     1     -41.906 -52.106  13.232  1.00  0.00     0.292 C 
BRANCH  16  17
HETATM   17  N   UNL     1     -42.604 -53.400  13.279  1.00  0.00     0.090 N 
HETATM   18  C   UNL     1     -43.893 -53.373  12.576  1.00  0.00     0.272 C 
HETATM   19  C   UNL     1     -44.786 -54.367  13.317  1.00  0.00     0.032 C 
HETATM   20  C   UNL     1     -43.921 -54.924  14.432  1.00  0.00     0.032 C 
HETATM   21  C   UNL     1     -42.887 -53.841  14.647  1.00  0.00     0.272 C 
ENDBRANCH  16  17
ENDBRANCH  15  16
ENDBRANCH  11  15
TORSDOF 3
ENDMDL
MODEL 5
REMARK VINA RESULT:      -5.5      2.213      2.545
REMARK  3 active torsions:
REMARK  status: ('A' for Active; 'I' for Inactive)
REMARK       I    between atoms: N_8  and  C_9 
REMARK       I    between atoms: C_9  and  N_11 
REMARK    1  A    between atoms: N_11  and  C_12 
REMARK    2  A    between atoms: C_12  and  C_13 
REMARK    3  A    between atoms: C_13  and  N_14 
ROOT
HETATM    1  C   UNL     1     -38.542 -49.021  11.438  1.00  0.00     0.078 C 
HETATM    2  C   UNL     1     -39.366 -50.208  11.765  1.00  0.00     0.066 A 
HETATM    3  N   UNL     1     -40.461 -50.550  11.119  1.00  0.00    -0.296 N 
ATOM      4  HN  UNL     1     -40.816 -50.060  10.297  1.00  0.00     0.187 HD
HETATM    5  N   UNL     1     -41.069 -51.646  11.684  1.00  0.00    -0.279 N 
ATOM      6  HN  UNL     1     -41.934 -52.060  11.338  1.00  0.00     0.189 HD
HETATM    7  C   UNL     1     -40.403 -52.096  12.721  1.00  0.00     0.169 A 
HETATM    8  N   UNL     1     -40.736 -53.122  13.557  1.00  0.00    -0.288 N 
HETATM    9  C   UNL     1     -41.930 -53.780  13.538  1.00  0.00     0.322 C 
HETATM   10  O   UNL     1     -42.139 -54.688  14.343  1.00  0.00    -0.247 OA
HETATM   11  N   UNL     1     -42.860 -53.359  12.632  1.00  0.00    -0.341 N 
HETATM   12  S   UNL     1     -38.966 -51.253  13.077  1.00  0.00    -0.038 SA
HETATM   13  H   UNL     1     -40.089 -53.395  14.280  1.00  0.00     0.172 HD
HETATM   14  H   UNL     1     -42.585 -52.655  11.953  1.00  0.00     0.164 HD
ENDROOT
BRANCH  11  15
HETATM   15  C   UNL     1     -44.172 -53.947  12.496  1.00  0.00     0.154 C 
BRANCH  15  16
HETATM   16  C   UNL     1     -45.309 -52.907  12.515  1.00  0.00     0.292 C 
BRANCH  16  17
HETATM   17  N   UNL     1     -45.511 -52.321  13.849  1.00  0.00     0.090 N 
HETATM   18  C   UNL     1     -45.695 -53.340  14.891  1.00  0.00     0.272 C 
HETATM   19  C   UNL     1     -46.618 -52.705  15.930  1.00  0.00     0.032 C 
HETATM   20  C   UNL     1     -46.910 -51.312  15.403  1.00  0.00     0.032 C 
HETATM   21  C   UNL     1     -46.685 -51.448  13.913  1.00  0.00     0.272 C 
ENDBRANCH  16  17
ENDBRANCH  15  16
ENDBRANCH  11  15
TORSDOF 3
ENDMDL
MODEL 6
REMARK VINA RESULT:      -5.4      6.157      8.099
REMARK  3 active torsions:
REMARK  status: ('A' for Active; 'I' for Inactive)
REMARK       I    between atoms: N_8  and  C_9 
REMARK       I    between atoms: C_9  and  N_11 
REMARK    1  A    between atoms: N_11  and  C_12 
REMARK    2  A    between atoms: C_12  and  C_13 
REMARK    3  A    between atoms: C_13  and  N_14 
ROOT
HETATM    1  C   UNL     1     -46.011 -49.197   6.674  1.00  0.00     0.078 C 
HETATM    2  C   UNL     1     -45.152 -48.417   7.594  1.00  0.00     0.066 A 
HETATM    3  N   UNL     1     -43.873 -48.181   7.393  1.00  0.00    -0.296 N 
ATOM      4  HN  UNL     1     -43.364 -48.467   6.556  1.00  0.00     0.187 HD
HETATM    5  N   UNL     1     -43.305 -47.502   8.445  1.00  0.00    -0.279 N 
ATOM      6  HN  UNL     1     -42.321 -47.235   8.486  1.00  0.00     0.189 HD
HETATM    7  C   UNL     1     -44.178 -47.240   9.389  1.00  0.00     0.169 A 
HETATM    8  N   UNL     1     -43.961 -46.639  10.595  1.00  0.00    -0.288 N 
HETATM    9  C   UNL     1     -42.731 -46.332  11.097  1.00  0.00     0.322 C 
HETATM   10  O   UNL     1     -42.640 -45.798  12.203  1.00  0.00    -0.247 OA
HETATM   11  N   UNL     1     -41.646 -46.673  10.344  1.00  0.00    -0.341 N 
HETATM   12  S   UNL     1     -45.768 -47.760   9.066  1.00  0.00    -0.038 SA
HETATM   13  H   UNL     1     -44.747 -46.448  11.195  1.00  0.00     0.172 HD
HETATM   14  H   UNL     1     -41.806 -47.042   9.410  1.00  0.00     0.164 HD
ENDROOT
BRANCH  11  15
HETATM   15  C   UNL     1     -40.280 -46.424  10.743  1.00  0.00     0.154 C 
BRANCH  15  16
HETATM   16  C   UNL     1     -39.706 -45.118  10.160  1.00  0.00     0.292 C 
BRANCH  16  17
HETATM   17  N   UNL     1     -39.493 -44.091  11.190  1.00  0.00     0.090 N 
HETATM   18  C   UNL     1     -39.348 -44.661  12.536  1.00  0.00     0.272 C 
HETATM   19  C   UNL     1     -39.911 -43.611  13.492  1.00  0.00     0.032 C 
HETATM   20  C   UNL     1     -40.352 -42.462  12.604  1.00  0.00     0.032 C 
HETATM   21  C   UNL     1     -40.593 -43.126  11.266  1.00  0.00     0.272 C 
ENDBRANCH  16  17
ENDBRANCH  15  16
ENDBRANCH  11  15
TORSDOF 3
ENDMDL
MODEL 7
REMARK VINA RESULT:      -5.4      5.300      6.772
REMARK  3 active torsions:
REMARK  status: ('A' for Active; 'I' for Inactive)
REMARK       I    between atoms: N_8  and  C_9 
REMARK       I    between atoms: C_9  and  N_11 
REMARK    1  A    between atoms: N_11  and  C_12 
REMARK    2  A    between atoms: C_12  and  C_13 
REMARK    3  A    between atoms: C_13  and  N_14 
ROOT
HETATM    1  C   UNL     1     -46.683 -47.314   9.062  1.00  0.00     0.078 C 
HETATM    2  C   UNL     1     -45.255 -47.310   9.455  1.00  0.00     0.066 A 
HETATM    3  N   UNL     1     -44.718 -48.158  10.307  1.00  0.00    -0.296 N 
ATOM      4  HN  UNL     1     -45.224 -48.933  10.737  1.00  0.00     0.187 HD
HETATM    5  N   UNL     1     -43.395 -47.875  10.548  1.00  0.00    -0.279 N 
ATOM      6  HN  UNL     1     -42.804 -48.408  11.186  1.00  0.00     0.189 HD
HETATM    7  C   UNL     1     -42.982 -46.837   9.859  1.00  0.00     0.169 A 
HETATM    8  N   UNL     1     -41.756 -46.238   9.889  1.00  0.00    -0.288 N 
HETATM    9  C   UNL     1     -40.768 -46.540  10.780  1.00  0.00     0.322 C 
HETATM   10  O   UNL     1     -39.698 -45.933  10.733  1.00  0.00    -0.247 OA
HETATM   11  N   UNL     1     -41.043 -47.493  11.717  1.00  0.00    -0.341 N 
HETATM   12  S   UNL     1     -44.150 -46.140   8.833  1.00  0.00    -0.038 SA
HETATM   13  H   UNL     1     -41.564 -45.481   9.253  1.00  0.00     0.172 HD
HETATM   14  H   UNL     1     -41.920 -48.000  11.643  1.00  0.00     0.164 HD
ENDROOT
BRANCH  11  15
HETATM   15  C   UNL     1     -40.106 -47.915  12.732  1.00  0.00     0.154 C 
BRANCH  15  16
HETATM   16  C   UNL     1     -39.031 -48.883  12.201  1.00  0.00     0.292 C 
BRANCH  16  17
HETATM   17  N   UNL     1     -37.883 -49.002  13.114  1.00  0.00     0.090 N 
HETATM   18  C   UNL     1     -37.863 -50.282  13.833  1.00  0.00     0.272 C 
HETATM   19  C   UNL     1     -37.212 -49.987  15.183  1.00  0.00     0.032 C 
HETATM   20  C   UNL     1     -36.884 -48.505  15.150  1.00  0.00     0.032 C 
HETATM   21  C   UNL     1     -37.862 -47.953  14.137  1.00  0.00     0.272 C 
ENDBRANCH  16  17
ENDBRANCH  15  16
ENDBRANCH  11  15
TORSDOF 3
ENDMDL
MODEL 8
REMARK VINA RESULT:      -5.2      2.486      5.594
REMARK  3 active torsions:
REMARK  status: ('A' for Active; 'I' for Inactive)
REMARK       I    between atoms: N_8  and  C_9 
REMARK       I    between atoms: C_9  and  N_11 
REMARK    1  A    between atoms: N_11  and  C_12 
REMARK    2  A    between atoms: C_12  and  C_13 
REMARK    3  A    between atoms: C_13  and  N_14 
ROOT
HETATM    1  C   UNL     1     -44.137 -53.982  12.743  1.00  0.00     0.078 C 
HETATM    2  C   UNL     1     -43.132 -52.902  12.612  1.00  0.00     0.066 A 
HETATM    3  N   UNL     1     -43.423 -51.620  12.565  1.00  0.00    -0.296 N 
ATOM      4  HN  UNL     1     -44.366 -51.244  12.668  1.00  0.00     0.187 HD
HETATM    5  N   UNL     1     -42.305 -50.847  12.359  1.00  0.00    -0.279 N 
ATOM      6  HN  UNL     1     -42.321 -49.830  12.281  1.00  0.00     0.189 HD
HETATM    7  C   UNL     1     -41.215 -51.572  12.276  1.00  0.00     0.169 A 
HETATM    8  N   UNL     1     -39.941 -51.155  12.019  1.00  0.00    -0.288 N 
HETATM    9  C   UNL     1     -39.601 -49.887  11.649  1.00  0.00     0.322 C 
HETATM   10  O   UNL     1     -38.422 -49.612  11.428  1.00  0.00    -0.247 OA
HETATM   11  N   UNL     1     -40.616 -48.986  11.507  1.00  0.00    -0.341 N 
HETATM   12  S   UNL     1     -41.447 -53.249  12.476  1.00  0.00    -0.038 SA
HETATM   13  H   UNL     1     -39.191 -51.826  12.047  1.00  0.00     0.172 HD
HETATM   14  H   UNL     1     -41.552 -49.270  11.780  1.00  0.00     0.164 HD
ENDROOT
BRANCH  11  15
HETATM   15  C   UNL     1     -40.418 -47.610  11.112  1.00  0.00     0.154 C 
BRANCH  15  16
HETATM   16  C   UNL     1     -41.701 -46.762  11.203  1.00  0.00     0.292 C 
BRANCH  16  17
HETATM   17  N   UNL     1     -42.681 -47.116  10.164  1.00  0.00     0.090 N 
HETATM   18  C   UNL     1     -43.015 -45.983   9.292  1.00  0.00     0.272 C 
HETATM   19  C   UNL     1     -44.464 -46.205   8.864  1.00  0.00     0.032 C 
HETATM   20  C   UNL     1     -44.882 -47.500   9.535  1.00  0.00     0.032 C 
HETATM   21  C   UNL     1     -43.948 -47.597  10.721  1.00  0.00     0.272 C 
ENDBRANCH  16  17
ENDBRANCH  15  16
ENDBRANCH  11  15
TORSDOF 3
ENDMDL
MODEL 9
REMARK VINA RESULT:      -5.2      3.438      4.589
REMARK  3 active torsions:
REMARK  status: ('A' for Active; 'I' for Inactive)
REMARK       I    between atoms: N_8  and  C_9 
REMARK       I    between atoms: C_9  and  N_11 
REMARK    1  A    between atoms: N_11  and  C_12 
REMARK    2  A    between atoms: C_12  and  C_13 
REMARK    3  A    between atoms: C_13  and  N_14 
ROOT
HETATM    1  C   UNL     1     -44.115 -46.103   8.782  1.00  0.00     0.078 C 
HETATM    2  C   UNL     1     -42.989 -46.797   9.450  1.00  0.00     0.066 A 
HETATM    3  N   UNL     1     -42.769 -48.093   9.376  1.00  0.00    -0.296 N 
ATOM      4  HN  UNL     1     -43.321 -48.735   8.808  1.00  0.00     0.187 HD
HETATM    5  N   UNL     1     -41.704 -48.477  10.157  1.00  0.00    -0.279 N 
ATOM      6  HN  UNL     1     -41.380 -49.440  10.246  1.00  0.00     0.189 HD
HETATM    7  C   UNL     1     -41.155 -47.457  10.775  1.00  0.00     0.169 A 
HETATM    8  N   UNL     1     -40.125 -47.469  11.670  1.00  0.00    -0.288 N 
HETATM    9  C   UNL     1     -39.573 -48.597  12.201  1.00  0.00     0.322 C 
HETATM   10  O   UNL     1     -38.651 -48.501  13.012  1.00  0.00    -0.247 OA
HETATM   11  N   UNL     1     -40.108 -49.792  11.820  1.00  0.00    -0.341 N 
HETATM   12  S   UNL     1     -41.858 -45.943  10.434  1.00  0.00    -0.038 SA
HETATM   13  H   UNL     1     -39.768 -46.593  12.017  1.00  0.00     0.172 HD
HETATM   14  H   UNL     1     -40.816 -49.792  11.091  1.00  0.00     0.164 HD
ENDROOT
BRANCH  11  15
HETATM   15  C   UNL     1     -39.640 -51.072  12.300  1.00  0.00     0.154 C 
BRANCH  15  16
HETATM   16  C   UNL     1     -40.716 -52.173  12.244  1.00  0.00     0.292 C 
BRANCH  16  17
HETATM   17  N   UNL     1     -40.366 -53.341  13.068  1.00  0.00     0.090 N 
HETATM   18  C   UNL     1     -41.538 -53.950  13.711  1.00  0.00     0.272 C 
HETATM   19  C   UNL     1     -41.028 -54.534  15.027  1.00  0.00     0.032 C 
HETATM   20  C   UNL     1     -39.544 -54.217  15.054  1.00  0.00     0.032 C 
HETATM   21  C   UNL     1     -39.427 -53.015  14.143  1.00  0.00     0.272 C 
ENDBRANCH  16  17
ENDBRANCH  15  16
ENDBRANCH  11  15
TORSDOF 3
ENDMDL
