MODEL 1
REMARK VINA RESULT:      -6.5      0.000      0.000
REMARK  3 active torsions:
REMARK  status: ('A' for Active; 'I' for Inactive)
REMARK    1  A    between atoms: C_2  and  C_3 
REMARK       I    between atoms: C_2  and  N_10 
REMARK    2  A    between atoms: C_3  and  C_4 
REMARK    3  A    between atoms: N_10  and  C_11 
ROOT
HETATM    1  C   UNL     1     -42.095 -48.119  10.776  1.00  0.00     0.089 C 
HETATM    2  C   UNL     1     -43.012 -48.606  11.889  1.00  0.00     0.051 C 
HETATM    3  C   UNL     1     -42.757 -47.876  13.200  1.00  0.00     0.171 C 
HETATM    4  O   UNL     1     -41.404 -47.682  13.564  1.00  0.00    -0.380 OA
HETATM    5  C   UNL     1     -40.386 -47.454  12.584  1.00  0.00     0.062 C 
HETATM    6  C   UNL     1     -39.104 -47.958  13.306  1.00  0.00     0.038 C 
HETATM    7  C   UNL     1     -38.761 -47.101  14.538  1.00  0.00     0.003 C 
HETATM    8  C   UNL     1     -38.600 -45.626  14.187  1.00  0.00     0.000 C 
HETATM    9  C   UNL     1     -39.810 -45.095  13.435  1.00  0.00     0.003 C 
HETATM   10  C   UNL     1     -40.155 -45.966  12.238  1.00  0.00     0.038 C 
HETATM   11  C   UNL     1     -40.648 -48.244  11.284  1.00  0.00     0.063 C 
ENDROOT
BRANCH   1  12
HETATM   12  N   UNL     1     -42.513 -46.776  10.352  1.00  0.00    -0.356 N 
HETATM   13  C   UNL     1     -43.124 -46.310   9.216  1.00  0.00     0.223 C 
HETATM   14  O   UNL     1     -43.256 -45.086   9.128  1.00  0.00    -0.273 OA
HETATM   15  H   UNL     1     -42.254 -46.002  10.951  1.00  0.00     0.162 HD
BRANCH  13  16
HETATM   16  C   UNL     1     -43.533 -47.273   8.130  1.00  0.00     0.161 C 
BRANCH  16  17
HETATM   17  C   UNL     1     -44.909 -47.846   8.270  1.00  0.00     0.043 A 
HETATM   18  C   UNL     1     -45.855 -47.780   9.320  1.00  0.00     0.054 A 
HETATM   19  C   UNL     1     -46.920 -48.523   8.872  1.00  0.00     0.169 A 
HETATM   20  O   UNL     1     -46.657 -48.979   7.628  1.00  0.00    -0.250 OA
HETATM   21  N   UNL     1     -45.400 -48.562   7.238  1.00  0.00    -0.265 N 
ATOM     22  HN  UNL     1     -44.937 -48.757   6.350  1.00  0.00     0.194 HD
ENDBRANCH  16  17
ENDBRANCH  13  16
ENDBRANCH   1  12
TORSDOF 3
ENDMDL
MODEL 2
REMARK VINA RESULT:      -6.3      3.285      5.365
REMARK  3 active torsions:
REMARK  status: ('A' for Active; 'I' for Inactive)
REMARK    1  A    between atoms: C_2  and  C_3 
REMARK       I    between atoms: C_2  and  N_10 
REMARK    2  A    between atoms: C_3  and  C_4 
REMARK    3  A    between atoms: N_10  and  C_11 
ROOT
HETATM    1  C   UNL     1     -43.150 -47.846  10.960  1.00  0.00     0.089 C 
HETATM    2  C   UNL     1     -43.875 -47.428   9.688  1.00  0.00     0.051 C 
HETATM    3  C   UNL     1     -43.195 -46.252   9.003  1.00  0.00     0.171 C 
HETATM    4  O   UNL     1     -42.768 -45.194   9.839  1.00  0.00    -0.380 OA
HETATM    5  C   UNL     1     -42.286 -45.430  11.166  1.00  0.00     0.062 C 
HETATM    6  C   UNL     1     -42.579 -44.078  11.876  1.00  0.00     0.038 C 
HETATM    7  C   UNL     1     -41.752 -42.922  11.282  1.00  0.00     0.003 C 
HETATM    8  C   UNL     1     -40.254 -43.205  11.323  1.00  0.00     0.000 C 
HETATM    9  C   UNL     1     -39.919 -44.542  10.682  1.00  0.00     0.003 C 
HETATM   10  C   UNL     1     -40.762 -45.668  11.258  1.00  0.00     0.038 C 
HETATM   11  C   UNL     1     -43.027 -46.598  11.851  1.00  0.00     0.063 C 
ENDROOT
BRANCH   1  12
HETATM   12  N   UNL     1     -41.889 -48.511  10.607  1.00  0.00    -0.356 N 
HETATM   13  C   UNL     1     -41.197 -49.550  11.173  1.00  0.00     0.223 C 
HETATM   14  O   UNL     1     -40.097 -49.812  10.677  1.00  0.00    -0.273 OA
HETATM   15  H   UNL     1     -41.354 -48.111   9.845  1.00  0.00     0.162 HD
BRANCH  13  16
HETATM   16  C   UNL     1     -41.756 -50.260  12.381  1.00  0.00     0.161 C 
BRANCH  16  17
HETATM   17  C   UNL     1     -41.247 -51.651  12.596  1.00  0.00     0.043 A 
HETATM   18  C   UNL     1     -40.819 -52.328  13.762  1.00  0.00     0.054 A 
HETATM   19  C   UNL     1     -40.444 -53.574  13.320  1.00  0.00     0.169 A 
HETATM   20  O   UNL     1     -40.660 -53.661  11.989  1.00  0.00    -0.250 OA
HETATM   21  N   UNL     1     -41.163 -52.463  11.522  1.00  0.00    -0.265 N 
ATOM     22  HN  UNL     1     -41.419 -52.238  10.561  1.00  0.00     0.194 HD
ENDBRANCH  16  17
ENDBRANCH  13  16
ENDBRANCH   1  12
TORSDOF 3
ENDMDL
MODEL 3
REMARK VINA RESULT:      -6.2      5.571      7.168
REMARK  3 active torsions:
REMARK  status: ('A' for Active; 'I' for Inactive)
REMARK    1  A    between atoms: C_2  and  C_3 
REMARK       I    between atoms: C_2  and  N_10 
REMARK    2  A    between atoms: C_3  and  C_4 
REMARK    3  A    between atoms: N_10  and  C_11 
ROOT
HETATM    1  C   UNL     1     -43.825 -50.429  13.625  1.00  0.00     0.089 C 
HETATM    2  C   UNL     1     -42.993 -49.485  12.766  1.00  0.00     0.051 C 
HETATM    3  C   UNL     1     -41.807 -50.191  12.125  1.00  0.00     0.171 C 
HETATM    4  O   UNL     1     -41.072 -51.072  12.954  1.00  0.00    -0.380 OA
HETATM    5  C   UNL     1     -41.704 -51.847  13.977  1.00  0.00     0.062 C 
HETATM    6  C   UNL     1     -40.543 -52.088  14.982  1.00  0.00     0.038 C 
HETATM    7  C   UNL     1     -39.422 -52.952  14.373  1.00  0.00     0.003 C 
HETATM    8  C   UNL     1     -39.941 -54.292  13.863  1.00  0.00     0.000 C 
HETATM    9  C   UNL     1     -41.112 -54.112  12.911  1.00  0.00     0.003 C 
HETATM   10  C   UNL     1     -42.197 -53.235  13.513  1.00  0.00     0.038 C 
HETATM   11  C   UNL     1     -42.873 -51.086  14.639  1.00  0.00     0.063 C 
ENDROOT
BRANCH   1  12
HETATM   12  N   UNL     1     -44.572 -51.348  12.756  1.00  0.00    -0.356 N 
HETATM   13  C   UNL     1     -45.779 -51.984  12.898  1.00  0.00     0.223 C 
HETATM   14  O   UNL     1     -46.087 -52.780  12.007  1.00  0.00    -0.273 OA
HETATM   15  H   UNL     1     -44.112 -51.658  11.909  1.00  0.00     0.162 HD
BRANCH  13  16
HETATM   16  C   UNL     1     -46.618 -51.744  14.128  1.00  0.00     0.161 C 
BRANCH  16  17
HETATM   17  C   UNL     1     -46.350 -52.669  15.273  1.00  0.00     0.043 A 
HETATM   18  C   UNL     1     -46.320 -52.454  16.671  1.00  0.00     0.054 A 
HETATM   19  C   UNL     1     -45.994 -53.678  17.202  1.00  0.00     0.169 A 
HETATM   20  O   UNL     1     -45.868 -54.580  16.205  1.00  0.00    -0.250 OA
HETATM   21  N   UNL     1     -46.089 -53.962  14.990  1.00  0.00    -0.265 N 
ATOM     22  HN  UNL     1     -46.060 -54.395  14.067  1.00  0.00     0.194 HD
ENDBRANCH  16  17
ENDBRANCH  13  16
ENDBRANCH   1  12
TORSDOF 3
ENDMDL
MODEL 4
REMARK VINA RESULT:      -6.1      5.605      8.160
REMARK  3 active torsions:
REMARK  status: ('A' for Active; 'I' for Inactive)
REMARK    1  A    between atoms: C_2  and  C_3 
REMARK       I    between atoms: C_2  and  N_10 
REMARK    2  A    between atoms: C_3  and  C_4 
REMARK    3  A    between atoms: N_10  and  C_11 
ROOT
HETATM    1  C   UNL     1     -41.918 -52.799  15.506  1.00  0.00     0.089 C 
HETATM    2  C   UNL     1     -42.496 -53.964  16.297  1.00  0.00     0.051 C 
HETATM    3  C   UNL     1     -43.855 -54.397  15.766  1.00  0.00     0.171 C 
HETATM    4  O   UNL     1     -44.767 -53.364  15.444  1.00  0.00    -0.380 OA
HETATM    5  C   UNL     1     -44.327 -52.109  14.914  1.00  0.00     0.062 C 
HETATM    6  C   UNL     1     -45.467 -51.144  15.343  1.00  0.00     0.038 C 
HETATM    7  C   UNL     1     -46.805 -51.491  14.662  1.00  0.00     0.003 C 
HETATM    8  C   UNL     1     -46.691 -51.501  13.141  1.00  0.00     0.000 C 
HETATM    9  C   UNL     1     -45.556 -52.395  12.671  1.00  0.00     0.003 C 
HETATM   10  C   UNL     1     -44.249 -52.061  13.371  1.00  0.00     0.038 C 
HETATM   11  C   UNL     1     -42.969 -51.676  15.506  1.00  0.00     0.063 C 
ENDROOT
BRANCH   1  12
HETATM   12  N   UNL     1     -41.484 -53.273  14.185  1.00  0.00    -0.356 N 
HETATM   13  C   UNL     1     -40.411 -52.959  13.392  1.00  0.00     0.223 C 
HETATM   14  O   UNL     1     -40.385 -53.478  12.273  1.00  0.00    -0.273 OA
HETATM   15  H   UNL     1     -42.108 -53.903  13.694  1.00  0.00     0.162 HD
BRANCH  13  16
HETATM   16  C   UNL     1     -39.379 -51.972  13.876  1.00  0.00     0.161 C 
BRANCH  16  17
HETATM   17  C   UNL     1     -38.745 -51.135  12.809  1.00  0.00     0.043 A 
HETATM   18  C   UNL     1     -37.396 -50.794  12.556  1.00  0.00     0.054 A 
HETATM   19  C   UNL     1     -37.447 -49.981  11.449  1.00  0.00     0.169 A 
HETATM   20  O   UNL     1     -38.728 -49.863  11.039  1.00  0.00    -0.250 OA
HETATM   21  N   UNL     1     -39.553 -50.582  11.881  1.00  0.00    -0.265 N 
ATOM     22  HN  UNL     1     -40.567 -50.674  11.816  1.00  0.00     0.194 HD
ENDBRANCH  16  17
ENDBRANCH  13  16
ENDBRANCH   1  12
TORSDOF 3
ENDMDL
MODEL 5
REMARK VINA RESULT:      -5.9      3.775      5.670
REMARK  3 active torsions:
REMARK  status: ('A' for Active; 'I' for Inactive)
REMARK    1  A    between atoms: C_2  and  C_3 
REMARK       I    between atoms: C_2  and  N_10 
REMARK    2  A    between atoms: C_3  and  C_4 
REMARK    3  A    between atoms: N_10  and  C_11 
ROOT
HETATM    1  C   UNL     1     -43.416 -49.720  13.026  1.00  0.00     0.089 C 
HETATM    2  C   UNL     1     -42.971 -49.187  14.382  1.00  0.00     0.051 C 
HETATM    3  C   UNL     1     -42.405 -50.286  15.270  1.00  0.00     0.171 C 
HETATM    4  O   UNL     1     -43.119 -51.508  15.297  1.00  0.00    -0.380 OA
HETATM    5  C   UNL     1     -43.798 -52.009  14.141  1.00  0.00     0.062 C 
HETATM    6  C   UNL     1     -44.908 -52.901  14.763  1.00  0.00     0.038 C 
HETATM    7  C   UNL     1     -44.323 -54.110  15.518  1.00  0.00     0.003 C 
HETATM    8  C   UNL     1     -43.424 -54.963  14.630  1.00  0.00     0.000 C 
HETATM    9  C   UNL     1     -42.347 -54.127  13.958  1.00  0.00     0.003 C 
HETATM   10  C   UNL     1     -42.935 -52.922  13.241  1.00  0.00     0.038 C 
HETATM   11  C   UNL     1     -44.400 -50.874  13.286  1.00  0.00     0.063 C 
ENDROOT
BRANCH   1  12
HETATM   12  N   UNL     1     -42.234 -50.052  12.220  1.00  0.00    -0.356 N 
HETATM   13  C   UNL     1     -41.402 -49.294  11.437  1.00  0.00     0.223 C 
HETATM   14  O   UNL     1     -40.537 -49.905  10.804  1.00  0.00    -0.273 OA
HETATM   15  H   UNL     1     -41.991 -51.032  12.139  1.00  0.00     0.162 HD
BRANCH  13  16
HETATM   16  C   UNL     1     -41.615 -47.805  11.331  1.00  0.00     0.161 C 
BRANCH  16  17
HETATM   17  C   UNL     1     -42.431 -47.359  10.158  1.00  0.00     0.043 A 
HETATM   18  C   UNL     1     -43.125 -46.154   9.896  1.00  0.00     0.054 A 
HETATM   19  C   UNL     1     -43.704 -46.350   8.665  1.00  0.00     0.169 A 
HETATM   20  O   UNL     1     -43.360 -47.570   8.197  1.00  0.00    -0.250 OA
HETATM   21  N   UNL     1     -42.562 -48.213   9.122  1.00  0.00    -0.265 N 
ATOM     22  HN  UNL     1     -42.156 -49.145   9.039  1.00  0.00     0.194 HD
ENDBRANCH  16  17
ENDBRANCH  13  16
ENDBRANCH   1  12
TORSDOF 3
ENDMDL
MODEL 6
REMARK VINA RESULT:      -5.6      6.604      8.888
REMARK  3 active torsions:
REMARK  status: ('A' for Active; 'I' for Inactive)
REMARK    1  A    between atoms: C_2  and  C_3 
REMARK       I    between atoms: C_2  and  N_10 
REMARK    2  A    between atoms: C_3  and  C_4 
REMARK    3  A    between atoms: N_10  and  C_11 
ROOT
HETATM    1  C   UNL     1     -45.624 -52.082  14.662  1.00  0.00     0.089 C 
HETATM    2  C   UNL     1     -44.762 -50.839  14.837  1.00  0.00     0.051 C 
HETATM    3  C   UNL     1     -44.686 -50.396  16.292  1.00  0.00     0.171 C 
HETATM    4  O   UNL     1     -45.900 -50.407  17.020  1.00  0.00    -0.380 OA
HETATM    5  C   UNL     1     -46.913 -51.389  16.781  1.00  0.00     0.062 C 
HETATM    6  C   UNL     1     -48.205 -50.660  17.248  1.00  0.00     0.038 C 
HETATM    7  C   UNL     1     -48.189 -50.370  18.761  1.00  0.00     0.003 C 
HETATM    8  C   UNL     1     -47.991 -51.636  19.587  1.00  0.00     0.000 C 
HETATM    9  C   UNL     1     -46.764 -52.412  19.137  1.00  0.00     0.003 C 
HETATM   10  C   UNL     1     -46.779 -52.667  17.638  1.00  0.00     0.038 C 
HETATM   11  C   UNL     1     -46.996 -51.782  15.290  1.00  0.00     0.063 C 
ENDROOT
BRANCH   1  12
HETATM   12  N   UNL     1     -44.912 -53.249  15.199  1.00  0.00    -0.356 N 
HETATM   13  C   UNL     1     -44.145 -54.220  14.609  1.00  0.00     0.223 C 
HETATM   14  O   UNL     1     -43.759 -55.135  15.342  1.00  0.00    -0.273 OA
HETATM   15  H   UNL     1     -45.045 -53.459  16.181  1.00  0.00     0.162 HD
BRANCH  13  16
HETATM   16  C   UNL     1     -43.871 -54.169  13.127  1.00  0.00     0.161 C 
BRANCH  16  17
HETATM   17  C   UNL     1     -42.610 -53.465  12.734  1.00  0.00     0.043 A 
HETATM   18  C   UNL     1     -42.351 -52.118  12.389  1.00  0.00     0.054 A 
HETATM   19  C   UNL     1     -41.007 -52.088  12.103  1.00  0.00     0.169 A 
HETATM   20  O   UNL     1     -40.480 -53.316  12.293  1.00  0.00    -0.250 OA
HETATM   21  N   UNL     1     -41.473 -54.190  12.689  1.00  0.00    -0.265 N 
ATOM     22  HN  UNL     1     -41.369 -55.182  12.903  1.00  0.00     0.194 HD
ENDBRANCH  16  17
ENDBRANCH  13  16
ENDBRANCH   1  12
TORSDOF 3
ENDMDL
MODEL 7
REMARK VINA RESULT:      -5.6      7.392     10.256
REMARK  3 active torsions:
REMARK  status: ('A' for Active; 'I' for Inactive)
REMARK    1  A    between atoms: C_2  and  C_3 
REMARK       I    between atoms: C_2  and  N_10 
REMARK    2  A    between atoms: C_3  and  C_4 
REMARK    3  A    between atoms: N_10  and  C_11 
ROOT
HETATM    1  C   UNL     1     -42.041 -54.152  13.845  1.00  0.00     0.089 C 
HETATM    2  C   UNL     1     -41.469 -53.205  12.799  1.00  0.00     0.051 C 
HETATM    3  C   UNL     1     -42.208 -51.875  12.767  1.00  0.00     0.171 C 
HETATM    4  O   UNL     1     -43.620 -51.934  12.831  1.00  0.00    -0.380 OA
HETATM    5  C   UNL     1     -44.298 -52.938  13.592  1.00  0.00     0.062 C 
HETATM    6  C   UNL     1     -45.671 -53.039  12.870  1.00  0.00     0.038 C 
HETATM    7  C   UNL     1     -46.485 -51.736  12.992  1.00  0.00     0.003 C 
HETATM    8  C   UNL     1     -46.702 -51.328  14.445  1.00  0.00     0.000 C 
HETATM    9  C   UNL     1     -45.391 -51.262  15.210  1.00  0.00     0.003 C 
HETATM   10  C   UNL     1     -44.585 -52.542  15.058  1.00  0.00     0.038 C 
HETATM   11  C   UNL     1     -43.548 -54.287  13.567  1.00  0.00     0.063 C 
ENDROOT
BRANCH   1  12
HETATM   12  N   UNL     1     -41.675 -53.677  15.186  1.00  0.00    -0.356 N 
HETATM   13  C   UNL     1     -41.409 -54.330  16.361  1.00  0.00     0.223 C 
HETATM   14  O   UNL     1     -41.221 -53.620  17.353  1.00  0.00    -0.273 OA
HETATM   15  H   UNL     1     -41.679 -52.675  15.337  1.00  0.00     0.162 HD
BRANCH  13  16
HETATM   16  C   UNL     1     -41.426 -55.837  16.408  1.00  0.00     0.161 C 
BRANCH  16  17
HETATM   17  C   UNL     1     -40.194 -56.472  16.973  1.00  0.00     0.043 A 
HETATM   18  C   UNL     1     -40.006 -57.649  17.736  1.00  0.00     0.054 A 
HETATM   19  C   UNL     1     -38.654 -57.691  17.976  1.00  0.00     0.169 A 
HETATM   20  O   UNL     1     -38.059 -56.639  17.376  1.00  0.00    -0.250 OA
HETATM   21  N   UNL     1     -39.012 -55.866  16.743  1.00  0.00    -0.265 N 
ATOM     22  HN  UNL     1     -38.854 -55.011  16.210  1.00  0.00     0.194 HD
ENDBRANCH  16  17
ENDBRANCH  13  16
ENDBRANCH   1  12
TORSDOF 3
ENDMDL
MODEL 8
REMARK VINA RESULT:      -5.5      4.914      6.922
REMARK  3 active torsions:
REMARK  status: ('A' for Active; 'I' for Inactive)
REMARK    1  A    between atoms: C_2  and  C_3 
REMARK       I    between atoms: C_2  and  N_10 
REMARK    2  A    between atoms: C_3  and  C_4 
REMARK    3  A    between atoms: N_10  and  C_11 
ROOT
HETATM    1  C   UNL     1     -42.360 -52.597  12.400  1.00  0.00     0.089 C 
HETATM    2  C   UNL     1     -43.324 -53.718  12.764  1.00  0.00     0.051 C 
HETATM    3  C   UNL     1     -43.037 -54.292  14.145  1.00  0.00     0.171 C 
HETATM    4  O   UNL     1     -41.678 -54.526  14.462  1.00  0.00    -0.380 OA
HETATM    5  C   UNL     1     -40.634 -53.678  13.975  1.00  0.00     0.062 C 
HETATM    6  C   UNL     1     -39.401 -54.625  13.980  1.00  0.00     0.038 C 
HETATM    7  C   UNL     1     -39.015 -55.063  15.406  1.00  0.00     0.003 C 
HETATM    8  C   UNL     1     -38.747 -53.873  16.321  1.00  0.00     0.000 C 
HETATM    9  C   UNL     1     -39.907 -52.890  16.315  1.00  0.00     0.003 C 
HETATM   10  C   UNL     1     -40.295 -52.488  14.901  1.00  0.00     0.038 C 
HETATM   11  C   UNL     1     -40.933 -53.149  12.556  1.00  0.00     0.063 C 
ENDROOT
BRANCH   1  12
HETATM   12  N   UNL     1     -42.678 -51.403  13.193  1.00  0.00    -0.356 N 
HETATM   13  C   UNL     1     -42.391 -50.073  13.024  1.00  0.00     0.223 C 
HETATM   14  O   UNL     1     -42.730 -49.318  13.939  1.00  0.00    -0.273 OA
HETATM   15  H   UNL     1     -43.134 -51.550  14.085  1.00  0.00     0.162 HD
BRANCH  13  16
HETATM   16  C   UNL     1     -41.639 -49.613  11.800  1.00  0.00     0.161 C 
BRANCH  16  17
HETATM   17  C   UNL     1     -40.148 -49.622  11.927  1.00  0.00     0.043 A 
HETATM   18  C   UNL     1     -39.293 -49.340  13.019  1.00  0.00     0.054 A 
HETATM   19  C   UNL     1     -38.025 -49.495  12.513  1.00  0.00     0.169 A 
HETATM   20  O   UNL     1     -38.102 -49.877  11.220  1.00  0.00    -0.250 OA
HETATM   21  N   UNL     1     -39.426 -49.960  10.839  1.00  0.00    -0.265 N 
ATOM     22  HN  UNL     1     -39.785 -50.225   9.922  1.00  0.00     0.194 HD
ENDBRANCH  16  17
ENDBRANCH  13  16
ENDBRANCH   1  12
TORSDOF 3
ENDMDL
MODEL 9
REMARK VINA RESULT:      -5.4     15.200     18.426
REMARK  3 active torsions:
REMARK  status: ('A' for Active; 'I' for Inactive)
REMARK    1  A    between atoms: C_2  and  C_3 
REMARK       I    between atoms: C_2  and  N_10 
REMARK    2  A    between atoms: C_3  and  C_4 
REMARK    3  A    between atoms: N_10  and  C_11 
ROOT
HETATM    1  C   UNL     1     -48.726 -53.823  -3.148  1.00  0.00     0.089 C 
HETATM    2  C   UNL     1     -47.951 -52.986  -2.139  1.00  0.00     0.051 C 
HETATM    3  C   UNL     1     -48.753 -52.732  -0.871  1.00  0.00     0.171 C 
HETATM    4  O   UNL     1     -50.113 -52.379  -1.043  1.00  0.00    -0.380 OA
HETATM    5  C   UNL     1     -50.900 -52.913  -2.112  1.00  0.00     0.062 C 
HETATM    6  C   UNL     1     -51.989 -51.820  -2.307  1.00  0.00     0.038 C 
HETATM    7  C   UNL     1     -52.906 -51.692  -1.076  1.00  0.00     0.003 C 
HETATM    8  C   UNL     1     -53.571 -53.015  -0.714  1.00  0.00     0.000 C 
HETATM    9  C   UNL     1     -52.551 -54.131  -0.559  1.00  0.00     0.003 C 
HETATM   10  C   UNL     1     -51.635 -54.228  -1.768  1.00  0.00     0.038 C 
HETATM   11  C   UNL     1     -50.069 -53.115  -3.397  1.00  0.00     0.063 C 
ENDROOT
BRANCH   1  12
HETATM   12  N   UNL     1     -48.808 -55.209  -2.672  1.00  0.00    -0.356 N 
HETATM   13  C   UNL     1     -48.995 -56.403  -3.318  1.00  0.00     0.223 C 
HETATM   14  O   UNL     1     -49.112 -57.402  -2.603  1.00  0.00    -0.273 OA
HETATM   15  H   UNL     1     -48.802 -55.353  -1.669  1.00  0.00     0.162 HD
BRANCH  13  16
HETATM   16  C   UNL     1     -49.117 -56.437  -4.821  1.00  0.00     0.161 C 
BRANCH  16  17
HETATM   17  C   UNL     1     -49.496 -57.763  -5.401  1.00  0.00     0.043 A 
HETATM   18  C   UNL     1     -50.666 -58.204  -6.062  1.00  0.00     0.054 A 
HETATM   19  C   UNL     1     -50.430 -59.529  -6.338  1.00  0.00     0.169 A 
HETATM   20  O   UNL     1     -49.194 -59.862  -5.908  1.00  0.00    -0.250 OA
HETATM   21  N   UNL     1     -48.596 -58.766  -5.318  1.00  0.00    -0.265 N 
ATOM     22  HN  UNL     1     -47.665 -58.722  -4.905  1.00  0.00     0.194 HD
ENDBRANCH  16  17
ENDBRANCH  13  16
ENDBRANCH   1  12
TORSDOF 3
ENDMDL
