MODEL 1
REMARK VINA RESULT:      -6.2      0.000      0.000
REMARK  4 active torsions:
REMARK  status: ('A' for Active; 'I' for Inactive)
REMARK    1  A    between atoms: C_2  and  C_4 
REMARK       I    between atoms: C_4  and  N_6 
REMARK    2  A    between atoms: C_9  and  N_12 
REMARK       I    between atoms: N_12  and  C_13 
REMARK       I    between atoms: C_13  and  N_15 
REMARK    3  A    between atoms: N_15  and  C_16 
REMARK    4  A    between atoms: C_20  and  C_24 
ROOT
HETATM    1  N   UNL     1     -41.148 -51.830  14.524  1.00  0.00    -0.338 N 
HETATM    2  C   UNL     1     -41.872 -51.262  13.508  1.00  0.00     0.321 C 
HETATM    3  O   UNL     1     -42.860 -51.787  13.017  1.00  0.00    -0.247 OA
HETATM    4  N   UNL     1     -41.308 -50.079  13.080  1.00  0.00    -0.306 N 
HETATM    5  H   UNL     1     -40.617 -51.203  15.111  1.00  0.00     0.164 HD
HETATM    6  H   UNL     1     -40.301 -50.053  13.142  1.00  0.00     0.171 HD
ENDROOT
BRANCH   1   7
HETATM    7  C   UNL     1     -41.436 -53.188  14.984  1.00  0.00     0.089 C 
HETATM    8  C   UNL     1     -41.200 -53.341  16.487  1.00  0.00     0.045 C 
HETATM    9  C   UNL     1     -39.715 -53.297  16.831  1.00  0.00     0.127 C 
HETATM   10  N   UNL     1     -38.979 -54.295  16.059  1.00  0.00    -0.352 N 
HETATM   11  C   UNL     1     -38.155 -55.289  16.580  1.00  0.00     0.223 C 
HETATM   12  C   UNL     1     -39.138 -54.196  14.606  1.00  0.00     0.127 C 
HETATM   13  O   UNL     1     -37.616 -56.126  15.854  1.00  0.00    -0.273 OA
HETATM   14  C   UNL     1     -40.609 -54.214  14.198  1.00  0.00     0.045 C 
BRANCH  11  15
HETATM   15  C   UNL     1     -37.867 -55.272  18.084  1.00  0.00     0.070 C 
HETATM   16  C   UNL     1     -37.854 -56.687  18.661  1.00  0.00     0.019 C 
HETATM   17  C   UNL     1     -36.531 -54.578  18.335  1.00  0.00     0.019 C 
ENDBRANCH  11  15
ENDBRANCH   1   7
BRANCH   4  18
HETATM   18  C   UNL     1     -41.912 -49.319  12.056  1.00  0.00     0.067 A 
HETATM   19  C   UNL     1     -43.176 -48.777  12.148  1.00  0.00     0.120 A 
HETATM   20  N   UNL     1     -43.760 -48.060  11.164  1.00  0.00    -0.353 N 
HETATM   21  C   UNL     1     -43.058 -47.898  10.026  1.00  0.00     0.088 A 
ATOM     22  HN  UNL     1     -44.691 -47.660  11.277  1.00  0.00     0.166 HD
HETATM   23  N   UNL     1     -41.808 -48.381   9.841  1.00  0.00    -0.353 N 
HETATM   24  C   UNL     1     -41.263 -49.070  10.867  1.00  0.00     0.120 A 
ATOM     25  HN  UNL     1     -41.302 -48.233   8.968  1.00  0.00     0.166 HD
BRANCH  21  26
HETATM   26  C   UNL     1     -43.692 -47.108   8.885  1.00  0.00     0.007 C 
HETATM   27  C   UNL     1     -43.193 -45.649   8.853  1.00  0.00     0.022 C 
HETATM   28  C   UNL     1     -43.324 -47.778   7.550  1.00  0.00     0.022 C 
HETATM   29  C   UNL     1     -45.222 -47.092   9.052  1.00  0.00     0.022 C 
ENDBRANCH  21  26
ENDBRANCH   4  18
TORSDOF 4
ENDMDL
MODEL 2
REMARK VINA RESULT:      -6.2      1.155      1.589
REMARK  4 active torsions:
REMARK  status: ('A' for Active; 'I' for Inactive)
REMARK    1  A    between atoms: C_2  and  C_4 
REMARK       I    between atoms: C_4  and  N_6 
REMARK    2  A    between atoms: C_9  and  N_12 
REMARK       I    between atoms: N_12  and  C_13 
REMARK       I    between atoms: C_13  and  N_15 
REMARK    3  A    between atoms: N_15  and  C_16 
REMARK    4  A    between atoms: C_20  and  C_24 
ROOT
HETATM    1  N   UNL     1     -40.801 -52.600  13.855  1.00  0.00    -0.338 N 
HETATM    2  C   UNL     1     -41.482 -51.909  12.886  1.00  0.00     0.321 C 
HETATM    3  O   UNL     1     -42.213 -52.448  12.069  1.00  0.00    -0.247 OA
HETATM    4  N   UNL     1     -41.184 -50.562  12.915  1.00  0.00    -0.306 N 
HETATM    5  H   UNL     1     -40.547 -52.086  14.686  1.00  0.00     0.164 HD
HETATM    6  H   UNL     1     -40.240 -50.353  13.204  1.00  0.00     0.171 HD
ENDROOT
BRANCH   1   7
HETATM    7  C   UNL     1     -40.795 -54.061  13.871  1.00  0.00     0.089 C 
HETATM    8  C   UNL     1     -41.649 -54.620  15.010  1.00  0.00     0.045 C 
HETATM    9  C   UNL     1     -41.002 -54.378  16.369  1.00  0.00     0.127 C 
HETATM   10  N   UNL     1     -39.643 -54.911  16.394  1.00  0.00    -0.352 N 
HETATM   11  C   UNL     1     -39.138 -55.823  17.317  1.00  0.00     0.223 C 
HETATM   12  C   UNL     1     -38.757 -54.403  15.344  1.00  0.00     0.127 C 
HETATM   13  O   UNL     1     -37.990 -56.263  17.227  1.00  0.00    -0.273 OA
HETATM   14  C   UNL     1     -39.361 -54.599  13.955  1.00  0.00     0.045 C 
BRANCH  11  15
HETATM   15  C   UNL     1     -40.024 -56.213  18.504  1.00  0.00     0.070 C 
HETATM   16  C   UNL     1     -39.907 -57.705  18.815  1.00  0.00     0.019 C 
HETATM   17  C   UNL     1     -39.633 -55.381  19.722  1.00  0.00     0.019 C 
ENDBRANCH  11  15
ENDBRANCH   1   7
BRANCH   4  18
HETATM   18  C   UNL     1     -41.798 -49.666  12.016  1.00  0.00     0.067 A 
HETATM   19  C   UNL     1     -43.066 -49.151  12.193  1.00  0.00     0.120 A 
HETATM   20  N   UNL     1     -43.660 -48.303  11.326  1.00  0.00    -0.353 N 
HETATM   21  C   UNL     1     -42.965 -47.973  10.221  1.00  0.00     0.088 A 
ATOM     22  HN  UNL     1     -44.592 -47.930  11.501  1.00  0.00     0.166 HD
HETATM   23  N   UNL     1     -41.715 -48.416   9.960  1.00  0.00    -0.353 N 
HETATM   24  C   UNL     1     -41.159 -49.243  10.872  1.00  0.00     0.120 A 
ATOM     25  HN  UNL     1     -41.214 -48.139   9.115  1.00  0.00     0.166 HD
BRANCH  21  26
HETATM   26  C   UNL     1     -43.611 -47.030   9.209  1.00  0.00     0.007 C 
HETATM   27  C   UNL     1     -43.280 -47.435   7.758  1.00  0.00     0.022 C 
HETATM   28  C   UNL     1     -45.137 -47.073   9.391  1.00  0.00     0.022 C 
HETATM   29  C   UNL     1     -43.102 -45.596   9.439  1.00  0.00     0.022 C 
ENDBRANCH  21  26
ENDBRANCH   4  18
TORSDOF 4
ENDMDL
MODEL 3
REMARK VINA RESULT:      -6.1      5.101      5.676
REMARK  4 active torsions:
REMARK  status: ('A' for Active; 'I' for Inactive)
REMARK    1  A    between atoms: C_2  and  C_4 
REMARK       I    between atoms: C_4  and  N_6 
REMARK    2  A    between atoms: C_9  and  N_12 
REMARK       I    between atoms: N_12  and  C_13 
REMARK       I    between atoms: C_13  and  N_15 
REMARK    3  A    between atoms: N_15  and  C_16 
REMARK    4  A    between atoms: C_20  and  C_24 
ROOT
HETATM    1  N   UNL     1     -38.265 -48.561  14.382  1.00  0.00    -0.338 N 
HETATM    2  C   UNL     1     -39.475 -48.413  13.755  1.00  0.00     0.321 C 
HETATM    3  O   UNL     1     -40.545 -48.598  14.314  1.00  0.00    -0.247 OA
HETATM    4  N   UNL     1     -39.322 -48.100  12.420  1.00  0.00    -0.306 N 
HETATM    5  H   UNL     1     -37.488 -48.041  14.000  1.00  0.00     0.164 HD
HETATM    6  H   UNL     1     -38.505 -48.509  11.989  1.00  0.00     0.171 HD
ENDROOT
BRANCH   1   7
HETATM    7  C   UNL     1     -38.184 -49.101  15.738  1.00  0.00     0.089 C 
HETATM    8  C   UNL     1     -38.616 -48.074  16.786  1.00  0.00     0.045 C 
HETATM    9  C   UNL     1     -37.594 -46.952  16.929  1.00  0.00     0.127 C 
HETATM   10  N   UNL     1     -36.269 -47.497  17.213  1.00  0.00    -0.352 N 
HETATM   11  C   UNL     1     -35.460 -47.159  18.295  1.00  0.00     0.223 C 
HETATM   12  C   UNL     1     -35.777 -48.472  16.238  1.00  0.00     0.127 C 
HETATM   13  O   UNL     1     -34.376 -47.714  18.487  1.00  0.00    -0.273 OA
HETATM   14  C   UNL     1     -36.769 -49.615  16.034  1.00  0.00     0.045 C 
BRANCH  11  15
HETATM   15  C   UNL     1     -35.916 -46.018  19.209  1.00  0.00     0.070 C 
HETATM   16  C   UNL     1     -36.528 -46.555  20.502  1.00  0.00     0.019 C 
HETATM   17  C   UNL     1     -34.728 -45.110  19.515  1.00  0.00     0.019 C 
ENDBRANCH  11  15
ENDBRANCH   1   7
BRANCH   4  18
HETATM   18  C   UNL     1     -40.446 -47.881  11.595  1.00  0.00     0.067 A 
HETATM   19  C   UNL     1     -41.390 -48.846  11.315  1.00  0.00     0.120 A 
HETATM   20  N   UNL     1     -42.459 -48.642  10.515  1.00  0.00    -0.353 N 
HETATM   21  C   UNL     1     -42.576 -47.425   9.951  1.00  0.00     0.088 A 
ATOM     22  HN  UNL     1     -43.146 -49.376  10.346  1.00  0.00     0.166 HD
HETATM   23  N   UNL     1     -41.710 -46.410  10.169  1.00  0.00    -0.353 N 
HETATM   24  C   UNL     1     -40.672 -46.662  10.997  1.00  0.00     0.120 A 
ATOM     25  HN  UNL     1     -41.834 -45.497   9.731  1.00  0.00     0.166 HD
BRANCH  21  26
HETATM   26  C   UNL     1     -43.762 -47.161   9.027  1.00  0.00     0.007 C 
HETATM   27  C   UNL     1     -45.080 -47.697   9.623  1.00  0.00     0.022 C 
HETATM   28  C   UNL     1     -43.904 -45.645   8.817  1.00  0.00     0.022 C 
HETATM   29  C   UNL     1     -43.528 -47.853   7.672  1.00  0.00     0.022 C 
ENDBRANCH  21  26
ENDBRANCH   4  18
TORSDOF 4
ENDMDL
MODEL 4
REMARK VINA RESULT:      -6.1      3.559      4.199
REMARK  4 active torsions:
REMARK  status: ('A' for Active; 'I' for Inactive)
REMARK    1  A    between atoms: C_2  and  C_4 
REMARK       I    between atoms: C_4  and  N_6 
REMARK    2  A    between atoms: C_9  and  N_12 
REMARK       I    between atoms: N_12  and  C_13 
REMARK       I    between atoms: C_13  and  N_15 
REMARK    3  A    between atoms: N_15  and  C_16 
REMARK    4  A    between atoms: C_20  and  C_24 
ROOT
HETATM    1  N   UNL     1     -38.087 -48.037  14.345  1.00  0.00    -0.338 N 
HETATM    2  C   UNL     1     -39.244 -47.681  13.702  1.00  0.00     0.321 C 
HETATM    3  O   UNL     1     -40.146 -47.058  14.242  1.00  0.00    -0.247 OA
HETATM    4  N   UNL     1     -39.282 -48.170  12.412  1.00  0.00    -0.306 N 
HETATM    5  H   UNL     1     -37.274 -48.191  13.767  1.00  0.00     0.164 HD
HETATM    6  H   UNL     1     -38.814 -49.057  12.291  1.00  0.00     0.171 HD
ENDROOT
BRANCH   1   7
HETATM    7  C   UNL     1     -37.929 -47.814  15.781  1.00  0.00     0.089 C 
HETATM    8  C   UNL     1     -36.476 -47.989  16.227  1.00  0.00     0.045 C 
HETATM    9  C   UNL     1     -36.045 -49.451  16.176  1.00  0.00     0.127 C 
HETATM   10  N   UNL     1     -36.958 -50.283  16.955  1.00  0.00    -0.352 N 
HETATM   11  C   UNL     1     -36.601 -51.144  17.989  1.00  0.00     0.223 C 
HETATM   12  C   UNL     1     -38.368 -50.186  16.569  1.00  0.00     0.127 C 
HETATM   13  O   UNL     1     -37.449 -51.768  18.631  1.00  0.00    -0.273 OA
HETATM   14  C   UNL     1     -38.856 -48.739  16.581  1.00  0.00     0.045 C 
BRANCH  11  15
HETATM   15  C   UNL     1     -35.111 -51.361  18.266  1.00  0.00     0.070 C 
HETATM   16  C   UNL     1     -34.627 -50.480  19.418  1.00  0.00     0.019 C 
HETATM   17  C   UNL     1     -34.863 -52.834  18.577  1.00  0.00     0.019 C 
ENDBRANCH  11  15
ENDBRANCH   1   7
BRANCH   4  18
HETATM   18  C   UNL     1     -40.377 -47.897  11.566  1.00  0.00     0.067 A 
HETATM   19  C   UNL     1     -40.538 -46.711  10.880  1.00  0.00     0.120 A 
HETATM   20  N   UNL     1     -41.592 -46.444  10.080  1.00  0.00    -0.353 N 
HETATM   21  C   UNL     1     -42.540 -47.395   9.980  1.00  0.00     0.088 A 
ATOM     22  HN  UNL     1     -41.667 -45.561   9.575  1.00  0.00     0.166 HD
HETATM   23  N   UNL     1     -42.471 -48.593  10.603  1.00  0.00    -0.353 N 
HETATM   24  C   UNL     1     -41.383 -48.817  11.372  1.00  0.00     0.120 A 
ATOM     25  HN  UNL     1     -43.204 -49.294  10.498  1.00  0.00     0.166 HD
BRANCH  21  26
HETATM   26  C   UNL     1     -43.756 -47.122   9.098  1.00  0.00     0.007 C 
HETATM   27  C   UNL     1     -43.959 -45.612   8.856  1.00  0.00     0.022 C 
HETATM   28  C   UNL     1     -43.549 -47.809   7.738  1.00  0.00     0.022 C 
HETATM   29  C   UNL     1     -45.022 -47.678   9.773  1.00  0.00     0.022 C 
ENDBRANCH  21  26
ENDBRANCH   4  18
TORSDOF 4
ENDMDL
MODEL 5
REMARK VINA RESULT:      -5.9      3.052      3.653
REMARK  4 active torsions:
REMARK  status: ('A' for Active; 'I' for Inactive)
REMARK    1  A    between atoms: C_2  and  C_4 
REMARK       I    between atoms: C_4  and  N_6 
REMARK    2  A    between atoms: C_9  and  N_12 
REMARK       I    between atoms: N_12  and  C_13 
REMARK       I    between atoms: C_13  and  N_15 
REMARK    3  A    between atoms: N_15  and  C_16 
REMARK    4  A    between atoms: C_20  and  C_24 
ROOT
HETATM    1  N   UNL     1     -39.322 -49.781  14.521  1.00  0.00    -0.338 N 
HETATM    2  C   UNL     1     -40.002 -49.649  13.339  1.00  0.00     0.321 C 
HETATM    3  O   UNL     1     -39.874 -50.425  12.404  1.00  0.00    -0.247 OA
HETATM    4  N   UNL     1     -40.782 -48.511  13.322  1.00  0.00    -0.306 N 
HETATM    5  H   UNL     1     -39.744 -49.363  15.338  1.00  0.00     0.164 HD
HETATM    6  H   UNL     1     -40.396 -47.737  13.845  1.00  0.00     0.171 HD
ENDROOT
BRANCH   1   7
HETATM    7  C   UNL     1     -38.276 -50.791  14.678  1.00  0.00     0.089 C 
HETATM    8  C   UNL     1     -38.513 -51.668  15.907  1.00  0.00     0.045 C 
HETATM    9  C   UNL     1     -38.278 -50.898  17.202  1.00  0.00     0.127 C 
HETATM   10  N   UNL     1     -36.946 -50.299  17.208  1.00  0.00    -0.352 N 
HETATM   11  C   UNL     1     -35.973 -50.477  18.188  1.00  0.00     0.223 C 
HETATM   12  C   UNL     1     -36.654 -49.424  16.070  1.00  0.00     0.127 C 
HETATM   13  O   UNL     1     -34.852 -49.974  18.082  1.00  0.00    -0.273 OA
HETATM   14  C   UNL     1     -36.891 -50.134  14.739  1.00  0.00     0.045 C 
BRANCH  11  15
HETATM   15  C   UNL     1     -36.353 -51.255  19.450  1.00  0.00     0.070 C 
HETATM   16  C   UNL     1     -35.955 -52.726  19.335  1.00  0.00     0.019 C 
HETATM   17  C   UNL     1     -35.685 -50.613  20.661  1.00  0.00     0.019 C 
ENDBRANCH  11  15
ENDBRANCH   1   7
BRANCH   4  18
HETATM   18  C   UNL     1     -41.584 -48.199  12.205  1.00  0.00     0.067 A 
HETATM   19  C   UNL     1     -41.144 -47.453  11.131  1.00  0.00     0.120 A 
HETATM   20  N   UNL     1     -41.915 -47.143  10.066  1.00  0.00    -0.353 N 
HETATM   21  C   UNL     1     -43.189 -47.578  10.087  1.00  0.00     0.088 A 
ATOM     22  HN  UNL     1     -41.548 -46.603   9.283  1.00  0.00     0.166 HD
HETATM   23  N   UNL     1     -43.712 -48.322  11.087  1.00  0.00    -0.353 N 
HETATM   24  C   UNL     1     -42.891 -48.624  12.116  1.00  0.00     0.120 A 
ATOM     25  HN  UNL     1     -44.681 -48.642  11.066  1.00  0.00     0.166 HD
BRANCH  21  26
HETATM   26  C   UNL     1     -44.096 -47.232   8.908  1.00  0.00     0.007 C 
HETATM   27  C   UNL     1     -45.526 -47.771   9.110  1.00  0.00     0.022 C 
HETATM   28  C   UNL     1     -44.168 -45.702   8.767  1.00  0.00     0.022 C 
HETATM   29  C   UNL     1     -43.525 -47.846   7.617  1.00  0.00     0.022 C 
ENDBRANCH  21  26
ENDBRANCH   4  18
TORSDOF 4
ENDMDL
MODEL 6
REMARK VINA RESULT:      -5.9      2.856      9.834
REMARK  4 active torsions:
REMARK  status: ('A' for Active; 'I' for Inactive)
REMARK    1  A    between atoms: C_2  and  C_4 
REMARK       I    between atoms: C_4  and  N_6 
REMARK    2  A    between atoms: C_9  and  N_12 
REMARK       I    between atoms: N_12  and  C_13 
REMARK       I    between atoms: C_13  and  N_15 
REMARK    3  A    between atoms: N_15  and  C_16 
REMARK    4  A    between atoms: C_20  and  C_24 
ROOT
HETATM    1  N   UNL     1     -42.420 -49.282  11.322  1.00  0.00    -0.338 N 
HETATM    2  C   UNL     1     -41.802 -50.162  12.172  1.00  0.00     0.321 C 
HETATM    3  O   UNL     1     -40.600 -50.145  12.393  1.00  0.00    -0.247 OA
HETATM    4  N   UNL     1     -42.687 -51.090  12.680  1.00  0.00    -0.306 N 
HETATM    5  H   UNL     1     -43.402 -49.110  11.482  1.00  0.00     0.164 HD
HETATM    6  H   UNL     1     -43.432 -51.341  12.046  1.00  0.00     0.171 HD
ENDROOT
BRANCH   1   7
HETATM    7  C   UNL     1     -41.641 -48.353  10.506  1.00  0.00     0.089 C 
HETATM    8  C   UNL     1     -40.920 -47.312  11.362  1.00  0.00     0.045 C 
HETATM    9  C   UNL     1     -41.896 -46.311  11.972  1.00  0.00     0.127 C 
HETATM   10  N   UNL     1     -42.713 -45.692  10.932  1.00  0.00    -0.352 N 
HETATM   11  C   UNL     1     -42.849 -44.325  10.703  1.00  0.00     0.223 C 
HETATM   12  C   UNL     1     -43.454 -46.629  10.085  1.00  0.00     0.127 C 
HETATM   13  O   UNL     1     -43.519 -43.892   9.763  1.00  0.00    -0.273 OA
HETATM   14  C   UNL     1     -42.532 -47.672   9.459  1.00  0.00     0.045 C 
BRANCH  11  15
HETATM   15  C   UNL     1     -42.204 -43.359  11.701  1.00  0.00     0.070 C 
HETATM   16  C   UNL     1     -40.863 -42.841  11.183  1.00  0.00     0.019 C 
HETATM   17  C   UNL     1     -43.158 -42.199  11.970  1.00  0.00     0.019 C 
ENDBRANCH  11  15
ENDBRANCH   1   7
BRANCH   4  18
HETATM   18  C   UNL     1     -42.259 -52.074  13.596  1.00  0.00     0.067 A 
HETATM   19  C   UNL     1     -41.715 -53.284  13.220  1.00  0.00     0.120 A 
HETATM   20  N   UNL     1     -41.317 -54.233  14.095  1.00  0.00    -0.353 N 
HETATM   21  C   UNL     1     -41.492 -53.969  15.404  1.00  0.00     0.088 A 
ATOM     22  HN  UNL     1     -40.902 -55.109  13.779  1.00  0.00     0.166 HD
HETATM   23  N   UNL     1     -42.007 -52.810  15.874  1.00  0.00    -0.353 N 
HETATM   24  C   UNL     1     -42.366 -51.887  14.956  1.00  0.00     0.120 A 
ATOM     25  HN  UNL     1     -42.118 -52.640  16.874  1.00  0.00     0.166 HD
BRANCH  21  26
HETATM   26  C   UNL     1     -41.069 -55.024  16.423  1.00  0.00     0.007 C 
HETATM   27  C   UNL     1     -40.921 -54.426  17.837  1.00  0.00     0.022 C 
HETATM   28  C   UNL     1     -42.139 -56.127  16.471  1.00  0.00     0.022 C 
HETATM   29  C   UNL     1     -39.716 -55.631  16.010  1.00  0.00     0.022 C 
ENDBRANCH  21  26
ENDBRANCH   4  18
TORSDOF 4
ENDMDL
MODEL 7
REMARK VINA RESULT:      -5.8      2.948      3.981
REMARK  4 active torsions:
REMARK  status: ('A' for Active; 'I' for Inactive)
REMARK    1  A    between atoms: C_2  and  C_4 
REMARK       I    between atoms: C_4  and  N_6 
REMARK    2  A    between atoms: C_9  and  N_12 
REMARK       I    between atoms: N_12  and  C_13 
REMARK       I    between atoms: C_13  and  N_15 
REMARK    3  A    between atoms: N_15  and  C_16 
REMARK    4  A    between atoms: C_20  and  C_24 
ROOT
HETATM    1  N   UNL     1     -42.886 -51.776  12.486  1.00  0.00    -0.338 N 
HETATM    2  C   UNL     1     -42.646 -50.426  12.506  1.00  0.00     0.321 C 
HETATM    3  O   UNL     1     -43.219 -49.656  13.262  1.00  0.00    -0.247 OA
HETATM    4  N   UNL     1     -41.742 -50.055  11.532  1.00  0.00    -0.306 N 
HETATM    5  H   UNL     1     -42.143 -52.365  12.139  1.00  0.00     0.164 HD
HETATM    6  H   UNL     1     -41.786 -50.612  10.691  1.00  0.00     0.171 HD
ENDROOT
BRANCH   1   7
HETATM    7  C   UNL     1     -43.966 -52.358  13.281  1.00  0.00     0.089 C 
HETATM    8  C   UNL     1     -43.827 -52.016  14.765  1.00  0.00     0.045 C 
HETATM    9  C   UNL     1     -42.655 -52.752  15.405  1.00  0.00     0.127 C 
HETATM   10  N   UNL     1     -42.770 -54.191  15.185  1.00  0.00    -0.352 N 
HETATM   11  C   UNL     1     -42.765 -55.172  16.173  1.00  0.00     0.223 C 
HETATM   12  C   UNL     1     -42.884 -54.597  13.783  1.00  0.00     0.127 C 
HETATM   13  O   UNL     1     -42.925 -56.364  15.898  1.00  0.00    -0.273 OA
HETATM   14  C   UNL     1     -44.031 -53.877  13.079  1.00  0.00     0.045 C 
BRANCH  11  15
HETATM   15  C   UNL     1     -42.477 -54.744  17.614  1.00  0.00     0.070 C 
HETATM   16  C   UNL     1     -43.696 -54.958  18.510  1.00  0.00     0.019 C 
HETATM   17  C   UNL     1     -41.279 -55.528  18.144  1.00  0.00     0.019 C 
ENDBRANCH  11  15
ENDBRANCH   1   7
BRANCH   4  18
HETATM   18  C   UNL     1     -41.336 -48.710  11.396  1.00  0.00     0.067 A 
HETATM   19  C   UNL     1     -41.803 -47.866  10.410  1.00  0.00     0.120 A 
HETATM   20  N   UNL     1     -41.407 -46.583  10.270  1.00  0.00    -0.353 N 
HETATM   21  C   UNL     1     -40.484 -46.130  11.141  1.00  0.00     0.088 A 
ATOM     22  HN  UNL     1     -41.788 -45.984   9.539  1.00  0.00     0.166 HD
HETATM   23  N   UNL     1     -39.972 -46.874  12.147  1.00  0.00    -0.353 N 
HETATM   24  C   UNL     1     -40.422 -48.144  12.255  1.00  0.00     0.120 A 
ATOM     25  HN  UNL     1     -39.280 -46.496  12.793  1.00  0.00     0.166 HD
BRANCH  21  26
HETATM   26  C   UNL     1     -39.999 -44.689  11.004  1.00  0.00     0.007 C 
HETATM   27  C   UNL     1     -41.174 -43.691  10.969  1.00  0.00     0.022 C 
HETATM   28  C   UNL     1     -39.106 -44.348  12.207  1.00  0.00     0.022 C 
HETATM   29  C   UNL     1     -39.195 -44.535   9.701  1.00  0.00     0.022 C 
ENDBRANCH  21  26
ENDBRANCH   4  18
TORSDOF 4
ENDMDL
MODEL 8
REMARK VINA RESULT:      -5.8      3.915     10.655
REMARK  4 active torsions:
REMARK  status: ('A' for Active; 'I' for Inactive)
REMARK    1  A    between atoms: C_2  and  C_4 
REMARK       I    between atoms: C_4  and  N_6 
REMARK    2  A    between atoms: C_9  and  N_12 
REMARK       I    between atoms: N_12  and  C_13 
REMARK       I    between atoms: C_13  and  N_15 
REMARK    3  A    between atoms: N_15  and  C_16 
REMARK    4  A    between atoms: C_20  and  C_24 
ROOT
HETATM    1  N   UNL     1     -40.482 -53.577  15.378  1.00  0.00    -0.338 N 
HETATM    2  C   UNL     1     -39.535 -54.528  15.658  1.00  0.00     0.321 C 
HETATM    3  O   UNL     1     -38.922 -55.136  14.793  1.00  0.00    -0.247 OA
HETATM    4  N   UNL     1     -39.419 -54.751  17.014  1.00  0.00    -0.306 N 
HETATM    5  H   UNL     1     -40.650 -52.881  16.090  1.00  0.00     0.164 HD
HETATM    6  H   UNL     1     -40.282 -54.641  17.527  1.00  0.00     0.171 HD
ENDROOT
BRANCH   1   7
HETATM    7  C   UNL     1     -40.923 -53.338  14.006  1.00  0.00     0.089 C 
HETATM    8  C   UNL     1     -41.636 -51.993  13.864  1.00  0.00     0.045 C 
HETATM    9  C   UNL     1     -43.003 -52.007  14.541  1.00  0.00     0.127 C 
HETATM   10  N   UNL     1     -43.815 -53.111  14.036  1.00  0.00    -0.352 N 
HETATM   11  C   UNL     1     -45.087 -53.004  13.480  1.00  0.00     0.223 C 
HETATM   12  C   UNL     1     -43.205 -54.437  14.160  1.00  0.00     0.127 C 
HETATM   13  O   UNL     1     -45.677 -53.987  13.027  1.00  0.00    -0.273 OA
HETATM   14  C   UNL     1     -41.821 -54.482  13.517  1.00  0.00     0.045 C 
BRANCH  11  15
HETATM   15  C   UNL     1     -45.776 -51.637  13.513  1.00  0.00     0.070 C 
HETATM   16  C   UNL     1     -46.674 -51.440  12.293  1.00  0.00     0.019 C 
HETATM   17  C   UNL     1     -46.586 -51.510  14.800  1.00  0.00     0.019 C 
ENDBRANCH  11  15
ENDBRANCH   1   7
BRANCH   4  18
HETATM   18  C   UNL     1     -38.482 -55.676  17.519  1.00  0.00     0.067 A 
HETATM   19  C   UNL     1     -38.808 -56.956  17.915  1.00  0.00     0.120 A 
HETATM   20  N   UNL     1     -37.914 -57.839  18.411  1.00  0.00    -0.353 N 
HETATM   21  C   UNL     1     -36.642 -57.415  18.538  1.00  0.00     0.088 A 
ATOM     22  HN  UNL     1     -38.190 -58.784  18.677  1.00  0.00     0.166 HD
HETATM   23  N   UNL     1     -36.221 -56.184  18.170  1.00  0.00    -0.353 N 
HETATM   24  C   UNL     1     -37.152 -55.349  17.659  1.00  0.00     0.120 A 
ATOM     25  HN  UNL     1     -35.247 -55.899  18.274  1.00  0.00     0.166 HD
BRANCH  21  26
HETATM   26  C   UNL     1     -35.607 -58.380  19.111  1.00  0.00     0.007 C 
HETATM   27  C   UNL     1     -34.292 -58.352  18.304  1.00  0.00     0.022 C 
HETATM   28  C   UNL     1     -35.297 -57.975  20.561  1.00  0.00     0.022 C 
HETATM   29  C   UNL     1     -36.162 -59.815  19.081  1.00  0.00     0.022 C 
ENDBRANCH  21  26
ENDBRANCH   4  18
TORSDOF 4
ENDMDL
MODEL 9
REMARK VINA RESULT:      -5.6     15.698     19.158
REMARK  4 active torsions:
REMARK  status: ('A' for Active; 'I' for Inactive)
REMARK    1  A    between atoms: C_2  and  C_4 
REMARK       I    between atoms: C_4  and  N_6 
REMARK    2  A    between atoms: C_9  and  N_12 
REMARK       I    between atoms: N_12  and  C_13 
REMARK       I    between atoms: C_13  and  N_15 
REMARK    3  A    between atoms: N_15  and  C_16 
REMARK    4  A    between atoms: C_20  and  C_24 
ROOT
HETATM    1  N   UNL     1     -51.002 -50.548  -0.045  1.00  0.00    -0.338 N 
HETATM    2  C   UNL     1     -51.020 -51.805  -0.591  1.00  0.00     0.321 C 
HETATM    3  O   UNL     1     -50.105 -52.604  -0.461  1.00  0.00    -0.247 OA
HETATM    4  N   UNL     1     -52.154 -52.017  -1.347  1.00  0.00    -0.306 N 
HETATM    5  H   UNL     1     -51.897 -50.116   0.131  1.00  0.00     0.164 HD
HETATM    6  H   UNL     1     -52.503 -51.191  -1.812  1.00  0.00     0.171 HD
ENDROOT
BRANCH   1   7
HETATM    7  C   UNL     1     -49.802 -50.032   0.611  1.00  0.00     0.089 C 
HETATM    8  C   UNL     1     -50.129 -49.356   1.943  1.00  0.00     0.045 C 
HETATM    9  C   UNL     1     -50.860 -48.033   1.738  1.00  0.00     0.127 C 
HETATM   10  N   UNL     1     -50.097 -47.156   0.854  1.00  0.00    -0.352 N 
HETATM   11  C   UNL     1     -49.689 -45.857   1.143  1.00  0.00     0.223 C 
HETATM   12  C   UNL     1     -49.766 -47.729  -0.453  1.00  0.00     0.127 C 
HETATM   13  O   UNL     1     -48.997 -45.208   0.355  1.00  0.00    -0.273 OA
HETATM   14  C   UNL     1     -49.048 -49.069  -0.315  1.00  0.00     0.045 C 
BRANCH  11  15
HETATM   15  C   UNL     1     -50.187 -45.216   2.441  1.00  0.00     0.070 C 
HETATM   16  C   UNL     1     -49.050 -44.520   3.187  1.00  0.00     0.019 C 
HETATM   17  C   UNL     1     -51.303 -44.226   2.121  1.00  0.00     0.019 C 
ENDBRANCH  11  15
ENDBRANCH   1   7
BRANCH   4  18
HETATM   18  C   UNL     1     -52.382 -53.258  -1.979  1.00  0.00     0.067 A 
HETATM   19  C   UNL     1     -52.069 -53.514  -3.297  1.00  0.00     0.120 A 
HETATM   20  N   UNL     1     -52.298 -54.697  -3.907  1.00  0.00    -0.353 N 
HETATM   21  C   UNL     1     -52.889 -55.659  -3.173  1.00  0.00     0.088 A 
ATOM     22  HN  UNL     1     -52.036 -54.855  -4.880  1.00  0.00     0.166 HD
HETATM   23  N   UNL     1     -53.226 -55.510  -1.872  1.00  0.00    -0.353 N 
HETATM   24  C   UNL     1     -52.952 -54.315  -1.305  1.00  0.00     0.120 A 
ATOM     25  HN  UNL     1     -53.666 -56.263  -1.343  1.00  0.00     0.166 HD
BRANCH  21  26
HETATM   26  C   UNL     1     -53.179 -57.005  -3.833  1.00  0.00     0.007 C 
HETATM   27  C   UNL     1     -54.329 -56.902  -4.856  1.00  0.00     0.022 C 
HETATM   28  C   UNL     1     -51.916 -57.483  -4.567  1.00  0.00     0.022 C 
HETATM   29  C   UNL     1     -53.577 -58.034  -2.760  1.00  0.00     0.022 C 
ENDBRANCH  21  26
ENDBRANCH   4  18
TORSDOF 4
ENDMDL
