MODEL 1
REMARK VINA RESULT:      -6.2      0.000      0.000
REMARK  6 active torsions:
REMARK  status: ('A' for Active; 'I' for Inactive)
REMARK    1  A    between atoms: C_2  and  C_3 
REMARK    2  A    between atoms: C_3  and  C_4 
REMARK    3  A    between atoms: C_6  and  N_11 
REMARK    4  A    between atoms: C_8  and  O_9 
REMARK       I    between atoms: N_11  and  C_12 
REMARK    5  A    between atoms: C_12  and  C_14 
REMARK    6  A    between atoms: C_14  and  C_15 
ROOT
HETATM    1  N   UNL     1     -43.026 -52.750  13.863  1.00  0.00    -0.355 N 
HETATM    2  C   UNL     1     -42.222 -53.868  14.004  1.00  0.00     0.223 C 
HETATM    3  O   UNL     1     -42.407 -54.732  14.859  1.00  0.00    -0.273 OA
HETATM    4  H   UNL     1     -42.709 -52.035  13.216  1.00  0.00     0.162 HD
ENDROOT
BRANCH   1   5
HETATM    5  C   UNL     1     -44.184 -52.505  14.740  1.00  0.00     0.097 C 
HETATM    6  C   UNL     1     -45.601 -52.805  14.117  1.00  0.00     0.006 C 
HETATM    7  C   UNL     1     -46.079 -51.538  14.950  1.00  0.00     0.133 C 
HETATM    8  C   UNL     1     -44.613 -51.027  14.852  1.00  0.00     0.058 C 
BRANCH   6   9
HETATM    9  C   UNL     1     -46.183 -54.152  14.588  1.00  0.00     0.009 C 
HETATM   10  C   UNL     1     -45.647 -55.348  13.818  1.00  0.00     0.006 C 
ENDBRANCH   6   9
BRANCH   6  11
HETATM   11  C   UNL     1     -45.700 -52.594  12.581  1.00  0.00     0.009 C 
HETATM   12  C   UNL     1     -46.882 -51.737  12.151  1.00  0.00     0.006 C 
ENDBRANCH   6  11
BRANCH   7  13
HETATM   13  O   UNL     1     -46.499 -51.735  16.324  1.00  0.00    -0.390 OA
HETATM   14  C   UNL     1     -47.788 -51.276  16.698  1.00  0.00     0.202 C 
ENDBRANCH   7  13
ENDBRANCH   1   5
BRANCH   2  15
HETATM   15  C   UNL     1     -41.087 -53.958  13.008  1.00  0.00     0.161 C 
BRANCH  15  16
HETATM   16  C   UNL     1     -40.773 -52.626  12.424  1.00  0.00     0.036 A 
HETATM   17  C   UNL     1     -39.965 -51.601  12.968  1.00  0.00     0.053 A 
HETATM   18  C   UNL     1     -39.935 -50.620  12.003  1.00  0.00     0.024 A 
HETATM   19  C   UNL     1     -39.243 -49.314  11.944  1.00  0.00     0.070 C 
HETATM   20  N   UNL     1     -40.712 -51.083  10.979  1.00  0.00    -0.305 N 
HETATM   21  N   UNL     1     -41.242 -52.294  11.213  1.00  0.00    -0.304 N 
HETATM   22  H   UNL     1     -40.915 -50.632  10.092  1.00  0.00     0.186 HD
ATOM     23  HN  UNL     1     -41.860 -52.836  10.609  1.00  0.00     0.186 HD
ENDBRANCH  15  16
ENDBRANCH   2  15
TORSDOF 6
ENDMDL
MODEL 2
REMARK VINA RESULT:      -5.8      4.573      7.231
REMARK  6 active torsions:
REMARK  status: ('A' for Active; 'I' for Inactive)
REMARK    1  A    between atoms: C_2  and  C_3 
REMARK    2  A    between atoms: C_3  and  C_4 
REMARK    3  A    between atoms: C_6  and  N_11 
REMARK    4  A    between atoms: C_8  and  O_9 
REMARK       I    between atoms: N_11  and  C_12 
REMARK    5  A    between atoms: C_12  and  C_14 
REMARK    6  A    between atoms: C_14  and  C_15 
ROOT
HETATM    1  N   UNL     1     -41.336 -49.108  11.063  1.00  0.00    -0.355 N 
HETATM    2  C   UNL     1     -41.713 -47.792  11.265  1.00  0.00     0.223 C 
HETATM    3  O   UNL     1     -41.837 -47.286  12.379  1.00  0.00    -0.273 OA
HETATM    4  H   UNL     1     -41.392 -49.461  10.113  1.00  0.00     0.162 HD
ENDROOT
BRANCH   1   5
HETATM    5  C   UNL     1     -41.049 -50.019  12.185  1.00  0.00     0.097 C 
HETATM    6  C   UNL     1     -39.558 -50.043  12.695  1.00  0.00     0.006 C 
HETATM    7  C   UNL     1     -39.807 -51.596  12.917  1.00  0.00     0.133 C 
HETATM    8  C   UNL     1     -40.874 -51.501  11.789  1.00  0.00     0.058 C 
BRANCH   6   9
HETATM    9  C   UNL     1     -39.360 -49.223  13.985  1.00  0.00     0.009 C 
HETATM   10  C   UNL     1     -38.615 -47.916  13.767  1.00  0.00     0.006 C 
ENDBRANCH   6   9
BRANCH   6  11
HETATM   11  C   UNL     1     -38.488 -49.748  11.607  1.00  0.00     0.009 C 
HETATM   12  C   UNL     1     -37.265 -50.650  11.686  1.00  0.00     0.006 C 
ENDBRANCH   6  11
BRANCH   7  13
HETATM   13  O   UNL     1     -40.380 -52.030  14.176  1.00  0.00    -0.390 OA
HETATM   14  C   UNL     1     -39.721 -53.067  14.886  1.00  0.00     0.202 C 
ENDBRANCH   7  13
ENDBRANCH   1   5
BRANCH   2  15
HETATM   15  C   UNL     1     -41.955 -47.003   9.997  1.00  0.00     0.161 C 
BRANCH  15  16
HETATM   16  C   UNL     1     -43.239 -47.393   9.354  1.00  0.00     0.036 A 
HETATM   17  C   UNL     1     -44.534 -47.407   9.923  1.00  0.00     0.053 A 
HETATM   18  C   UNL     1     -45.373 -47.765   8.894  1.00  0.00     0.024 A 
HETATM   19  C   UNL     1     -46.842 -47.925   8.828  1.00  0.00     0.070 C 
HETATM   20  N   UNL     1     -44.567 -47.957   7.807  1.00  0.00    -0.305 N 
HETATM   21  N   UNL     1     -43.265 -47.749   8.062  1.00  0.00    -0.304 N 
HETATM   22  H   UNL     1     -44.837 -48.220   6.865  1.00  0.00     0.186 HD
ATOM     23  HN  UNL     1     -42.478 -47.842   7.420  1.00  0.00     0.186 HD
ENDBRANCH  15  16
ENDBRANCH   2  15
TORSDOF 6
ENDMDL
MODEL 3
REMARK VINA RESULT:      -5.7      1.121      1.789
REMARK  6 active torsions:
REMARK  status: ('A' for Active; 'I' for Inactive)
REMARK    1  A    between atoms: C_2  and  C_3 
REMARK    2  A    between atoms: C_3  and  C_4 
REMARK    3  A    between atoms: C_6  and  N_11 
REMARK    4  A    between atoms: C_8  and  O_9 
REMARK       I    between atoms: N_11  and  C_12 
REMARK    5  A    between atoms: C_12  and  C_14 
REMARK    6  A    between atoms: C_14  and  C_15 
ROOT
HETATM    1  N   UNL     1     -43.030 -52.915  14.473  1.00  0.00    -0.355 N 
HETATM    2  C   UNL     1     -42.796 -53.973  13.611  1.00  0.00     0.223 C 
HETATM    3  O   UNL     1     -43.668 -54.766  13.259  1.00  0.00    -0.273 OA
HETATM    4  H   UNL     1     -42.218 -52.403  14.802  1.00  0.00     0.162 HD
ENDROOT
BRANCH   1   5
HETATM    5  C   UNL     1     -44.363 -52.654  15.045  1.00  0.00     0.097 C 
HETATM    6  C   UNL     1     -44.965 -51.223  14.773  1.00  0.00     0.006 C 
HETATM    7  C   UNL     1     -45.554 -51.346  16.244  1.00  0.00     0.133 C 
HETATM    8  C   UNL     1     -44.367 -52.304  16.548  1.00  0.00     0.058 C 
BRANCH   6   9
HETATM    9  C   UNL     1     -46.017 -51.226  13.647  1.00  0.00     0.009 C 
HETATM   10  C   UNL     1     -46.263 -52.601  13.048  1.00  0.00     0.006 C 
ENDBRANCH   6   9
BRANCH   6  11
HETATM   11  C   UNL     1     -43.915 -50.085  14.632  1.00  0.00     0.009 C 
HETATM   12  C   UNL     1     -43.503 -49.803  13.195  1.00  0.00     0.006 C 
ENDBRANCH   6  11
BRANCH   7  13
HETATM   13  O   UNL     1     -46.839 -51.994  16.420  1.00  0.00    -0.390 OA
HETATM   14  C   UNL     1     -47.912 -51.219  16.928  1.00  0.00     0.202 C 
ENDBRANCH   7  13
ENDBRANCH   1   5
BRANCH   2  15
HETATM   15  C   UNL     1     -41.371 -54.079  13.115  1.00  0.00     0.161 C 
BRANCH  15  16
HETATM   16  C   UNL     1     -40.893 -52.783  12.561  1.00  0.00     0.036 A 
HETATM   17  C   UNL     1     -39.965 -51.879  13.127  1.00  0.00     0.053 A 
HETATM   18  C   UNL     1     -39.813 -50.887  12.185  1.00  0.00     0.024 A 
HETATM   19  C   UNL     1     -38.964 -49.676  12.155  1.00  0.00     0.070 C 
HETATM   20  N   UNL     1     -40.639 -51.226  11.152  1.00  0.00    -0.305 N 
HETATM   21  N   UNL     1     -41.316 -52.367  11.359  1.00  0.00    -0.304 N 
HETATM   22  H   UNL     1     -40.784 -50.734  10.276  1.00  0.00     0.186 HD
ATOM     23  HN  UNL     1     -41.995 -52.814  10.743  1.00  0.00     0.186 HD
ENDBRANCH  15  16
ENDBRANCH   2  15
TORSDOF 6
ENDMDL
MODEL 4
REMARK VINA RESULT:      -5.6      3.436      4.427
REMARK  6 active torsions:
REMARK  status: ('A' for Active; 'I' for Inactive)
REMARK    1  A    between atoms: C_2  and  C_3 
REMARK    2  A    between atoms: C_3  and  C_4 
REMARK    3  A    between atoms: C_6  and  N_11 
REMARK    4  A    between atoms: C_8  and  O_9 
REMARK       I    between atoms: N_11  and  C_12 
REMARK    5  A    between atoms: C_12  and  C_14 
REMARK    6  A    between atoms: C_14  and  C_15 
ROOT
HETATM    1  N   UNL     1     -43.724 -49.846  12.530  1.00  0.00    -0.355 N 
HETATM    2  C   UNL     1     -42.748 -48.941  12.149  1.00  0.00     0.223 C 
HETATM    3  O   UNL     1     -41.591 -48.979  12.562  1.00  0.00    -0.273 OA
HETATM    4  H   UNL     1     -44.675 -49.646  12.236  1.00  0.00     0.162 HD
ENDROOT
BRANCH   1   5
HETATM    5  C   UNL     1     -43.447 -50.942  13.475  1.00  0.00     0.097 C 
HETATM    6  C   UNL     1     -44.613 -51.980  13.693  1.00  0.00     0.006 C 
HETATM    7  C   UNL     1     -44.116 -52.008  15.202  1.00  0.00     0.133 C 
HETATM    8  C   UNL     1     -43.584 -50.565  14.965  1.00  0.00     0.058 C 
BRANCH   6   9
HETATM    9  C   UNL     1     -44.395 -53.289  12.911  1.00  0.00     0.009 C 
HETATM   10  C   UNL     1     -45.224 -54.453  13.429  1.00  0.00     0.006 C 
ENDBRANCH   6   9
BRANCH   6  11
HETATM   11  C   UNL     1     -46.046 -51.400  13.536  1.00  0.00     0.009 C 
HETATM   12  C   UNL     1     -46.895 -51.507  14.794  1.00  0.00     0.006 C 
ENDBRANCH   6  11
BRANCH   7  13
HETATM   13  O   UNL     1     -43.055 -52.928  15.562  1.00  0.00    -0.390 OA
HETATM   14  C   UNL     1     -43.269 -53.792  16.667  1.00  0.00     0.202 C 
ENDBRANCH   7  13
ENDBRANCH   1   5
BRANCH   2  15
HETATM   15  C   UNL     1     -43.212 -47.891  11.164  1.00  0.00     0.161 C 
BRANCH  15  16
HETATM   16  C   UNL     1     -42.143 -46.891  10.895  1.00  0.00     0.036 A 
HETATM   17  C   UNL     1     -42.142 -45.510  11.197  1.00  0.00     0.053 A 
HETATM   18  C   UNL     1     -40.897 -45.062  10.819  1.00  0.00     0.024 A 
HETATM   19  C   UNL     1     -40.261 -43.729  10.902  1.00  0.00     0.070 C 
HETATM   20  N   UNL     1     -40.249 -46.152  10.313  1.00  0.00    -0.305 N 
HETATM   21  N   UNL     1     -40.987 -47.274  10.336  1.00  0.00    -0.304 N 
HETATM   22  H   UNL     1     -39.304 -46.206   9.945  1.00  0.00     0.186 HD
ATOM     23  HN  UNL     1     -40.726 -48.203  10.005  1.00  0.00     0.186 HD
ENDBRANCH  15  16
ENDBRANCH   2  15
TORSDOF 6
ENDMDL
MODEL 5
REMARK VINA RESULT:      -5.5      3.402      6.402
REMARK  6 active torsions:
REMARK  status: ('A' for Active; 'I' for Inactive)
REMARK    1  A    between atoms: C_2  and  C_3 
REMARK    2  A    between atoms: C_3  and  C_4 
REMARK    3  A    between atoms: C_6  and  N_11 
REMARK    4  A    between atoms: C_8  and  O_9 
REMARK       I    between atoms: N_11  and  C_12 
REMARK    5  A    between atoms: C_12  and  C_14 
REMARK    6  A    between atoms: C_14  and  C_15 
ROOT
HETATM    1  N   UNL     1     -41.422 -50.528  11.505  1.00  0.00    -0.355 N 
HETATM    2  C   UNL     1     -40.656 -51.538  12.062  1.00  0.00     0.223 C 
HETATM    3  O   UNL     1     -39.476 -51.398  12.378  1.00  0.00    -0.273 OA
HETATM    4  H   UNL     1     -42.341 -50.786  11.160  1.00  0.00     0.162 HD
ENDROOT
BRANCH   1   5
HETATM    5  C   UNL     1     -40.873 -49.186  11.242  1.00  0.00     0.097 C 
HETATM    6  C   UNL     1     -41.042 -48.130  12.399  1.00  0.00     0.006 C 
HETATM    7  C   UNL     1     -41.258 -47.084  11.222  1.00  0.00     0.133 C 
HETATM    8  C   UNL     1     -41.765 -48.281  10.367  1.00  0.00     0.058 C 
BRANCH   6   9
HETATM    9  C   UNL     1     -39.751 -47.934  13.217  1.00  0.00     0.009 C 
HETATM   10  C   UNL     1     -39.750 -48.680  14.541  1.00  0.00     0.006 C 
ENDBRANCH   6   9
BRANCH   6  11
HETATM   11  C   UNL     1     -42.307 -48.320  13.283  1.00  0.00     0.009 C 
HETATM   12  C   UNL     1     -42.980 -47.016  13.683  1.00  0.00     0.006 C 
ENDBRANCH   6  11
BRANCH   7  13
HETATM   13  O   UNL     1     -40.091 -46.451  10.640  1.00  0.00    -0.390 OA
HETATM   14  C   UNL     1     -40.065 -45.034  10.574  1.00  0.00     0.202 C 
ENDBRANCH   7  13
ENDBRANCH   1   5
BRANCH   2  15
HETATM   15  C   UNL     1     -41.390 -52.844  12.270  1.00  0.00     0.161 C 
BRANCH  15  16
HETATM   16  C   UNL     1     -42.819 -52.614  12.615  1.00  0.00     0.036 A 
HETATM   17  C   UNL     1     -43.349 -51.887  13.707  1.00  0.00     0.053 A 
HETATM   18  C   UNL     1     -44.713 -51.910  13.523  1.00  0.00     0.024 A 
HETATM   19  C   UNL     1     -45.823 -51.309  14.294  1.00  0.00     0.070 C 
HETATM   20  N   UNL     1     -44.922 -52.637  12.385  1.00  0.00    -0.305 N 
HETATM   21  N   UNL     1     -43.789 -53.086  11.820  1.00  0.00    -0.304 N 
HETATM   22  H   UNL     1     -45.804 -52.856  11.934  1.00  0.00     0.186 HD
ATOM     23  HN  UNL     1     -43.691 -53.655  10.979  1.00  0.00     0.186 HD
ENDBRANCH  15  16
ENDBRANCH   2  15
TORSDOF 6
ENDMDL
MODEL 6
REMARK VINA RESULT:      -5.4      2.687      4.282
REMARK  6 active torsions:
REMARK  status: ('A' for Active; 'I' for Inactive)
REMARK    1  A    between atoms: C_2  and  C_3 
REMARK    2  A    between atoms: C_3  and  C_4 
REMARK    3  A    between atoms: C_6  and  N_11 
REMARK    4  A    between atoms: C_8  and  O_9 
REMARK       I    between atoms: N_11  and  C_12 
REMARK    5  A    between atoms: C_12  and  C_14 
REMARK    6  A    between atoms: C_14  and  C_15 
ROOT
HETATM    1  N   UNL     1     -42.240 -51.644  12.149  1.00  0.00    -0.355 N 
HETATM    2  C   UNL     1     -41.925 -50.298  12.225  1.00  0.00     0.223 C 
HETATM    3  O   UNL     1     -42.505 -49.507  12.966  1.00  0.00    -0.273 OA
HETATM    4  H   UNL     1     -41.791 -52.179  11.412  1.00  0.00     0.162 HD
ENDROOT
BRANCH   1   5
HETATM    5  C   UNL     1     -43.312 -52.242  12.962  1.00  0.00     0.097 C 
HETATM    6  C   UNL     1     -42.884 -53.424  13.913  1.00  0.00     0.006 C 
HETATM    7  C   UNL     1     -44.301 -54.044  13.547  1.00  0.00     0.133 C 
HETATM    8  C   UNL     1     -44.210 -53.249  12.213  1.00  0.00     0.058 C 
BRANCH   6   9
HETATM    9  C   UNL     1     -42.726 -52.979  15.379  1.00  0.00     0.009 C 
HETATM   10  C   UNL     1     -43.115 -51.530  15.621  1.00  0.00     0.006 C 
ENDBRANCH   6   9
BRANCH   6  11
HETATM   11  C   UNL     1     -41.694 -54.282  13.398  1.00  0.00     0.009 C 
HETATM   12  C   UNL     1     -40.367 -53.956  14.066  1.00  0.00     0.006 C 
ENDBRANCH   6  11
BRANCH   7  13
HETATM   13  O   UNL     1     -45.450 -53.653  14.340  1.00  0.00    -0.390 OA
HETATM   14  C   UNL     1     -46.387 -54.656  14.695  1.00  0.00     0.202 C 
ENDBRANCH   7  13
ENDBRANCH   1   5
BRANCH   2  15
HETATM   15  C   UNL     1     -40.788 -49.864  11.326  1.00  0.00     0.161 C 
BRANCH  15  16
HETATM   16  C   UNL     1     -40.921 -48.434  10.937  1.00  0.00     0.036 A 
HETATM   17  C   UNL     1     -40.184 -47.326  11.415  1.00  0.00     0.053 A 
HETATM   18  C   UNL     1     -40.637 -46.252  10.684  1.00  0.00     0.024 A 
HETATM   19  C   UNL     1     -40.248 -44.825  10.680  1.00  0.00     0.070 C 
HETATM   20  N   UNL     1     -41.598 -46.750   9.850  1.00  0.00    -0.305 N 
HETATM   21  N   UNL     1     -41.799 -48.070   9.992  1.00  0.00    -0.304 N 
HETATM   22  H   UNL     1     -42.148 -46.252   9.157  1.00  0.00     0.186 HD
ATOM     23  HN  UNL     1     -42.466 -48.660   9.494  1.00  0.00     0.186 HD
ENDBRANCH  15  16
ENDBRANCH   2  15
TORSDOF 6
ENDMDL
MODEL 7
REMARK VINA RESULT:      -5.2      4.658      7.511
REMARK  6 active torsions:
REMARK  status: ('A' for Active; 'I' for Inactive)
REMARK    1  A    between atoms: C_2  and  C_3 
REMARK    2  A    between atoms: C_3  and  C_4 
REMARK    3  A    between atoms: C_6  and  N_11 
REMARK    4  A    between atoms: C_8  and  O_9 
REMARK       I    between atoms: N_11  and  C_12 
REMARK    5  A    between atoms: C_12  and  C_14 
REMARK    6  A    between atoms: C_14  and  C_15 
ROOT
HETATM    1  N   UNL     1     -39.891 -47.568  11.047  1.00  0.00    -0.355 N 
HETATM    2  C   UNL     1     -39.957 -48.586  11.982  1.00  0.00     0.223 C 
HETATM    3  O   UNL     1     -40.145 -48.393  13.182  1.00  0.00    -0.273 OA
HETATM    4  H   UNL     1     -39.601 -47.825  10.109  1.00  0.00     0.162 HD
ENDROOT
BRANCH   1   5
HETATM    5  C   UNL     1     -40.043 -46.152  11.422  1.00  0.00     0.097 C 
HETATM    6  C   UNL     1     -41.492 -45.547  11.274  1.00  0.00     0.006 C 
HETATM    7  C   UNL     1     -40.740 -44.222  10.823  1.00  0.00     0.133 C 
HETATM    8  C   UNL     1     -39.578 -45.143  10.351  1.00  0.00     0.058 C 
BRANCH   6   9
HETATM    9  C   UNL     1     -42.234 -45.449  12.621  1.00  0.00     0.009 C 
HETATM   10  C   UNL     1     -41.311 -45.480  13.828  1.00  0.00     0.006 C 
ENDBRANCH   6   9
BRANCH   6  11
HETATM   11  C   UNL     1     -42.352 -46.174  10.141  1.00  0.00     0.009 C 
HETATM   12  C   UNL     1     -43.400 -47.159  10.638  1.00  0.00     0.006 C 
ENDBRANCH   6  11
BRANCH   7  13
HETATM   13  O   UNL     1     -40.315 -43.288  11.847  1.00  0.00    -0.390 OA
HETATM   14  C   UNL     1     -40.835 -41.969  11.802  1.00  0.00     0.202 C 
ENDBRANCH   7  13
ENDBRANCH   1   5
BRANCH   2  15
HETATM   15  C   UNL     1     -39.790 -49.978  11.413  1.00  0.00     0.161 C 
BRANCH  15  16
HETATM   16  C   UNL     1     -40.904 -50.871  11.831  1.00  0.00     0.036 A 
HETATM   17  C   UNL     1     -40.837 -52.227  12.226  1.00  0.00     0.053 A 
HETATM   18  C   UNL     1     -42.123 -52.559  12.586  1.00  0.00     0.024 A 
HETATM   19  C   UNL     1     -42.708 -53.810  13.116  1.00  0.00     0.070 C 
HETATM   20  N   UNL     1     -42.869 -51.433  12.378  1.00  0.00    -0.305 N 
HETATM   21  N   UNL     1     -42.155 -50.397  11.909  1.00  0.00    -0.304 N 
HETATM   22  H   UNL     1     -43.861 -51.299  12.543  1.00  0.00     0.186 HD
ATOM     23  HN  UNL     1     -42.490 -49.464  11.667  1.00  0.00     0.186 HD
ENDBRANCH  15  16
ENDBRANCH   2  15
TORSDOF 6
ENDMDL
MODEL 8
REMARK VINA RESULT:      -5.2      3.611      5.447
REMARK  6 active torsions:
REMARK  status: ('A' for Active; 'I' for Inactive)
REMARK    1  A    between atoms: C_2  and  C_3 
REMARK    2  A    between atoms: C_3  and  C_4 
REMARK    3  A    between atoms: C_6  and  N_11 
REMARK    4  A    between atoms: C_8  and  O_9 
REMARK       I    between atoms: N_11  and  C_12 
REMARK    5  A    between atoms: C_12  and  C_14 
REMARK    6  A    between atoms: C_14  and  C_15 
ROOT
HETATM    1  N   UNL     1     -38.942 -51.214  13.992  1.00  0.00    -0.355 N 
HETATM    2  C   UNL     1     -38.084 -50.812  12.983  1.00  0.00     0.223 C 
HETATM    3  O   UNL     1     -37.298 -51.572  12.420  1.00  0.00    -0.273 OA
HETATM    4  H   UNL     1     -39.452 -50.483  14.479  1.00  0.00     0.162 HD
ENDROOT
BRANCH   1   5
HETATM    5  C   UNL     1     -38.982 -52.604  14.477  1.00  0.00     0.097 C 
HETATM    6  C   UNL     1     -40.410 -53.266  14.569  1.00  0.00     0.006 C 
HETATM    7  C   UNL     1     -39.843 -53.973  15.874  1.00  0.00     0.133 C 
HETATM    8  C   UNL     1     -38.877 -52.761  16.008  1.00  0.00     0.058 C 
BRANCH   6   9
HETATM    9  C   UNL     1     -40.702 -54.213  13.389  1.00  0.00     0.009 C 
HETATM   10  C   UNL     1     -41.202 -53.498  12.144  1.00  0.00     0.006 C 
ENDBRANCH   6   9
BRANCH   6  11
HETATM   11  C   UNL     1     -41.572 -52.278  14.868  1.00  0.00     0.009 C 
HETATM   12  C   UNL     1     -42.762 -52.921  15.566  1.00  0.00     0.006 C 
ENDBRANCH   6  11
BRANCH   7  13
HETATM   13  O   UNL     1     -39.130 -55.226  15.725  1.00  0.00    -0.390 OA
HETATM   14  C   UNL     1     -39.374 -56.248  16.679  1.00  0.00     0.202 C 
ENDBRANCH   7  13
ENDBRANCH   1   5
BRANCH   2  15
HETATM   15  C   UNL     1     -38.190 -49.350  12.609  1.00  0.00     0.161 C 
BRANCH  15  16
HETATM   16  C   UNL     1     -39.398 -49.091  11.780  1.00  0.00     0.036 A 
HETATM   17  C   UNL     1     -40.243 -47.957  11.796  1.00  0.00     0.053 A 
HETATM   18  C   UNL     1     -41.157 -48.177  10.791  1.00  0.00     0.024 A 
HETATM   19  C   UNL     1     -42.277 -47.359  10.279  1.00  0.00     0.070 C 
HETATM   20  N   UNL     1     -40.836 -49.393  10.258  1.00  0.00    -0.305 N 
HETATM   21  N   UNL     1     -39.779 -49.975  10.847  1.00  0.00    -0.304 N 
HETATM   22  H   UNL     1     -41.286 -49.880   9.489  1.00  0.00     0.186 HD
ATOM     23  HN  UNL     1     -39.362 -50.882  10.634  1.00  0.00     0.186 HD
ENDBRANCH  15  16
ENDBRANCH   2  15
TORSDOF 6
ENDMDL
MODEL 9
REMARK VINA RESULT:      -5.2      4.012      6.570
REMARK  6 active torsions:
REMARK  status: ('A' for Active; 'I' for Inactive)
REMARK    1  A    between atoms: C_2  and  C_3 
REMARK    2  A    between atoms: C_3  and  C_4 
REMARK    3  A    between atoms: C_6  and  N_11 
REMARK    4  A    between atoms: C_8  and  O_9 
REMARK       I    between atoms: N_11  and  C_12 
REMARK    5  A    between atoms: C_12  and  C_14 
REMARK    6  A    between atoms: C_14  and  C_15 
ROOT
HETATM    1  N   UNL     1     -42.127 -49.787  11.673  1.00  0.00    -0.355 N 
HETATM    2  C   UNL     1     -42.844 -48.703  12.147  1.00  0.00     0.223 C 
HETATM    3  O   UNL     1     -43.085 -48.518  13.339  1.00  0.00    -0.273 OA
HETATM    4  H   UNL     1     -42.099 -49.914  10.667  1.00  0.00     0.162 HD
ENDROOT
BRANCH   1   5
HETATM    5  C   UNL     1     -41.589 -50.822  12.574  1.00  0.00     0.097 C 
HETATM    6  C   UNL     1     -40.066 -50.684  12.957  1.00  0.00     0.006 C 
HETATM    7  C   UNL     1     -40.051 -52.271  12.894  1.00  0.00     0.133 C 
HETATM    8  C   UNL     1     -41.233 -52.158  11.888  1.00  0.00     0.058 C 
BRANCH   6   9
HETATM    9  C   UNL     1     -39.860 -50.085  14.362  1.00  0.00     0.009 C 
HETATM   10  C   UNL     1     -39.740 -48.570  14.366  1.00  0.00     0.006 C 
ENDBRANCH   6   9
BRANCH   6  11
HETATM   11  C   UNL     1     -39.174 -50.023  11.870  1.00  0.00     0.009 C 
HETATM   12  C   UNL     1     -37.720 -50.471  11.912  1.00  0.00     0.006 C 
ENDBRANCH   6  11
BRANCH   7  13
HETATM   13  O   UNL     1     -40.416 -53.012  14.085  1.00  0.00    -0.390 OA
HETATM   14  C   UNL     1     -39.563 -54.066  14.501  1.00  0.00     0.202 C 
ENDBRANCH   7  13
ENDBRANCH   1   5
BRANCH   2  15
HETATM   15  C   UNL     1     -43.308 -47.737  11.079  1.00  0.00     0.161 C 
BRANCH  15  16
HETATM   16  C   UNL     1     -42.304 -46.664  10.846  1.00  0.00     0.036 A 
HETATM   17  C   UNL     1     -42.280 -45.357  11.385  1.00  0.00     0.053 A 
HETATM   18  C   UNL     1     -41.109 -44.801  10.923  1.00  0.00     0.024 A 
HETATM   19  C   UNL     1     -40.486 -43.479  11.151  1.00  0.00     0.070 C 
HETATM   20  N   UNL     1     -40.524 -45.761  10.147  1.00  0.00    -0.305 N 
HETATM   21  N   UNL     1     -41.234 -46.898  10.073  1.00  0.00    -0.304 N 
HETATM   22  H   UNL     1     -39.641 -45.713   9.647  1.00  0.00     0.186 HD
ATOM     23  HN  UNL     1     -41.010 -47.745   9.550  1.00  0.00     0.186 HD
ENDBRANCH  15  16
ENDBRANCH   2  15
TORSDOF 6
ENDMDL
