MODEL 1
REMARK VINA RESULT:      -6.6      0.000      0.000
REMARK  4 active torsions:
REMARK  status: ('A' for Active; 'I' for Inactive)
REMARK    1  A    between atoms: C_6  and  N_7 
REMARK       I    between atoms: N_7  and  C_8 
REMARK       I    between atoms: C_8  and  N_10 
REMARK    2  A    between atoms: N_10  and  C_11 
REMARK    3  A    between atoms: C_11  and  C_12 
REMARK    4  A    between atoms: C_17  and  O_18 
ROOT
HETATM    1  N   UNL     1     -40.686 -50.950  11.216  1.00  0.00    -0.295 N 
HETATM    2  C   UNL     1     -41.346 -51.783  12.088  1.00  0.00     0.321 C 
HETATM    3  O   UNL     1     -41.157 -52.995  12.051  1.00  0.00    -0.247 OA
HETATM    4  N   UNL     1     -42.248 -51.178  12.910  1.00  0.00    -0.342 N 
HETATM    5  H   UNL     1     -40.133 -51.434  10.524  1.00  0.00     0.172 HD
HETATM    6  H   UNL     1     -42.277 -50.164  12.833  1.00  0.00     0.164 HD
ENDROOT
BRANCH   1   7
HETATM    7  C   UNL     1     -40.777 -49.553  11.170  1.00  0.00     0.109 A 
HETATM    8  C   UNL     1     -39.820 -48.777  11.801  1.00  0.00     0.049 A 
HETATM    9  C   UNL     1     -39.908 -47.388  11.658  1.00  0.00     0.006 A 
HETATM   10  C   UNL     1     -40.961 -46.822  10.943  1.00  0.00     0.025 A 
HETATM   11  C   UNL     1     -41.899 -47.665  10.383  1.00  0.00     0.007 A 
HETATM   12  C   UNL     1     -43.123 -47.171   9.668  1.00  0.00     0.068 C 
HETATM   13  N   UNL     1     -41.798 -49.003  10.480  1.00  0.00    -0.346 N 
ATOM     14  HN  UNL     1     -42.493 -49.601  10.032  1.00  0.00     0.167 HD
ENDBRANCH   1   7
BRANCH   4  15
HETATM   15  C   UNL     1     -43.199 -51.821  13.780  1.00  0.00     0.131 C 
BRANCH  15  16
HETATM   16  C   UNL     1     -44.615 -51.846  13.179  1.00  0.00     0.032 C 
HETATM   17  C   UNL     1     -45.686 -51.188  14.088  1.00  0.00     0.009 C 
HETATM   18  C   UNL     1     -46.327 -52.104  15.135  1.00  0.00     0.001 C 
HETATM   19  C   UNL     1     -46.745 -53.448  14.555  1.00  0.00     0.002 C 
HETATM   20  C   UNL     1     -45.560 -54.124  13.888  1.00  0.00     0.032 C 
HETATM   21  C   UNL     1     -45.041 -53.263  12.738  1.00  0.00     0.123 C 
BRANCH  21  22
HETATM   22  O   UNL     1     -43.994 -53.956  12.069  1.00  0.00    -0.395 OA
HETATM   23  H   UNL     1     -43.521 -54.512  12.710  1.00  0.00     0.210 HD
ENDBRANCH  21  22
ENDBRANCH  15  16
ENDBRANCH   4  15
TORSDOF 4
ENDMDL
MODEL 2
REMARK VINA RESULT:      -6.4      1.628      2.329
REMARK  4 active torsions:
REMARK  status: ('A' for Active; 'I' for Inactive)
REMARK    1  A    between atoms: C_6  and  N_7 
REMARK       I    between atoms: N_7  and  C_8 
REMARK       I    between atoms: C_8  and  N_10 
REMARK    2  A    between atoms: N_10  and  C_11 
REMARK    3  A    between atoms: C_11  and  C_12 
REMARK    4  A    between atoms: C_17  and  O_18 
ROOT
HETATM    1  N   UNL     1     -40.407 -49.322  11.098  1.00  0.00    -0.295 N 
HETATM    2  C   UNL     1     -40.531 -50.574  11.651  1.00  0.00     0.321 C 
HETATM    3  O   UNL     1     -39.533 -51.235  11.920  1.00  0.00    -0.247 OA
HETATM    4  N   UNL     1     -41.808 -51.029  11.797  1.00  0.00    -0.342 N 
HETATM    5  H   UNL     1     -39.457 -49.066  10.868  1.00  0.00     0.172 HD
HETATM    6  H   UNL     1     -42.527 -50.356  11.544  1.00  0.00     0.164 HD
ENDROOT
BRANCH   1   7
HETATM    7  C   UNL     1     -41.453 -48.447  10.776  1.00  0.00     0.109 A 
HETATM    8  C   UNL     1     -41.909 -47.540  11.717  1.00  0.00     0.049 A 
HETATM    9  C   UNL     1     -42.898 -46.633  11.323  1.00  0.00     0.006 A 
HETATM   10  C   UNL     1     -43.430 -46.690  10.037  1.00  0.00     0.025 A 
HETATM   11  C   UNL     1     -42.951 -47.655   9.173  1.00  0.00     0.007 A 
HETATM   12  C   UNL     1     -43.506 -47.871   7.796  1.00  0.00     0.068 C 
HETATM   13  N   UNL     1     -41.970 -48.503   9.531  1.00  0.00    -0.346 N 
ATOM     14  HN  UNL     1     -41.618 -49.187   8.862  1.00  0.00     0.167 HD
ENDBRANCH   1   7
BRANCH   4  15
HETATM   15  C   UNL     1     -42.219 -52.357  12.170  1.00  0.00     0.131 C 
BRANCH  15  16
HETATM   16  C   UNL     1     -43.008 -52.373  13.491  1.00  0.00     0.032 C 
HETATM   17  C   UNL     1     -42.318 -53.191  14.614  1.00  0.00     0.009 C 
HETATM   18  C   UNL     1     -42.632 -54.691  14.637  1.00  0.00     0.001 C 
HETATM   19  C   UNL     1     -44.119 -54.977  14.483  1.00  0.00     0.002 C 
HETATM   20  C   UNL     1     -44.652 -54.325  13.219  1.00  0.00     0.032 C 
HETATM   21  C   UNL     1     -44.476 -52.810  13.294  1.00  0.00     0.123 C 
BRANCH  21  22
HETATM   22  O   UNL     1     -45.065 -52.212  12.145  1.00  0.00    -0.395 OA
HETATM   23  H   UNL     1     -45.580 -52.884  11.668  1.00  0.00     0.210 HD
ENDBRANCH  21  22
ENDBRANCH  15  16
ENDBRANCH   4  15
TORSDOF 4
ENDMDL
MODEL 3
REMARK VINA RESULT:      -6.1      2.175      6.202
REMARK  4 active torsions:
REMARK  status: ('A' for Active; 'I' for Inactive)
REMARK    1  A    between atoms: C_6  and  N_7 
REMARK       I    between atoms: N_7  and  C_8 
REMARK       I    between atoms: C_8  and  N_10 
REMARK    2  A    between atoms: N_10  and  C_11 
REMARK    3  A    between atoms: C_11  and  C_12 
REMARK    4  A    between atoms: C_17  and  O_18 
ROOT
HETATM    1  N   UNL     1     -43.190 -53.198  12.543  1.00  0.00    -0.295 N 
HETATM    2  C   UNL     1     -42.071 -52.479  12.198  1.00  0.00     0.321 C 
HETATM    3  O   UNL     1     -41.054 -53.057  11.826  1.00  0.00    -0.247 OA
HETATM    4  N   UNL     1     -42.161 -51.131  12.370  1.00  0.00    -0.342 N 
HETATM    5  H   UNL     1     -43.053 -54.199  12.544  1.00  0.00     0.172 HD
HETATM    6  H   UNL     1     -43.076 -50.803  12.668  1.00  0.00     0.164 HD
ENDROOT
BRANCH   1   7
HETATM    7  C   UNL     1     -44.425 -52.672  12.946  1.00  0.00     0.109 A 
HETATM    8  C   UNL     1     -44.665 -52.423  14.286  1.00  0.00     0.049 A 
HETATM    9  C   UNL     1     -45.881 -51.823  14.630  1.00  0.00     0.006 A 
HETATM   10  C   UNL     1     -46.827 -51.541  13.648  1.00  0.00     0.025 A 
HETATM   11  C   UNL     1     -46.527 -51.863  12.339  1.00  0.00     0.007 A 
HETATM   12  C   UNL     1     -47.498 -51.690  11.209  1.00  0.00     0.068 C 
HETATM   13  N   UNL     1     -45.343 -52.401  11.995  1.00  0.00    -0.346 N 
ATOM     14  HN  UNL     1     -45.140 -52.603  11.016  1.00  0.00     0.167 HD
ENDBRANCH   1   7
BRANCH   4  15
HETATM   15  C   UNL     1     -41.095 -50.168  12.266  1.00  0.00     0.131 C 
BRANCH  15  16
HETATM   16  C   UNL     1     -40.148 -50.214  13.477  1.00  0.00     0.032 C 
HETATM   17  C   UNL     1     -40.249 -48.963  14.389  1.00  0.00     0.009 C 
HETATM   18  C   UNL     1     -39.367 -47.775  13.994  1.00  0.00     0.001 C 
HETATM   19  C   UNL     1     -37.940 -48.192  13.667  1.00  0.00     0.002 C 
HETATM   20  C   UNL     1     -37.939 -49.259  12.586  1.00  0.00     0.032 C 
HETATM   21  C   UNL     1     -38.686 -50.500  13.071  1.00  0.00     0.123 C 
BRANCH  21  22
HETATM   22  O   UNL     1     -38.593 -51.519  12.082  1.00  0.00    -0.395 OA
HETATM   23  H   UNL     1     -37.663 -51.780  11.983  1.00  0.00     0.210 HD
ENDBRANCH  21  22
ENDBRANCH  15  16
ENDBRANCH   4  15
TORSDOF 4
ENDMDL
MODEL 4
REMARK VINA RESULT:      -6.0      3.866      6.878
REMARK  4 active torsions:
REMARK  status: ('A' for Active; 'I' for Inactive)
REMARK    1  A    between atoms: C_6  and  N_7 
REMARK       I    between atoms: N_7  and  C_8 
REMARK       I    between atoms: C_8  and  N_10 
REMARK    2  A    between atoms: N_10  and  C_11 
REMARK    3  A    between atoms: C_11  and  C_12 
REMARK    4  A    between atoms: C_17  and  O_18 
ROOT
HETATM    1  N   UNL     1     -46.663 -52.855  13.856  1.00  0.00    -0.295 N 
HETATM    2  C   UNL     1     -45.572 -52.833  13.021  1.00  0.00     0.321 C 
HETATM    3  O   UNL     1     -45.701 -53.083  11.826  1.00  0.00    -0.247 OA
HETATM    4  N   UNL     1     -44.374 -52.593  13.624  1.00  0.00    -0.342 N 
HETATM    5  H   UNL     1     -47.513 -53.174  13.415  1.00  0.00     0.172 HD
HETATM    6  H   UNL     1     -44.435 -52.387  14.617  1.00  0.00     0.164 HD
ENDROOT
BRANCH   1   7
HETATM    7  C   UNL     1     -46.669 -52.556  15.225  1.00  0.00     0.109 A 
HETATM    8  C   UNL     1     -47.219 -51.366  15.669  1.00  0.00     0.049 A 
HETATM    9  C   UNL     1     -47.276 -51.149  17.050  1.00  0.00     0.006 A 
HETATM   10  C   UNL     1     -46.743 -52.088  17.930  1.00  0.00     0.025 A 
HETATM   11  C   UNL     1     -46.171 -53.229  17.403  1.00  0.00     0.007 A 
HETATM   12  C   UNL     1     -45.489 -54.268  18.243  1.00  0.00     0.068 C 
HETATM   13  N   UNL     1     -46.152 -53.464  16.079  1.00  0.00    -0.346 N 
ATOM     14  HN  UNL     1     -45.746 -54.329  15.720  1.00  0.00     0.167 HD
ENDBRANCH   1   7
BRANCH   4  15
HETATM   15  C   UNL     1     -43.067 -52.695  13.029  1.00  0.00     0.131 C 
BRANCH  15  16
HETATM   16  C   UNL     1     -42.455 -54.096  13.201  1.00  0.00     0.032 C 
HETATM   17  C   UNL     1     -42.713 -54.718  14.599  1.00  0.00     0.009 C 
HETATM   18  C   UNL     1     -41.697 -54.357  15.687  1.00  0.00     0.001 C 
HETATM   19  C   UNL     1     -40.258 -54.484  15.207  1.00  0.00     0.002 C 
HETATM   20  C   UNL     1     -40.046 -53.645  13.959  1.00  0.00     0.032 C 
HETATM   21  C   UNL     1     -40.956 -54.133  12.833  1.00  0.00     0.123 C 
BRANCH  21  22
HETATM   22  O   UNL     1     -40.674 -53.397  11.649  1.00  0.00    -0.395 OA
HETATM   23  H   UNL     1     -40.695 -54.001  10.888  1.00  0.00     0.210 HD
ENDBRANCH  21  22
ENDBRANCH  15  16
ENDBRANCH   4  15
TORSDOF 4
ENDMDL
MODEL 5
REMARK VINA RESULT:      -5.8      1.533      2.358
REMARK  4 active torsions:
REMARK  status: ('A' for Active; 'I' for Inactive)
REMARK    1  A    between atoms: C_6  and  N_7 
REMARK       I    between atoms: N_7  and  C_8 
REMARK       I    between atoms: C_8  and  N_10 
REMARK    2  A    between atoms: N_10  and  C_11 
REMARK    3  A    between atoms: C_11  and  C_12 
REMARK    4  A    between atoms: C_17  and  O_18 
ROOT
HETATM    1  N   UNL     1     -42.074 -52.254  11.657  1.00  0.00    -0.295 N 
HETATM    2  C   UNL     1     -42.938 -52.720  12.618  1.00  0.00     0.321 C 
HETATM    3  O   UNL     1     -43.640 -53.702  12.397  1.00  0.00    -0.247 OA
HETATM    4  N   UNL     1     -42.999 -51.983  13.762  1.00  0.00    -0.342 N 
HETATM    5  H   UNL     1     -42.150 -52.729  10.769  1.00  0.00     0.172 HD
HETATM    6  H   UNL     1     -42.341 -51.208  13.801  1.00  0.00     0.164 HD
ENDROOT
BRANCH   1   7
HETATM    7  C   UNL     1     -41.191 -51.173  11.785  1.00  0.00     0.109 A 
HETATM    8  C   UNL     1     -39.961 -51.354  12.392  1.00  0.00     0.049 A 
HETATM    9  C   UNL     1     -39.082 -50.266  12.423  1.00  0.00     0.006 A 
HETATM   10  C   UNL     1     -39.471 -49.035  11.901  1.00  0.00     0.025 A 
HETATM   11  C   UNL     1     -40.734 -48.927  11.353  1.00  0.00     0.007 A 
HETATM   12  C   UNL     1     -41.297 -47.634  10.841  1.00  0.00     0.068 C 
HETATM   13  N   UNL     1     -41.568 -49.979  11.281  1.00  0.00    -0.346 N 
ATOM     14  HN  UNL     1     -42.484 -49.875  10.846  1.00  0.00     0.167 HD
ENDBRANCH   1   7
BRANCH   4  15
HETATM   15  C   UNL     1     -43.938 -52.133  14.843  1.00  0.00     0.131 C 
BRANCH  15  16
HETATM   16  C   UNL     1     -44.964 -50.987  14.887  1.00  0.00     0.032 C 
HETATM   17  C   UNL     1     -45.118 -50.347  16.292  1.00  0.00     0.009 C 
HETATM   18  C   UNL     1     -46.127 -51.023  17.226  1.00  0.00     0.001 C 
HETATM   19  C   UNL     1     -47.448 -51.328  16.535  1.00  0.00     0.002 C 
HETATM   20  C   UNL     1     -47.208 -52.165  15.291  1.00  0.00     0.032 C 
HETATM   21  C   UNL     1     -46.332 -51.399  14.301  1.00  0.00     0.123 C 
BRANCH  21  22
HETATM   22  O   UNL     1     -46.197 -52.161  13.107  1.00  0.00    -0.395 OA
HETATM   23  H   UNL     1     -46.499 -51.626  12.354  1.00  0.00     0.210 HD
ENDBRANCH  21  22
ENDBRANCH  15  16
ENDBRANCH   4  15
TORSDOF 4
ENDMDL
MODEL 6
REMARK VINA RESULT:      -5.8      1.966      6.192
REMARK  4 active torsions:
REMARK  status: ('A' for Active; 'I' for Inactive)
REMARK    1  A    between atoms: C_6  and  N_7 
REMARK       I    between atoms: N_7  and  C_8 
REMARK       I    between atoms: C_8  and  N_10 
REMARK    2  A    between atoms: N_10  and  C_11 
REMARK    3  A    between atoms: C_11  and  C_12 
REMARK    4  A    between atoms: C_17  and  O_18 
ROOT
HETATM    1  N   UNL     1     -43.063 -53.045  12.585  1.00  0.00    -0.295 N 
HETATM    2  C   UNL     1     -42.031 -52.285  12.090  1.00  0.00     0.321 C 
HETATM    3  O   UNL     1     -40.984 -52.816  11.735  1.00  0.00    -0.247 OA
HETATM    4  N   UNL     1     -42.237 -50.938  12.098  1.00  0.00    -0.342 N 
HETATM    5  H   UNL     1     -42.835 -54.022  12.702  1.00  0.00     0.172 HD
HETATM    6  H   UNL     1     -43.164 -50.654  12.405  1.00  0.00     0.164 HD
ENDROOT
BRANCH   1   7
HETATM    7  C   UNL     1     -44.321 -52.579  12.989  1.00  0.00     0.109 A 
HETATM    8  C   UNL     1     -44.568 -52.333  14.329  1.00  0.00     0.049 A 
HETATM    9  C   UNL     1     -45.811 -51.792  14.674  1.00  0.00     0.006 A 
HETATM   10  C   UNL     1     -46.774 -51.564  13.694  1.00  0.00     0.025 A 
HETATM   11  C   UNL     1     -46.463 -51.880  12.386  1.00  0.00     0.007 A 
HETATM   12  C   UNL     1     -47.446 -51.763  11.259  1.00  0.00     0.068 C 
HETATM   13  N   UNL     1     -45.256 -52.360  12.041  1.00  0.00    -0.346 N 
ATOM     14  HN  UNL     1     -45.046 -52.559  11.062  1.00  0.00     0.167 HD
ENDBRANCH   1   7
BRANCH   4  15
HETATM   15  C   UNL     1     -41.270 -49.910  11.815  1.00  0.00     0.131 C 
BRANCH  15  16
HETATM   16  C   UNL     1     -41.701 -48.537  12.358  1.00  0.00     0.032 C 
HETATM   17  C   UNL     1     -42.958 -47.959  11.655  1.00  0.00     0.009 C 
HETATM   18  C   UNL     1     -42.697 -47.151  10.380  1.00  0.00     0.001 C 
HETATM   19  C   UNL     1     -41.562 -46.150  10.546  1.00  0.00     0.002 C 
HETATM   20  C   UNL     1     -40.302 -46.858  11.013  1.00  0.00     0.032 C 
HETATM   21  C   UNL     1     -40.541 -47.518  12.370  1.00  0.00     0.123 C 
BRANCH  21  22
HETATM   22  O   UNL     1     -39.325 -48.093  12.833  1.00  0.00    -0.395 OA
HETATM   23  H   UNL     1     -38.611 -47.440  12.742  1.00  0.00     0.210 HD
ENDBRANCH  21  22
ENDBRANCH  15  16
ENDBRANCH   4  15
TORSDOF 4
ENDMDL
MODEL 7
REMARK VINA RESULT:      -5.5      3.807      4.604
REMARK  4 active torsions:
REMARK  status: ('A' for Active; 'I' for Inactive)
REMARK    1  A    between atoms: C_6  and  N_7 
REMARK       I    between atoms: N_7  and  C_8 
REMARK       I    between atoms: C_8  and  N_10 
REMARK    2  A    between atoms: N_10  and  C_11 
REMARK    3  A    between atoms: C_11  and  C_12 
REMARK    4  A    between atoms: C_17  and  O_18 
ROOT
HETATM    1  N   UNL     1     -38.423 -50.367  11.497  1.00  0.00    -0.295 N 
HETATM    2  C   UNL     1     -37.988 -51.120  12.561  1.00  0.00     0.321 C 
HETATM    3  O   UNL     1     -36.974 -51.805  12.462  1.00  0.00    -0.247 OA
HETATM    4  N   UNL     1     -38.789 -51.100  13.663  1.00  0.00    -0.342 N 
HETATM    5  H   UNL     1     -37.894 -50.509  10.648  1.00  0.00     0.172 HD
HETATM    6  H   UNL     1     -39.584 -50.469  13.595  1.00  0.00     0.164 HD
ENDROOT
BRANCH   1   7
HETATM    7  C   UNL     1     -39.535 -49.515  11.480  1.00  0.00     0.109 A 
HETATM    8  C   UNL     1     -40.812 -50.044  11.558  1.00  0.00     0.049 A 
HETATM    9  C   UNL     1     -41.886 -49.149  11.620  1.00  0.00     0.006 A 
HETATM   10  C   UNL     1     -41.660 -47.777  11.551  1.00  0.00     0.025 A 
HETATM   11  C   UNL     1     -40.358 -47.333  11.428  1.00  0.00     0.007 A 
HETATM   12  C   UNL     1     -39.998 -45.887  11.256  1.00  0.00     0.068 C 
HETATM   13  N   UNL     1     -39.318 -48.184  11.411  1.00  0.00    -0.346 N 
ATOM     14  HN  UNL     1     -38.366 -47.825  11.346  1.00  0.00     0.167 HD
ENDBRANCH   1   7
BRANCH   4  15
HETATM   15  C   UNL     1     -38.675 -51.928  14.835  1.00  0.00     0.131 C 
BRANCH  15  16
HETATM   16  C   UNL     1     -39.806 -52.966  14.928  1.00  0.00     0.032 C 
HETATM   17  C   UNL     1     -40.512 -52.990  16.309  1.00  0.00     0.009 C 
HETATM   18  C   UNL     1     -39.869 -53.887  17.372  1.00  0.00     0.001 C 
HETATM   19  C   UNL     1     -39.511 -55.265  16.833  1.00  0.00     0.002 C 
HETATM   20  C   UNL     1     -38.618 -55.135  15.612  1.00  0.00     0.032 C 
HETATM   21  C   UNL     1     -39.347 -54.377  14.503  1.00  0.00     0.123 C 
BRANCH  21  22
HETATM   22  O   UNL     1     -38.529 -54.349  13.339  1.00  0.00    -0.395 OA
HETATM   23  H   UNL     1     -39.097 -54.269  12.555  1.00  0.00     0.210 HD
ENDBRANCH  21  22
ENDBRANCH  15  16
ENDBRANCH   4  15
TORSDOF 4
ENDMDL
MODEL 8
REMARK VINA RESULT:      -5.4      3.937      5.444
REMARK  4 active torsions:
REMARK  status: ('A' for Active; 'I' for Inactive)
REMARK    1  A    between atoms: C_6  and  N_7 
REMARK       I    between atoms: N_7  and  C_8 
REMARK       I    between atoms: C_8  and  N_10 
REMARK    2  A    between atoms: N_10  and  C_11 
REMARK    3  A    between atoms: C_11  and  C_12 
REMARK    4  A    between atoms: C_17  and  O_18 
ROOT
HETATM    1  N   UNL     1     -44.230 -54.538  13.935  1.00  0.00    -0.295 N 
HETATM    2  C   UNL     1     -44.894 -54.180  15.084  1.00  0.00     0.321 C 
HETATM    3  O   UNL     1     -45.885 -54.806  15.448  1.00  0.00    -0.247 OA
HETATM    4  N   UNL     1     -44.420 -53.070  15.716  1.00  0.00    -0.342 N 
HETATM    5  H   UNL     1     -44.683 -55.272  13.410  1.00  0.00     0.172 HD
HETATM    6  H   UNL     1     -43.581 -52.673  15.300  1.00  0.00     0.164 HD
ENDROOT
BRANCH   1   7
HETATM    7  C   UNL     1     -43.071 -53.940  13.423  1.00  0.00     0.109 A 
HETATM    8  C   UNL     1     -43.174 -52.901  12.514  1.00  0.00     0.049 A 
HETATM    9  C   UNL     1     -41.991 -52.283  12.094  1.00  0.00     0.006 A 
HETATM   10  C   UNL     1     -40.758 -52.746  12.547  1.00  0.00     0.025 A 
HETATM   11  C   UNL     1     -40.742 -53.817  13.418  1.00  0.00     0.007 A 
HETATM   12  C   UNL     1     -39.476 -54.460  13.904  1.00  0.00     0.068 C 
HETATM   13  N   UNL     1     -41.876 -54.389  13.860  1.00  0.00    -0.346 N 
ATOM     14  HN  UNL     1     -41.833 -55.162  14.524  1.00  0.00     0.167 HD
ENDBRANCH   1   7
BRANCH   4  15
HETATM   15  C   UNL     1     -45.028 -52.373  16.819  1.00  0.00     0.131 C 
BRANCH  15  16
HETATM   16  C   UNL     1     -45.692 -51.056  16.383  1.00  0.00     0.032 C 
HETATM   17  C   UNL     1     -45.453 -49.884  17.372  1.00  0.00     0.009 C 
HETATM   18  C   UNL     1     -46.450 -49.774  18.530  1.00  0.00     0.001 C 
HETATM   19  C   UNL     1     -47.895 -49.914  18.070  1.00  0.00     0.002 C 
HETATM   20  C   UNL     1     -48.079 -51.216  17.310  1.00  0.00     0.032 C 
HETATM   21  C   UNL     1     -47.193 -51.230  16.066  1.00  0.00     0.123 C 
BRANCH  21  22
HETATM   22  O   UNL     1     -47.450 -52.414  15.320  1.00  0.00    -0.395 OA
HETATM   23  H   UNL     1     -47.389 -52.211  14.372  1.00  0.00     0.210 HD
ENDBRANCH  21  22
ENDBRANCH  15  16
ENDBRANCH   4  15
TORSDOF 4
ENDMDL
MODEL 9
REMARK VINA RESULT:      -5.3      3.036      6.669
REMARK  4 active torsions:
REMARK  status: ('A' for Active; 'I' for Inactive)
REMARK    1  A    between atoms: C_6  and  N_7 
REMARK       I    between atoms: N_7  and  C_8 
REMARK       I    between atoms: C_8  and  N_10 
REMARK    2  A    between atoms: N_10  and  C_11 
REMARK    3  A    between atoms: C_11  and  C_12 
REMARK    4  A    between atoms: C_17  and  O_18 
ROOT
HETATM    1  N   UNL     1     -41.035 -51.737  11.352  1.00  0.00    -0.295 N 
HETATM    2  C   UNL     1     -40.546 -50.521  11.763  1.00  0.00     0.321 C 
HETATM    3  O   UNL     1     -39.898 -49.820  10.992  1.00  0.00    -0.247 OA
HETATM    4  N   UNL     1     -40.770 -50.208  13.071  1.00  0.00    -0.342 N 
HETATM    5  H   UNL     1     -40.735 -52.010  10.427  1.00  0.00     0.172 HD
HETATM    6  H   UNL     1     -41.338 -50.884  13.575  1.00  0.00     0.164 HD
ENDROOT
BRANCH   1   7
HETATM    7  C   UNL     1     -41.817 -52.619  12.109  1.00  0.00     0.109 A 
HETATM    8  C   UNL     1     -41.208 -53.580  12.898  1.00  0.00     0.049 A 
HETATM    9  C   UNL     1     -42.028 -54.383  13.697  1.00  0.00     0.006 A 
HETATM   10  C   UNL     1     -43.412 -54.240  13.648  1.00  0.00     0.025 A 
HETATM   11  C   UNL     1     -43.942 -53.288  12.801  1.00  0.00     0.007 A 
HETATM   12  C   UNL     1     -45.417 -53.101  12.596  1.00  0.00     0.068 C 
HETATM   13  N   UNL     1     -43.159 -52.483  12.061  1.00  0.00    -0.346 N 
ATOM     14  HN  UNL     1     -43.579 -51.770  11.464  1.00  0.00     0.167 HD
ENDBRANCH   1   7
BRANCH   4  15
HETATM   15  C   UNL     1     -40.219 -49.100  13.806  1.00  0.00     0.131 C 
BRANCH  15  16
HETATM   16  C   UNL     1     -39.101 -49.536  14.768  1.00  0.00     0.032 C 
HETATM   17  C   UNL     1     -39.296 -49.021  16.218  1.00  0.00     0.009 C 
HETATM   18  C   UNL     1     -38.735 -47.627  16.513  1.00  0.00     0.001 C 
HETATM   19  C   UNL     1     -37.324 -47.440  15.972  1.00  0.00     0.002 C 
HETATM   20  C   UNL     1     -37.289 -47.742  14.484  1.00  0.00     0.032 C 
HETATM   21  C   UNL     1     -37.695 -49.193  14.231  1.00  0.00     0.123 C 
BRANCH  21  22
HETATM   22  O   UNL     1     -37.564 -49.480  12.844  1.00  0.00    -0.395 OA
HETATM   23  H   UNL     1     -38.326 -50.009  12.556  1.00  0.00     0.210 HD
ENDBRANCH  21  22
ENDBRANCH  15  16
ENDBRANCH   4  15
TORSDOF 4
ENDMDL
