MODEL 1
REMARK VINA RESULT:      -6.5      0.000      0.000
REMARK  7 active torsions:
REMARK  status: ('A' for Active; 'I' for Inactive)
REMARK    1  A    between atoms: C_2  and  N_3 
REMARK    2  A    between atoms: N_3  and  C_4 
REMARK       I    between atoms: N_3  and  C_10 
REMARK    3  A    between atoms: C_10  and  C_12 
REMARK    4  A    between atoms: C_12  and  N_13 
REMARK    5  A    between atoms: N_13  and  C_14 
REMARK    6  A    between atoms: C_14  and  C_15 
REMARK    7  A    between atoms: C_15  and  N_16 
ROOT
HETATM    1  C   UNL     1     -41.791 -50.370  12.596  1.00  0.00     0.372 C 
ENDROOT
BRANCH   1   2
HETATM    2  C   UNL     1     -42.267 -51.831  12.594  1.00  0.00     0.248 C 
HETATM    3  N   UNL     1     -43.604 -52.108  12.968  1.00  0.00    -0.346 N 
HETATM    4  O   UNL     1     -41.502 -52.722  12.210  1.00  0.00    -0.271 OA
BRANCH   3   5
HETATM    5  C   UNL     1     -44.048 -53.485  12.750  1.00  0.00     0.122 C 
HETATM    6  C   UNL     1     -43.857 -54.369  13.973  1.00  0.00     0.026 C 
ENDBRANCH   3   5
BRANCH   3   7
HETATM    7  C   UNL     1     -44.568 -51.082  13.457  1.00  0.00     0.087 C 
HETATM    8  C   UNL     1     -44.536 -50.733  14.961  1.00  0.00     0.025 C 
HETATM    9  C   UNL     1     -45.494 -51.501  15.871  1.00  0.00     0.002 C 
HETATM   10  C   UNL     1     -46.881 -51.675  15.270  1.00  0.00     0.000 C 
HETATM   11  C   UNL     1     -46.810 -52.253  13.864  1.00  0.00     0.002 C 
HETATM   12  C   UNL     1     -45.996 -51.345  12.947  1.00  0.00     0.025 C 
ENDBRANCH   3   7
ENDBRANCH   1   2
BRANCH   1  13
HETATM   13  N   UNL     1     -42.162 -49.687  11.340  1.00  0.00     0.093 N 
HETATM   14  H   UNL     1     -43.029 -49.171  11.518  1.00  0.00     0.316 HD
BRANCH  13  15
HETATM   15  C   UNL     1     -41.102 -48.756  10.908  1.00  0.00     0.291 C 
BRANCH  15  16
HETATM   16  C   UNL     1     -41.637 -47.360  10.559  1.00  0.00     0.178 C 
BRANCH  16  17
HETATM   17  N   UNL     1     -42.837 -47.409   9.752  1.00  0.00    -0.302 N 
HETATM   18  C   UNL     1     -44.109 -47.134  10.160  1.00  0.00     0.118 A 
HETATM   19  C   UNL     1     -44.931 -47.440   9.096  1.00  0.00    -0.028 A 
HETATM   20  C   UNL     1     -46.403 -47.336   9.018  1.00  0.00     0.051 C 
HETATM   21  C   UNL     1     -44.042 -47.888   8.092  1.00  0.00     0.115 A 
HETATM   22  N   UNL     1     -42.768 -47.866   8.488  1.00  0.00    -0.310 N 
ATOM     23  HN  UNL     1     -41.938 -48.132   7.958  1.00  0.00     0.186 HD
ENDBRANCH  16  17
ENDBRANCH  15  16
ENDBRANCH  13  15
ENDBRANCH   1  13
TORSDOF 7
ENDMDL
MODEL 2
REMARK VINA RESULT:      -6.1      1.403      1.696
REMARK  7 active torsions:
REMARK  status: ('A' for Active; 'I' for Inactive)
REMARK    1  A    between atoms: C_2  and  N_3 
REMARK    2  A    between atoms: N_3  and  C_4 
REMARK       I    between atoms: N_3  and  C_10 
REMARK    3  A    between atoms: C_10  and  C_12 
REMARK    4  A    between atoms: C_12  and  N_13 
REMARK    5  A    between atoms: N_13  and  C_14 
REMARK    6  A    between atoms: C_14  and  C_15 
REMARK    7  A    between atoms: C_15  and  N_16 
ROOT
HETATM    1  C   UNL     1     -41.567 -50.752  12.138  1.00  0.00     0.372 C 
ENDROOT
BRANCH   1   2
HETATM    2  C   UNL     1     -41.169 -52.124  12.706  1.00  0.00     0.248 C 
HETATM    3  N   UNL     1     -42.191 -52.988  13.168  1.00  0.00    -0.346 N 
HETATM    4  O   UNL     1     -39.984 -52.471  12.691  1.00  0.00    -0.271 OA
BRANCH   3   5
HETATM    5  C   UNL     1     -41.765 -54.347  13.503  1.00  0.00     0.122 C 
HETATM    6  C   UNL     1     -41.450 -54.520  14.981  1.00  0.00     0.026 C 
ENDBRANCH   3   5
BRANCH   3   7
HETATM    7  C   UNL     1     -43.635 -52.623  13.230  1.00  0.00     0.087 C 
HETATM    8  C   UNL     1     -44.181 -52.099  14.576  1.00  0.00     0.025 C 
HETATM    9  C   UNL     1     -44.804 -53.127  15.519  1.00  0.00     0.002 C 
HETATM   10  C   UNL     1     -45.689 -54.137  14.803  1.00  0.00     0.000 C 
HETATM   11  C   UNL     1     -44.966 -54.775  13.625  1.00  0.00     0.002 C 
HETATM   12  C   UNL     1     -44.531 -53.714  12.619  1.00  0.00     0.025 C 
ENDBRANCH   3   7
ENDBRANCH   1   2
BRANCH   1  13
HETATM   13  N   UNL     1     -40.756 -50.411  10.952  1.00  0.00     0.093 N 
HETATM   14  H   UNL     1     -41.180 -50.881  10.146  1.00  0.00     0.316 HD
BRANCH  13  15
HETATM   15  C   UNL     1     -40.729 -48.953  10.728  1.00  0.00     0.291 C 
BRANCH  15  16
HETATM   16  C   UNL     1     -41.947 -48.233  11.323  1.00  0.00     0.178 C 
BRANCH  16  17
HETATM   17  N   UNL     1     -42.928 -47.876  10.320  1.00  0.00    -0.302 N 
HETATM   18  C   UNL     1     -44.215 -47.484  10.539  1.00  0.00     0.118 A 
HETATM   19  C   UNL     1     -44.804 -47.379   9.296  1.00  0.00    -0.028 A 
HETATM   20  C   UNL     1     -46.195 -46.999   8.973  1.00  0.00     0.051 C 
HETATM   21  C   UNL     1     -43.772 -47.729   8.396  1.00  0.00     0.115 A 
HETATM   22  N   UNL     1     -42.629 -48.028   9.017  1.00  0.00    -0.310 N 
ATOM     23  HN  UNL     1     -41.740 -48.305   8.601  1.00  0.00     0.186 HD
ENDBRANCH  16  17
ENDBRANCH  15  16
ENDBRANCH  13  15
ENDBRANCH   1  13
TORSDOF 7
ENDMDL
MODEL 3
REMARK VINA RESULT:      -5.9      2.553      3.083
REMARK  7 active torsions:
REMARK  status: ('A' for Active; 'I' for Inactive)
REMARK    1  A    between atoms: C_2  and  N_3 
REMARK    2  A    between atoms: N_3  and  C_4 
REMARK       I    between atoms: N_3  and  C_10 
REMARK    3  A    between atoms: C_10  and  C_12 
REMARK    4  A    between atoms: C_12  and  N_13 
REMARK    5  A    between atoms: N_13  and  C_14 
REMARK    6  A    between atoms: C_14  and  C_15 
REMARK    7  A    between atoms: C_15  and  N_16 
ROOT
HETATM    1  C   UNL     1     -41.746 -50.694  12.217  1.00  0.00     0.372 C 
ENDROOT
BRANCH   1   2
HETATM    2  C   UNL     1     -42.252 -52.117  12.502  1.00  0.00     0.248 C 
HETATM    3  N   UNL     1     -43.570 -52.282  12.991  1.00  0.00    -0.346 N 
HETATM    4  O   UNL     1     -41.531 -53.086  12.242  1.00  0.00    -0.271 OA
BRANCH   3   5
HETATM    5  C   UNL     1     -44.056 -53.662  13.046  1.00  0.00     0.122 C 
HETATM    6  C   UNL     1     -43.814 -54.320  14.395  1.00  0.00     0.026 C 
ENDBRANCH   3   5
BRANCH   3   7
HETATM    7  C   UNL     1     -44.483 -51.156  13.341  1.00  0.00     0.087 C 
HETATM    8  C   UNL     1     -44.411 -50.602  14.781  1.00  0.00     0.025 C 
HETATM    9  C   UNL     1     -45.384 -51.192  15.800  1.00  0.00     0.002 C 
HETATM   10  C   UNL     1     -46.788 -51.387  15.244  1.00  0.00     0.000 C 
HETATM   11  C   UNL     1     -46.764 -52.159  13.932  1.00  0.00     0.002 C 
HETATM   12  C   UNL     1     -45.928 -51.425  12.888  1.00  0.00     0.025 C 
ENDBRANCH   3   7
ENDBRANCH   1   2
BRANCH   1  13
HETATM   13  N   UNL     1     -40.746 -50.692  11.131  1.00  0.00     0.093 N 
HETATM   14  H   UNL     1     -41.234 -50.430  10.268  1.00  0.00     0.316 HD
BRANCH  13  15
HETATM   15  C   UNL     1     -39.662 -49.730  11.408  1.00  0.00     0.291 C 
BRANCH  15  16
HETATM   16  C   UNL     1     -40.033 -48.704  12.487  1.00  0.00     0.178 C 
BRANCH  16  17
HETATM   17  N   UNL     1     -39.953 -47.340  12.010  1.00  0.00    -0.302 N 
HETATM   18  C   UNL     1     -39.767 -46.220  12.764  1.00  0.00     0.118 A 
HETATM   19  C   UNL     1     -39.892 -45.150  11.903  1.00  0.00    -0.028 A 
HETATM   20  C   UNL     1     -39.791 -43.709  12.216  1.00  0.00     0.051 C 
HETATM   21  C   UNL     1     -40.148 -45.746  10.648  1.00  0.00     0.115 A 
HETATM   22  N   UNL     1     -40.182 -47.078  10.710  1.00  0.00    -0.310 N 
ATOM     23  HN  UNL     1     -40.343 -47.741   9.951  1.00  0.00     0.186 HD
ENDBRANCH  16  17
ENDBRANCH  15  16
ENDBRANCH  13  15
ENDBRANCH   1  13
TORSDOF 7
ENDMDL
MODEL 4
REMARK VINA RESULT:      -5.7      1.364      1.737
REMARK  7 active torsions:
REMARK  status: ('A' for Active; 'I' for Inactive)
REMARK    1  A    between atoms: C_2  and  N_3 
REMARK    2  A    between atoms: N_3  and  C_4 
REMARK       I    between atoms: N_3  and  C_10 
REMARK    3  A    between atoms: C_10  and  C_12 
REMARK    4  A    between atoms: C_12  and  N_13 
REMARK    5  A    between atoms: N_13  and  C_14 
REMARK    6  A    between atoms: C_14  and  C_15 
REMARK    7  A    between atoms: C_15  and  N_16 
ROOT
HETATM    1  C   UNL     1     -41.830 -50.888  12.282  1.00  0.00     0.372 C 
ENDROOT
BRANCH   1   2
HETATM    2  C   UNL     1     -42.342 -52.299  12.611  1.00  0.00     0.248 C 
HETATM    3  N   UNL     1     -43.674 -52.448  13.068  1.00  0.00    -0.346 N 
HETATM    4  O   UNL     1     -41.611 -53.276  12.415  1.00  0.00    -0.271 OA
BRANCH   3   5
HETATM    5  C   UNL     1     -44.158 -53.825  13.167  1.00  0.00     0.122 C 
HETATM    6  C   UNL     1     -43.950 -54.426  14.549  1.00  0.00     0.026 C 
ENDBRANCH   3   5
BRANCH   3   7
HETATM    7  C   UNL     1     -44.598 -51.310  13.342  1.00  0.00     0.087 C 
HETATM    8  C   UNL     1     -44.550 -50.676  14.749  1.00  0.00     0.025 C 
HETATM    9  C   UNL     1     -45.534 -51.215  15.786  1.00  0.00     0.002 C 
HETATM   10  C   UNL     1     -46.928 -51.451  15.223  1.00  0.00     0.000 C 
HETATM   11  C   UNL     1     -46.881 -52.295  13.957  1.00  0.00     0.002 C 
HETATM   12  C   UNL     1     -46.035 -51.615  12.885  1.00  0.00     0.025 C 
ENDBRANCH   3   7
ENDBRANCH   1   2
BRANCH   1  13
HETATM   13  N   UNL     1     -40.693 -50.940  11.341  1.00  0.00     0.093 N 
HETATM   14  H   UNL     1     -41.013 -51.436  10.502  1.00  0.00     0.316 HD
BRANCH  13  15
HETATM   15  C   UNL     1     -40.238 -49.584  10.981  1.00  0.00     0.291 C 
BRANCH  15  16
HETATM   16  C   UNL     1     -40.750 -48.505  11.945  1.00  0.00     0.178 C 
BRANCH  16  17
HETATM   17  N   UNL     1     -41.571 -47.512  11.285  1.00  0.00    -0.302 N 
HETATM   18  C   UNL     1     -42.364 -47.702  10.193  1.00  0.00     0.118 A 
HETATM   19  C   UNL     1     -42.845 -46.458   9.844  1.00  0.00    -0.028 A 
HETATM   20  C   UNL     1     -43.740 -46.106   8.722  1.00  0.00     0.051 C 
HETATM   21  C   UNL     1     -42.278 -45.588  10.802  1.00  0.00     0.115 A 
HETATM   22  N   UNL     1     -41.505 -46.228  11.682  1.00  0.00    -0.310 N 
ATOM     23  HN  UNL     1     -40.988 -45.836  12.470  1.00  0.00     0.186 HD
ENDBRANCH  16  17
ENDBRANCH  15  16
ENDBRANCH  13  15
ENDBRANCH   1  13
TORSDOF 7
ENDMDL
MODEL 5
REMARK VINA RESULT:      -5.7      3.290      5.680
REMARK  7 active torsions:
REMARK  status: ('A' for Active; 'I' for Inactive)
REMARK    1  A    between atoms: C_2  and  N_3 
REMARK    2  A    between atoms: N_3  and  C_4 
REMARK       I    between atoms: N_3  and  C_10 
REMARK    3  A    between atoms: C_10  and  C_12 
REMARK    4  A    between atoms: C_12  and  N_13 
REMARK    5  A    between atoms: N_13  and  C_14 
REMARK    6  A    between atoms: C_14  and  C_15 
REMARK    7  A    between atoms: C_15  and  N_16 
ROOT
HETATM    1  C   UNL     1     -41.690 -51.342  12.141  1.00  0.00     0.372 C 
ENDROOT
BRANCH   1   2
HETATM    2  C   UNL     1     -42.272 -52.681  12.621  1.00  0.00     0.248 C 
HETATM    3  N   UNL     1     -43.594 -52.702  13.127  1.00  0.00    -0.346 N 
HETATM    4  O   UNL     1     -41.607 -53.715  12.500  1.00  0.00    -0.271 OA
BRANCH   3   5
HETATM    5  C   UNL     1     -44.155 -54.031  13.374  1.00  0.00     0.122 C 
HETATM    6  C   UNL     1     -43.920 -54.516  14.797  1.00  0.00     0.026 C 
ENDBRANCH   3   5
BRANCH   3   7
HETATM    7  C   UNL     1     -44.440 -51.489  13.315  1.00  0.00     0.087 C 
HETATM    8  C   UNL     1     -44.359 -50.767  14.678  1.00  0.00     0.025 C 
HETATM    9  C   UNL     1     -45.384 -51.168  15.737  1.00  0.00     0.002 C 
HETATM   10  C   UNL     1     -46.788 -51.346  15.175  1.00  0.00     0.000 C 
HETATM   11  C   UNL     1     -46.790 -52.273  13.968  1.00  0.00     0.002 C 
HETATM   12  C   UNL     1     -45.892 -51.725  12.863  1.00  0.00     0.025 C 
ENDBRANCH   3   7
ENDBRANCH   1   2
BRANCH   1  13
HETATM   13  N   UNL     1     -40.234 -51.444  11.916  1.00  0.00     0.093 N 
HETATM   14  H   UNL     1     -40.025 -50.956  11.040  1.00  0.00     0.316 HD
BRANCH  13  15
HETATM   15  C   UNL     1     -39.480 -50.831  13.026  1.00  0.00     0.291 C 
BRANCH  15  16
HETATM   16  C   UNL     1     -38.406 -51.760  13.606  1.00  0.00     0.178 C 
BRANCH  16  17
HETATM   17  N   UNL     1     -38.968 -52.923  14.260  1.00  0.00    -0.302 N 
HETATM   18  C   UNL     1     -39.697 -52.940  15.412  1.00  0.00     0.118 A 
HETATM   19  C   UNL     1     -39.902 -54.269  15.719  1.00  0.00    -0.028 A 
HETATM   20  C   UNL     1     -40.624 -54.838  16.877  1.00  0.00     0.051 C 
HETATM   21  C   UNL     1     -39.254 -54.967  14.676  1.00  0.00     0.115 A 
HETATM   22  N   UNL     1     -38.689 -54.151  13.785  1.00  0.00    -0.310 N 
ATOM     23  HN  UNL     1     -38.168 -54.398  12.944  1.00  0.00     0.186 HD
ENDBRANCH  16  17
ENDBRANCH  15  16
ENDBRANCH  13  15
ENDBRANCH   1  13
TORSDOF 7
ENDMDL
MODEL 6
REMARK VINA RESULT:      -5.5      2.875      4.947
REMARK  7 active torsions:
REMARK  status: ('A' for Active; 'I' for Inactive)
REMARK    1  A    between atoms: C_2  and  N_3 
REMARK    2  A    between atoms: N_3  and  C_4 
REMARK       I    between atoms: N_3  and  C_10 
REMARK    3  A    between atoms: C_10  and  C_12 
REMARK    4  A    between atoms: C_12  and  N_13 
REMARK    5  A    between atoms: N_13  and  C_14 
REMARK    6  A    between atoms: C_14  and  C_15 
REMARK    7  A    between atoms: C_15  and  N_16 
ROOT
HETATM    1  C   UNL     1     -41.700 -50.788  12.308  1.00  0.00     0.372 C 
ENDROOT
BRANCH   1   2
HETATM    2  C   UNL     1     -42.235 -52.205  12.565  1.00  0.00     0.248 C 
HETATM    3  N   UNL     1     -43.570 -52.355  13.012  1.00  0.00    -0.346 N 
HETATM    4  O   UNL     1     -41.520 -53.182  12.320  1.00  0.00    -0.271 OA
BRANCH   3   5
HETATM    5  C   UNL     1     -44.077 -53.727  13.041  1.00  0.00     0.122 C 
HETATM    6  C   UNL     1     -43.883 -54.401  14.391  1.00  0.00     0.026 C 
ENDBRANCH   3   5
BRANCH   3   7
HETATM    7  C   UNL     1     -44.476 -51.219  13.343  1.00  0.00     0.087 C 
HETATM    8  C   UNL     1     -44.429 -50.665  14.784  1.00  0.00     0.025 C 
HETATM    9  C   UNL     1     -45.431 -51.244  15.782  1.00  0.00     0.002 C 
HETATM   10  C   UNL     1     -46.824 -51.423  15.196  1.00  0.00     0.000 C 
HETATM   11  C   UNL     1     -46.782 -52.194  13.885  1.00  0.00     0.002 C 
HETATM   12  C   UNL     1     -45.915 -51.471  12.859  1.00  0.00     0.025 C 
ENDBRANCH   3   7
ENDBRANCH   1   2
BRANCH   1  13
HETATM   13  N   UNL     1     -40.702 -50.784  11.220  1.00  0.00     0.093 N 
HETATM   14  H   UNL     1     -41.216 -50.741  10.334  1.00  0.00     0.316 HD
BRANCH  13  15
HETATM   15  C   UNL     1     -39.796 -49.625  11.332  1.00  0.00     0.291 C 
BRANCH  15  16
HETATM   16  C   UNL     1     -38.344 -50.026  11.623  1.00  0.00     0.178 C 
BRANCH  16  17
HETATM   17  N   UNL     1     -38.000 -49.901  13.024  1.00  0.00    -0.302 N 
HETATM   18  C   UNL     1     -38.021 -50.890  13.962  1.00  0.00     0.118 A 
HETATM   19  C   UNL     1     -37.750 -50.282  15.169  1.00  0.00    -0.028 A 
HETATM   20  C   UNL     1     -37.668 -50.904  16.507  1.00  0.00     0.051 C 
HETATM   21  C   UNL     1     -37.576 -48.919  14.838  1.00  0.00     0.115 A 
HETATM   22  N   UNL     1     -37.724 -48.686  13.532  1.00  0.00    -0.310 N 
ATOM     23  HN  UNL     1     -37.645 -47.798  13.037  1.00  0.00     0.186 HD
ENDBRANCH  16  17
ENDBRANCH  15  16
ENDBRANCH  13  15
ENDBRANCH   1  13
TORSDOF 7
ENDMDL
MODEL 7
REMARK VINA RESULT:      -5.4      2.504      3.631
REMARK  7 active torsions:
REMARK  status: ('A' for Active; 'I' for Inactive)
REMARK    1  A    between atoms: C_2  and  N_3 
REMARK    2  A    between atoms: N_3  and  C_4 
REMARK       I    between atoms: N_3  and  C_10 
REMARK    3  A    between atoms: C_10  and  C_12 
REMARK    4  A    between atoms: C_12  and  N_13 
REMARK    5  A    between atoms: N_13  and  C_14 
REMARK    6  A    between atoms: C_14  and  C_15 
REMARK    7  A    between atoms: C_15  and  N_16 
ROOT
HETATM    1  C   UNL     1     -39.147 -48.975  12.171  1.00  0.00     0.372 C 
ENDROOT
BRANCH   1   2
HETATM    2  C   UNL     1     -40.013 -49.083  13.435  1.00  0.00     0.248 C 
HETATM    3  N   UNL     1     -40.593 -50.335  13.754  1.00  0.00    -0.346 N 
HETATM    4  O   UNL     1     -40.136 -48.103  14.178  1.00  0.00    -0.271 OA
BRANCH   3   5
HETATM    5  C   UNL     1     -41.231 -50.419  15.068  1.00  0.00     0.122 C 
HETATM    6  C   UNL     1     -42.715 -50.086  15.027  1.00  0.00     0.026 C 
ENDBRANCH   3   5
BRANCH   3   7
HETATM    7  C   UNL     1     -40.498 -51.547  12.892  1.00  0.00     0.087 C 
HETATM    8  C   UNL     1     -41.707 -51.878  11.991  1.00  0.00     0.025 C 
HETATM    9  C   UNL     1     -42.750 -52.841  12.556  1.00  0.00     0.002 C 
HETATM   10  C   UNL     1     -42.137 -54.026  13.288  1.00  0.00     0.000 C 
HETATM   11  C   UNL     1     -41.123 -53.574  14.329  1.00  0.00     0.002 C 
HETATM   12  C   UNL     1     -39.999 -52.773  13.677  1.00  0.00     0.025 C 
ENDBRANCH   3   7
ENDBRANCH   1   2
BRANCH   1  13
HETATM   13  N   UNL     1     -39.684 -47.960  11.242  1.00  0.00     0.093 N 
HETATM   14  H   UNL     1     -39.106 -47.983  10.396  1.00  0.00     0.316 HD
BRANCH  13  15
HETATM   15  C   UNL     1     -41.091 -48.244  10.899  1.00  0.00     0.291 C 
BRANCH  15  16
HETATM   16  C   UNL     1     -41.891 -46.980  10.557  1.00  0.00     0.178 C 
BRANCH  16  17
HETATM   17  N   UNL     1     -43.033 -47.256   9.712  1.00  0.00    -0.302 N 
HETATM   18  C   UNL     1     -44.329 -47.399  10.110  1.00  0.00     0.118 A 
HETATM   19  C   UNL     1     -45.038 -47.782   8.990  1.00  0.00    -0.028 A 
HETATM   20  C   UNL     1     -46.481 -48.080   8.880  1.00  0.00     0.051 C 
HETATM   21  C   UNL     1     -44.063 -47.834   7.968  1.00  0.00     0.115 A 
HETATM   22  N   UNL     1     -42.844 -47.510   8.404  1.00  0.00    -0.310 N 
ATOM     23  HN  UNL     1     -41.976 -47.466   7.871  1.00  0.00     0.186 HD
ENDBRANCH  16  17
ENDBRANCH  15  16
ENDBRANCH  13  15
ENDBRANCH   1  13
TORSDOF 7
ENDMDL
MODEL 8
REMARK VINA RESULT:      -5.0      3.935      5.953
REMARK  7 active torsions:
REMARK  status: ('A' for Active; 'I' for Inactive)
REMARK    1  A    between atoms: C_2  and  N_3 
REMARK    2  A    between atoms: N_3  and  C_4 
REMARK       I    between atoms: N_3  and  C_10 
REMARK    3  A    between atoms: C_10  and  C_12 
REMARK    4  A    between atoms: C_12  and  N_13 
REMARK    5  A    between atoms: N_13  and  C_14 
REMARK    6  A    between atoms: C_14  and  C_15 
REMARK    7  A    between atoms: C_15  and  N_16 
ROOT
HETATM    1  C   UNL     1     -46.784 -53.211  14.618  1.00  0.00     0.372 C 
ENDROOT
BRANCH   1   2
HETATM    2  C   UNL     1     -46.089 -53.516  15.955  1.00  0.00     0.248 C 
HETATM    3  N   UNL     1     -45.990 -52.484  16.918  1.00  0.00    -0.346 N 
HETATM    4  O   UNL     1     -45.689 -54.662  16.188  1.00  0.00    -0.271 OA
BRANCH   3   5
HETATM    5  C   UNL     1     -45.504 -52.894  18.236  1.00  0.00     0.122 C 
HETATM    6  C   UNL     1     -46.587 -53.532  19.093  1.00  0.00     0.026 C 
ENDBRANCH   3   5
BRANCH   3   7
HETATM    7  C   UNL     1     -46.436 -51.079  16.692  1.00  0.00     0.087 C 
HETATM    8  C   UNL     1     -45.599 -49.953  17.338  1.00  0.00     0.025 C 
HETATM    9  C   UNL     1     -46.046 -49.459  18.713  1.00  0.00     0.002 C 
HETATM   10  C   UNL     1     -47.556 -49.303  18.831  1.00  0.00     0.000 C 
HETATM   11  C   UNL     1     -48.283 -50.565  18.390  1.00  0.00     0.002 C 
HETATM   12  C   UNL     1     -47.944 -50.907  16.943  1.00  0.00     0.025 C 
ENDBRANCH   3   7
ENDBRANCH   1   2
BRANCH   1  13
HETATM   13  N   UNL     1     -46.089 -53.870  13.494  1.00  0.00     0.093 N 
HETATM   14  H   UNL     1     -46.773 -54.471  13.022  1.00  0.00     0.316 HD
BRANCH  13  15
HETATM   15  C   UNL     1     -45.552 -52.877  12.544  1.00  0.00     0.291 C 
BRANCH  15  16
HETATM   16  C   UNL     1     -44.470 -51.981  13.163  1.00  0.00     0.178 C 
BRANCH  16  17
HETATM   17  N   UNL     1     -43.132 -52.483  12.931  1.00  0.00    -0.302 N 
HETATM   18  C   UNL     1     -42.452 -53.381  13.699  1.00  0.00     0.118 A 
HETATM   19  C   UNL     1     -41.180 -53.454  13.171  1.00  0.00    -0.028 A 
HETATM   20  C   UNL     1     -40.042 -54.273  13.639  1.00  0.00     0.051 C 
HETATM   21  C   UNL     1     -41.208 -52.557  12.079  1.00  0.00     0.115 A 
HETATM   22  N   UNL     1     -42.396 -51.968  11.929  1.00  0.00    -0.310 N 
ATOM     23  HN  UNL     1     -42.678 -51.289  11.222  1.00  0.00     0.186 HD
ENDBRANCH  16  17
ENDBRANCH  15  16
ENDBRANCH  13  15
ENDBRANCH   1  13
TORSDOF 7
ENDMDL
MODEL 9
REMARK VINA RESULT:      -4.9      3.636      6.709
REMARK  7 active torsions:
REMARK  status: ('A' for Active; 'I' for Inactive)
REMARK    1  A    between atoms: C_2  and  N_3 
REMARK    2  A    between atoms: N_3  and  C_4 
REMARK       I    between atoms: N_3  and  C_10 
REMARK    3  A    between atoms: C_10  and  C_12 
REMARK    4  A    between atoms: C_12  and  N_13 
REMARK    5  A    between atoms: N_13  and  C_14 
REMARK    6  A    between atoms: C_14  and  C_15 
REMARK    7  A    between atoms: C_15  and  N_16 
ROOT
HETATM    1  C   UNL     1     -40.460 -52.847  14.207  1.00  0.00     0.372 C 
ENDROOT
BRANCH   1   2
HETATM    2  C   UNL     1     -40.143 -51.984  12.976  1.00  0.00     0.248 C 
HETATM    3  N   UNL     1     -39.624 -50.682  13.176  1.00  0.00    -0.346 N 
HETATM    4  O   UNL     1     -40.286 -52.458  11.844  1.00  0.00    -0.271 OA
BRANCH   3   5
HETATM    5  C   UNL     1     -39.156 -49.996  11.972  1.00  0.00     0.122 C 
HETATM    6  C   UNL     1     -37.693 -50.276  11.663  1.00  0.00     0.026 C 
ENDBRANCH   3   5
BRANCH   3   7
HETATM    7  C   UNL     1     -39.447 -50.047  14.513  1.00  0.00     0.087 C 
HETATM    8  C   UNL     1     -39.386 -48.505  14.567  1.00  0.00     0.025 C 
HETATM    9  C   UNL     1     -38.000 -47.863  14.512  1.00  0.00     0.002 C 
HETATM   10  C   UNL     1     -36.971 -48.588  15.368  1.00  0.00     0.000 C 
HETATM   11  C   UNL     1     -36.945 -50.079  15.064  1.00  0.00     0.002 C 
HETATM   12  C   UNL     1     -38.313 -50.706  15.317  1.00  0.00     0.025 C 
ENDBRANCH   3   7
ENDBRANCH   1   2
BRANCH   1  13
HETATM   13  N   UNL     1     -41.898 -52.793  14.540  1.00  0.00     0.093 N 
HETATM   14  H   UNL     1     -42.301 -52.002  14.026  1.00  0.00     0.316 HD
BRANCH  13  15
HETATM   15  C   UNL     1     -42.581 -54.043  14.157  1.00  0.00     0.291 C 
BRANCH  15  16
HETATM   16  C   UNL     1     -43.599 -53.846  13.025  1.00  0.00     0.178 C 
BRANCH  16  17
HETATM   17  N   UNL     1     -44.663 -52.934  13.385  1.00  0.00    -0.302 N 
HETATM   18  C   UNL     1     -45.239 -52.793  14.613  1.00  0.00     0.118 A 
HETATM   19  C   UNL     1     -46.287 -51.912  14.449  1.00  0.00    -0.028 A 
HETATM   20  C   UNL     1     -47.242 -51.429  15.468  1.00  0.00     0.051 C 
HETATM   21  C   UNL     1     -46.246 -51.579  13.076  1.00  0.00     0.115 A 
HETATM   22  N   UNL     1     -45.257 -52.197  12.428  1.00  0.00    -0.310 N 
ATOM     23  HN  UNL     1     -45.009 -52.126  11.441  1.00  0.00     0.186 HD
ENDBRANCH  16  17
ENDBRANCH  15  16
ENDBRANCH  13  15
ENDBRANCH   1  13
TORSDOF 7
ENDMDL
