MODEL 1
REMARK VINA RESULT:      -6.0      0.000      0.000
REMARK  5 active torsions:
REMARK  status: ('A' for Active; 'I' for Inactive)
REMARK    1  A    between atoms: O_1  and  C_2 
REMARK    2  A    between atoms: C_2  and  C_4 
REMARK    3  A    between atoms: N_8  and  C_9 
REMARK    4  A    between atoms: C_9  and  C_10 
REMARK       I    between atoms: C_10  and  N_12 
REMARK    5  A    between atoms: N_12  and  C_13 
ROOT
HETATM    1  C   UNL     1     -42.115 -48.399  11.205  1.00  0.00     0.250 C 
ENDROOT
BRANCH   1   2
HETATM    2  N   UNL     1     -43.088 -47.976  10.218  1.00  0.00    -0.294 N 
HETATM    3  N   UNL     1     -42.741 -47.928   8.916  1.00  0.00    -0.309 N 
HETATM    4  C   UNL     1     -43.882 -47.607   8.300  1.00  0.00     0.127 A 
ATOM      5  HN  UNL     1     -41.824 -48.097   8.501  1.00  0.00     0.186 HD
HETATM    6  C   UNL     1     -44.959 -47.420   9.196  1.00  0.00     0.071 A 
HETATM    7  C   UNL     1     -44.408 -47.686  10.436  1.00  0.00     0.130 A 
BRANCH   6   8
HETATM    8  C   UNL     1     -46.326 -47.081   8.853  1.00  0.00     0.179 C 
HETATM    9  O   UNL     1     -47.259 -47.860   8.984  1.00  0.00    -0.646 OA
BRANCH   8  10
HETATM   10  O   UNL     1     -46.495 -45.834   8.348  1.00  0.00    -0.773 OA
HETATM   11  H   UNL     1     -47.368 -45.459   8.564  1.00  0.00     0.167 HD
ENDBRANCH   8  10
ENDBRANCH   6   8
ENDBRANCH   1   2
BRANCH   1  12
HETATM   12  C   UNL     1     -42.771 -48.960  12.443  1.00  0.00     0.237 C 
HETATM   13  O   UNL     1     -43.016 -48.241  13.413  1.00  0.00    -0.272 OA
HETATM   14  N   UNL     1     -43.134 -50.293  12.376  1.00  0.00    -0.355 N 
HETATM   15  H   UNL     1     -42.635 -50.863  11.692  1.00  0.00     0.162 HD
BRANCH  14  16
HETATM   16  C   UNL     1     -43.758 -50.959  13.517  1.00  0.00     0.084 C 
HETATM   17  C   UNL     1     -42.960 -52.196  13.949  1.00  0.00     0.025 C 
HETATM   18  C   UNL     1     -43.218 -53.417  13.068  1.00  0.00     0.002 C 
HETATM   19  C   UNL     1     -44.707 -53.722  12.969  1.00  0.00     0.000 C 
HETATM   20  C   UNL     1     -45.470 -52.525  12.414  1.00  0.00     0.002 C 
HETATM   21  C   UNL     1     -45.237 -51.272  13.253  1.00  0.00     0.025 C 
ENDBRANCH  14  16
ENDBRANCH   1  12
TORSDOF 5
ENDMDL
MODEL 2
REMARK VINA RESULT:      -5.9      1.709      2.020
REMARK  5 active torsions:
REMARK  status: ('A' for Active; 'I' for Inactive)
REMARK    1  A    between atoms: O_1  and  C_2 
REMARK    2  A    between atoms: C_2  and  C_4 
REMARK    3  A    between atoms: N_8  and  C_9 
REMARK    4  A    between atoms: C_9  and  C_10 
REMARK       I    between atoms: C_10  and  N_12 
REMARK    5  A    between atoms: N_12  and  C_13 
ROOT
HETATM    1  C   UNL     1     -40.993 -49.317  10.916  1.00  0.00     0.250 C 
ENDROOT
BRANCH   1   2
HETATM    2  N   UNL     1     -41.552 -48.030  10.556  1.00  0.00    -0.294 N 
HETATM    3  N   UNL     1     -40.760 -46.939  10.540  1.00  0.00    -0.309 N 
HETATM    4  C   UNL     1     -41.562 -45.977  10.075  1.00  0.00     0.127 A 
ATOM      5  HN  UNL     1     -39.781 -46.866  10.817  1.00  0.00     0.186 HD
HETATM    6  C   UNL     1     -42.875 -46.431   9.816  1.00  0.00     0.071 A 
HETATM    7  C   UNL     1     -42.827 -47.778  10.124  1.00  0.00     0.130 A 
BRANCH   6   8
HETATM    8  C   UNL     1     -43.978 -45.649   9.295  1.00  0.00     0.179 C 
HETATM    9  O   UNL     1     -44.942 -46.147   8.731  1.00  0.00    -0.646 OA
BRANCH   8  10
HETATM   10  O   UNL     1     -43.854 -44.308   9.457  1.00  0.00    -0.773 OA
HETATM   11  H   UNL     1     -44.402 -43.968  10.187  1.00  0.00     0.167 HD
ENDBRANCH   8  10
ENDBRANCH   6   8
ENDBRANCH   1   2
BRANCH   1  12
HETATM   12  C   UNL     1     -41.530 -49.820  12.234  1.00  0.00     0.237 C 
HETATM   13  O   UNL     1     -41.205 -49.287  13.296  1.00  0.00    -0.272 OA
HETATM   14  N   UNL     1     -42.450 -50.849  12.152  1.00  0.00    -0.355 N 
HETATM   15  H   UNL     1     -42.424 -51.411  11.300  1.00  0.00     0.162 HD
BRANCH  14  16
HETATM   16  C   UNL     1     -43.028 -51.437  13.359  1.00  0.00     0.084 C 
HETATM   17  C   UNL     1     -43.092 -52.966  13.262  1.00  0.00     0.025 C 
HETATM   18  C   UNL     1     -44.269 -53.469  12.427  1.00  0.00     0.002 C 
HETATM   19  C   UNL     1     -45.586 -52.887  12.925  1.00  0.00     0.000 C 
HETATM   20  C   UNL     1     -45.553 -51.364  12.892  1.00  0.00     0.002 C 
HETATM   21  C   UNL     1     -44.386 -50.809  13.702  1.00  0.00     0.025 C 
ENDBRANCH  14  16
ENDBRANCH   1  12
TORSDOF 5
ENDMDL
MODEL 3
REMARK VINA RESULT:      -5.9      1.857      2.515
REMARK  5 active torsions:
REMARK  status: ('A' for Active; 'I' for Inactive)
REMARK    1  A    between atoms: O_1  and  C_2 
REMARK    2  A    between atoms: C_2  and  C_4 
REMARK    3  A    between atoms: N_8  and  C_9 
REMARK    4  A    between atoms: C_9  and  C_10 
REMARK       I    between atoms: C_10  and  N_12 
REMARK    5  A    between atoms: N_12  and  C_13 
ROOT
HETATM    1  C   UNL     1     -42.484 -49.133  12.576  1.00  0.00     0.250 C 
ENDROOT
BRANCH   1   2
HETATM    2  N   UNL     1     -42.679 -48.353  11.370  1.00  0.00    -0.294 N 
HETATM    3  N   UNL     1     -42.006 -48.677  10.248  1.00  0.00    -0.309 N 
HETATM    4  C   UNL     1     -42.496 -47.834   9.335  1.00  0.00     0.127 A 
ATOM      5  HN  UNL     1     -41.291 -49.395  10.126  1.00  0.00     0.186 HD
HETATM    6  C   UNL     1     -43.463 -46.949   9.863  1.00  0.00     0.071 A 
HETATM    7  C   UNL     1     -43.569 -47.328  11.189  1.00  0.00     0.130 A 
BRANCH   6   8
HETATM    8  C   UNL     1     -44.194 -45.928   9.140  1.00  0.00     0.179 C 
HETATM    9  O   UNL     1     -43.791 -44.780   9.017  1.00  0.00    -0.646 OA
BRANCH   8  10
HETATM   10  O   UNL     1     -45.381 -46.332   8.625  1.00  0.00    -0.773 OA
HETATM   11  H   UNL     1     -45.280 -46.808   7.782  1.00  0.00     0.167 HD
ENDBRANCH   8  10
ENDBRANCH   6   8
ENDBRANCH   1   2
BRANCH   1  12
HETATM   12  C   UNL     1     -42.148 -50.572  12.271  1.00  0.00     0.237 C 
HETATM   13  O   UNL     1     -41.079 -50.875  11.739  1.00  0.00    -0.272 OA
HETATM   14  N   UNL     1     -43.076 -51.506  12.695  1.00  0.00    -0.355 N 
HETATM   15  H   UNL     1     -44.028 -51.165  12.836  1.00  0.00     0.162 HD
BRANCH  14  16
HETATM   16  C   UNL     1     -42.876 -52.931  12.441  1.00  0.00     0.084 C 
HETATM   17  C   UNL     1     -44.212 -53.678  12.353  1.00  0.00     0.025 C 
HETATM   18  C   UNL     1     -44.822 -53.985  13.720  1.00  0.00     0.002 C 
HETATM   19  C   UNL     1     -43.831 -54.720  14.614  1.00  0.00     0.000 C 
HETATM   20  C   UNL     1     -42.558 -53.904  14.797  1.00  0.00     0.002 C 
HETATM   21  C   UNL     1     -41.913 -53.559  13.458  1.00  0.00     0.025 C 
ENDBRANCH  14  16
ENDBRANCH   1  12
TORSDOF 5
ENDMDL
MODEL 4
REMARK VINA RESULT:      -5.8      1.813      2.547
REMARK  5 active torsions:
REMARK  status: ('A' for Active; 'I' for Inactive)
REMARK    1  A    between atoms: O_1  and  C_2 
REMARK    2  A    between atoms: C_2  and  C_4 
REMARK    3  A    between atoms: N_8  and  C_9 
REMARK    4  A    between atoms: C_9  and  C_10 
REMARK       I    between atoms: C_10  and  N_12 
REMARK    5  A    between atoms: N_12  and  C_13 
ROOT
HETATM    1  C   UNL     1     -42.309 -48.734  12.657  1.00  0.00     0.250 C 
ENDROOT
BRANCH   1   2
HETATM    2  N   UNL     1     -42.621 -48.048  11.420  1.00  0.00    -0.294 N 
HETATM    3  N   UNL     1     -42.201 -48.561  10.246  1.00  0.00    -0.309 N 
HETATM    4  C   UNL     1     -42.743 -47.746   9.337  1.00  0.00     0.127 A 
ATOM      5  HN  UNL     1     -41.610 -49.378  10.090  1.00  0.00     0.186 HD
HETATM    6  C   UNL     1     -43.489 -46.694   9.913  1.00  0.00     0.071 A 
HETATM    7  C   UNL     1     -43.402 -46.932  11.273  1.00  0.00     0.130 A 
BRANCH   6   8
HETATM    8  C   UNL     1     -44.210 -45.652   9.209  1.00  0.00     0.179 C 
HETATM    9  O   UNL     1     -43.780 -44.516   9.075  1.00  0.00    -0.646 OA
BRANCH   8  10
HETATM   10  O   UNL     1     -45.421 -46.023   8.727  1.00  0.00    -0.773 OA
HETATM   11  H   UNL     1     -46.014 -45.264   8.579  1.00  0.00     0.167 HD
ENDBRANCH   8  10
ENDBRANCH   6   8
ENDBRANCH   1   2
BRANCH   1  12
HETATM   12  C   UNL     1     -42.766 -50.173  12.638  1.00  0.00     0.237 C 
HETATM   13  O   UNL     1     -42.023 -51.069  12.235  1.00  0.00    -0.272 OA
HETATM   14  N   UNL     1     -44.022 -50.408  13.166  1.00  0.00    -0.355 N 
HETATM   15  H   UNL     1     -44.661 -49.612  13.185  1.00  0.00     0.162 HD
BRANCH  14  16
HETATM   16  C   UNL     1     -44.587 -51.756  13.186  1.00  0.00     0.084 C 
HETATM   17  C   UNL     1     -46.109 -51.729  13.002  1.00  0.00     0.025 C 
HETATM   18  C   UNL     1     -46.865 -51.370  14.280  1.00  0.00     0.002 C 
HETATM   19  C   UNL     1     -46.460 -52.278  15.434  1.00  0.00     0.000 C 
HETATM   20  C   UNL     1     -44.960 -52.195  15.689  1.00  0.00     0.002 C 
HETATM   21  C   UNL     1     -44.157 -52.533  14.437  1.00  0.00     0.025 C 
ENDBRANCH  14  16
ENDBRANCH   1  12
TORSDOF 5
ENDMDL
MODEL 5
REMARK VINA RESULT:      -5.8      3.465      6.009
REMARK  5 active torsions:
REMARK  status: ('A' for Active; 'I' for Inactive)
REMARK    1  A    between atoms: O_1  and  C_2 
REMARK    2  A    between atoms: C_2  and  C_4 
REMARK    3  A    between atoms: N_8  and  C_9 
REMARK    4  A    between atoms: C_9  and  C_10 
REMARK       I    between atoms: C_10  and  N_12 
REMARK    5  A    between atoms: N_12  and  C_13 
ROOT
HETATM    1  C   UNL     1     -42.137 -48.009  11.591  1.00  0.00     0.250 C 
ENDROOT
BRANCH   1   2
HETATM    2  N   UNL     1     -42.992 -47.829  10.436  1.00  0.00    -0.294 N 
HETATM    3  N   UNL     1     -42.458 -47.858   9.198  1.00  0.00    -0.309 N 
HETATM    4  C   UNL     1     -43.522 -47.766   8.396  1.00  0.00     0.127 A 
ATOM      5  HN  UNL     1     -41.475 -47.933   8.937  1.00  0.00     0.186 HD
HETATM    6  C   UNL     1     -44.739 -47.649   9.105  1.00  0.00     0.071 A 
HETATM    7  C   UNL     1     -44.357 -47.711  10.432  1.00  0.00     0.130 A 
BRANCH   6   8
HETATM    8  C   UNL     1     -46.069 -47.545   8.538  1.00  0.00     0.179 C 
HETATM    9  O   UNL     1     -46.863 -46.671   8.855  1.00  0.00    -0.646 OA
BRANCH   8  10
HETATM   10  O   UNL     1     -46.384 -48.510   7.640  1.00  0.00    -0.773 OA
HETATM   11  H   UNL     1     -46.108 -48.282   6.734  1.00  0.00     0.167 HD
ENDBRANCH   8  10
ENDBRANCH   6   8
ENDBRANCH   1   2
BRANCH   1  12
HETATM   12  C   UNL     1     -40.860 -47.213  11.481  1.00  0.00     0.237 C 
HETATM   13  O   UNL     1     -39.800 -47.755  11.165  1.00  0.00    -0.272 OA
HETATM   14  N   UNL     1     -40.984 -45.851  11.684  1.00  0.00    -0.355 N 
HETATM   15  H   UNL     1     -41.795 -45.547  12.224  1.00  0.00     0.162 HD
BRANCH  14  16
HETATM   16  C   UNL     1     -39.816 -44.974  11.625  1.00  0.00     0.084 C 
HETATM   17  C   UNL     1     -39.249 -44.702  13.024  1.00  0.00     0.025 C 
HETATM   18  C   UNL     1     -40.032 -43.642  13.797  1.00  0.00     0.002 C 
HETATM   19  C   UNL     1     -40.165 -42.357  12.991  1.00  0.00     0.000 C 
HETATM   20  C   UNL     1     -40.850 -42.622  11.656  1.00  0.00     0.002 C 
HETATM   21  C   UNL     1     -40.113 -43.685  10.847  1.00  0.00     0.025 C 
ENDBRANCH  14  16
ENDBRANCH   1  12
TORSDOF 5
ENDMDL
MODEL 6
REMARK VINA RESULT:      -5.6      4.802      5.951
REMARK  5 active torsions:
REMARK  status: ('A' for Active; 'I' for Inactive)
REMARK    1  A    between atoms: O_1  and  C_2 
REMARK    2  A    between atoms: C_2  and  C_4 
REMARK    3  A    between atoms: N_8  and  C_9 
REMARK    4  A    between atoms: C_9  and  C_10 
REMARK       I    between atoms: C_10  and  N_12 
REMARK    5  A    between atoms: N_12  and  C_13 
ROOT
HETATM    1  C   UNL     1     -41.370 -54.157  14.856  1.00  0.00     0.250 C 
ENDROOT
BRANCH   1   2
HETATM    2  N   UNL     1     -41.140 -53.308  13.704  1.00  0.00    -0.294 N 
HETATM    3  N   UNL     1     -41.561 -53.706  12.487  1.00  0.00    -0.309 N 
HETATM    4  C   UNL     1     -41.282 -52.660  11.703  1.00  0.00     0.127 A 
ATOM      5  HN  UNL     1     -41.989 -54.594  12.226  1.00  0.00     0.186 HD
HETATM    6  C   UNL     1     -40.661 -51.599  12.399  1.00  0.00     0.071 A 
HETATM    7  C   UNL     1     -40.600 -52.050  13.705  1.00  0.00     0.130 A 
BRANCH   6   8
HETATM    8  C   UNL     1     -40.246 -50.323  11.849  1.00  0.00     0.179 C 
HETATM    9  O   UNL     1     -39.880 -49.385  12.543  1.00  0.00    -0.646 OA
BRANCH   8  10
HETATM   10  O   UNL     1     -40.315 -50.235  10.498  1.00  0.00    -0.773 OA
HETATM   11  H   UNL     1     -41.061 -49.684  10.198  1.00  0.00     0.167 HD
ENDBRANCH   8  10
ENDBRANCH   6   8
ENDBRANCH   1   2
BRANCH   1  12
HETATM   12  C   UNL     1     -42.829 -54.503  15.023  1.00  0.00     0.237 C 
HETATM   13  O   UNL     1     -43.189 -55.668  15.197  1.00  0.00    -0.272 OA
HETATM   14  N   UNL     1     -43.700 -53.429  15.041  1.00  0.00    -0.355 N 
HETATM   15  H   UNL     1     -43.370 -52.572  14.597  1.00  0.00     0.162 HD
BRANCH  14  16
HETATM   16  C   UNL     1     -45.141 -53.635  15.176  1.00  0.00     0.084 C 
HETATM   17  C   UNL     1     -45.823 -53.742  13.806  1.00  0.00     0.025 C 
HETATM   18  C   UNL     1     -46.056 -52.386  13.141  1.00  0.00     0.002 C 
HETATM   19  C   UNL     1     -46.811 -51.441  14.066  1.00  0.00     0.000 C 
HETATM   20  C   UNL     1     -46.056 -51.242  15.374  1.00  0.00     0.002 C 
HETATM   21  C   UNL     1     -45.784 -52.570  16.075  1.00  0.00     0.025 C 
ENDBRANCH  14  16
ENDBRANCH   1  12
TORSDOF 5
ENDMDL
MODEL 7
REMARK VINA RESULT:      -5.6      2.994      3.743
REMARK  5 active torsions:
REMARK  status: ('A' for Active; 'I' for Inactive)
REMARK    1  A    between atoms: O_1  and  C_2 
REMARK    2  A    between atoms: C_2  and  C_4 
REMARK    3  A    between atoms: N_8  and  C_9 
REMARK    4  A    between atoms: C_9  and  C_10 
REMARK       I    between atoms: C_10  and  N_12 
REMARK    5  A    between atoms: N_12  and  C_13 
ROOT
HETATM    1  C   UNL     1     -41.622 -49.543  13.025  1.00  0.00     0.250 C 
ENDROOT
BRANCH   1   2
HETATM    2  N   UNL     1     -41.631 -48.557  11.963  1.00  0.00    -0.294 N 
HETATM    3  N   UNL     1     -42.260 -48.830  10.803  1.00  0.00    -0.309 N 
HETATM    4  C   UNL     1     -42.158 -47.689  10.116  1.00  0.00     0.127 A 
ATOM      5  HN  UNL     1     -42.707 -49.702  10.517  1.00  0.00     0.186 HD
HETATM    6  C   UNL     1     -41.445 -46.687  10.812  1.00  0.00     0.071 A 
HETATM    7  C   UNL     1     -41.132 -47.283  12.020  1.00  0.00     0.130 A 
BRANCH   6   8
HETATM    8  C   UNL     1     -41.170 -45.339  10.356  1.00  0.00     0.179 C 
HETATM    9  O   UNL     1     -41.884 -44.385  10.627  1.00  0.00    -0.646 OA
BRANCH   8  10
HETATM   10  O   UNL     1     -40.068 -45.213   9.578  1.00  0.00    -0.773 OA
HETATM   11  H   UNL     1     -39.349 -44.729  10.023  1.00  0.00     0.167 HD
ENDBRANCH   8  10
ENDBRANCH   6   8
ENDBRANCH   1   2
BRANCH   1  12
HETATM   12  C   UNL     1     -41.644 -50.953  12.489  1.00  0.00     0.237 C 
HETATM   13  O   UNL     1     -40.816 -51.330  11.659  1.00  0.00    -0.272 OA
HETATM   14  N   UNL     1     -42.596 -51.789  13.044  1.00  0.00    -0.355 N 
HETATM   15  H   UNL     1     -43.403 -51.334  13.472  1.00  0.00     0.162 HD
BRANCH  14  16
HETATM   16  C   UNL     1     -42.732 -53.173  12.595  1.00  0.00     0.084 C 
HETATM   17  C   UNL     1     -44.206 -53.582  12.480  1.00  0.00     0.025 C 
HETATM   18  C   UNL     1     -44.841 -53.934  13.825  1.00  0.00     0.002 C 
HETATM   19  C   UNL     1     -44.026 -54.989  14.560  1.00  0.00     0.000 C 
HETATM   20  C   UNL     1     -42.596 -54.514  14.782  1.00  0.00     0.002 C 
HETATM   21  C   UNL     1     -41.918 -54.137  13.468  1.00  0.00     0.025 C 
ENDBRANCH  14  16
ENDBRANCH   1  12
TORSDOF 5
ENDMDL
MODEL 8
REMARK VINA RESULT:      -5.5      5.097      7.070
REMARK  5 active torsions:
REMARK  status: ('A' for Active; 'I' for Inactive)
REMARK    1  A    between atoms: O_1  and  C_2 
REMARK    2  A    between atoms: C_2  and  C_4 
REMARK    3  A    between atoms: N_8  and  C_9 
REMARK    4  A    between atoms: C_9  and  C_10 
REMARK       I    between atoms: C_10  and  N_12 
REMARK    5  A    between atoms: N_12  and  C_13 
ROOT
HETATM    1  C   UNL     1     -41.295 -54.160  12.862  1.00  0.00     0.250 C 
ENDROOT
BRANCH   1   2
HETATM    2  N   UNL     1     -42.704 -53.885  13.054  1.00  0.00    -0.294 N 
HETATM    3  N   UNL     1     -43.387 -53.208  12.109  1.00  0.00    -0.309 N 
HETATM    4  C   UNL     1     -44.645 -53.227  12.558  1.00  0.00     0.127 A 
ATOM      5  HN  UNL     1     -43.028 -52.781  11.255  1.00  0.00     0.186 HD
HETATM    6  C   UNL     1     -44.778 -53.889  13.799  1.00  0.00     0.071 A 
HETATM    7  C   UNL     1     -43.495 -54.320  14.084  1.00  0.00     0.130 A 
BRANCH   6   8
HETATM    8  C   UNL     1     -46.002 -54.097  14.548  1.00  0.00     0.179 C 
HETATM    9  O   UNL     1     -46.033 -54.660  15.632  1.00  0.00    -0.646 OA
BRANCH   8  10
HETATM   10  O   UNL     1     -47.125 -53.640  13.942  1.00  0.00    -0.773 OA
HETATM   11  H   UNL     1     -47.179 -53.904  13.006  1.00  0.00     0.167 HD
ENDBRANCH   8  10
ENDBRANCH   6   8
ENDBRANCH   1   2
BRANCH   1  12
HETATM   12  C   UNL     1     -40.419 -53.187  13.613  1.00  0.00     0.237 C 
HETATM   13  O   UNL     1     -39.990 -53.454  14.735  1.00  0.00    -0.272 OA
HETATM   14  N   UNL     1     -40.085 -52.033  12.927  1.00  0.00    -0.355 N 
HETATM   15  H   UNL     1     -40.709 -51.762  12.166  1.00  0.00     0.162 HD
BRANCH  14  16
HETATM   16  C   UNL     1     -39.260 -51.002  13.553  1.00  0.00     0.084 C 
HETATM   17  C   UNL     1     -39.747 -49.594  13.186  1.00  0.00     0.025 C 
HETATM   18  C   UNL     1     -39.296 -49.143  11.797  1.00  0.00     0.002 C 
HETATM   19  C   UNL     1     -37.786 -49.268  11.641  1.00  0.00     0.000 C 
HETATM   20  C   UNL     1     -37.332 -50.702  11.882  1.00  0.00     0.002 C 
HETATM   21  C   UNL     1     -37.769 -51.208  13.253  1.00  0.00     0.025 C 
ENDBRANCH  14  16
ENDBRANCH   1  12
TORSDOF 5
ENDMDL
MODEL 9
REMARK VINA RESULT:      -5.4      2.926      3.876
REMARK  5 active torsions:
REMARK  status: ('A' for Active; 'I' for Inactive)
REMARK    1  A    between atoms: O_1  and  C_2 
REMARK    2  A    between atoms: C_2  and  C_4 
REMARK    3  A    between atoms: N_8  and  C_9 
REMARK    4  A    between atoms: C_9  and  C_10 
REMARK       I    between atoms: C_10  and  N_12 
REMARK    5  A    between atoms: N_12  and  C_13 
ROOT
HETATM    1  C   UNL     1     -42.847 -48.125  11.140  1.00  0.00     0.250 C 
ENDROOT
BRANCH   1   2
HETATM    2  N   UNL     1     -41.844 -47.079  11.148  1.00  0.00    -0.294 N 
HETATM    3  N   UNL     1     -40.613 -47.330  10.660  1.00  0.00    -0.309 N 
HETATM    4  C   UNL     1     -40.001 -46.144  10.729  1.00  0.00     0.127 A 
ATOM      5  HN  UNL     1     -40.237 -48.215  10.320  1.00  0.00     0.186 HD
HETATM    6  C   UNL     1     -40.819 -45.133  11.282  1.00  0.00     0.071 A 
HETATM    7  C   UNL     1     -42.019 -45.775  11.528  1.00  0.00     0.130 A 
BRANCH   6   8
HETATM    8  C   UNL     1     -40.466 -43.741  11.482  1.00  0.00     0.179 C 
HETATM    9  O   UNL     1     -40.117 -43.290  12.563  1.00  0.00    -0.646 OA
BRANCH   8  10
HETATM   10  O   UNL     1     -40.575 -42.961  10.379  1.00  0.00    -0.773 OA
HETATM   11  H   UNL     1     -39.892 -43.158   9.712  1.00  0.00     0.167 HD
ENDBRANCH   8  10
ENDBRANCH   6   8
ENDBRANCH   1   2
BRANCH   1  12
HETATM   12  C   UNL     1     -42.685 -49.075  12.301  1.00  0.00     0.237 C 
HETATM   13  O   UNL     1     -41.718 -48.990  13.060  1.00  0.00    -0.272 OA
HETATM   14  N   UNL     1     -43.718 -49.976  12.486  1.00  0.00    -0.355 N 
HETATM   15  H   UNL     1     -44.294 -50.176  11.668  1.00  0.00     0.162 HD
BRANCH  14  16
HETATM   16  C   UNL     1     -43.669 -50.962  13.563  1.00  0.00     0.084 C 
HETATM   17  C   UNL     1     -43.414 -52.373  13.020  1.00  0.00     0.025 C 
HETATM   18  C   UNL     1     -44.666 -53.033  12.443  1.00  0.00     0.002 C 
HETATM   19  C   UNL     1     -45.808 -53.022  13.450  1.00  0.00     0.000 C 
HETATM   20  C   UNL     1     -46.137 -51.599  13.883  1.00  0.00     0.002 C 
HETATM   21  C   UNL     1     -44.915 -50.889  14.456  1.00  0.00     0.025 C 
ENDBRANCH  14  16
ENDBRANCH   1  12
TORSDOF 5
ENDMDL
