MODEL 1
REMARK VINA RESULT:      -7.0      0.000      0.000
REMARK  4 active torsions:
REMARK  status: ('A' for Active; 'I' for Inactive)
REMARK    1  A    between atoms: S_2  and  N_5 
REMARK    2  A    between atoms: C_8  and  C_9 
REMARK    3  A    between atoms: C_9  and  N_10 
REMARK       I    between atoms: N_10  and  C_11 
REMARK       I    between atoms: C_11  and  N_13 
REMARK    4  A    between atoms: N_13  and  C_14 
ROOT
HETATM    1  N   UNL     1     -41.531 -50.102  11.233  1.00  0.00    -0.342 N 
HETATM    2  C   UNL     1     -40.703 -49.026  11.154  1.00  0.00     0.321 C 
HETATM    3  O   UNL     1     -39.591 -48.983  11.664  1.00  0.00    -0.247 OA
HETATM    4  N   UNL     1     -41.199 -47.955  10.461  1.00  0.00    -0.295 N 
HETATM    5  H   UNL     1     -42.405 -50.002  10.725  1.00  0.00     0.164 HD
HETATM    6  H   UNL     1     -40.569 -47.168  10.429  1.00  0.00     0.172 HD
ENDROOT
BRANCH   1   7
HETATM    7  C   UNL     1     -41.295 -51.321  11.941  1.00  0.00     0.129 C 
BRANCH   7   8
HETATM    8  C   UNL     1     -42.141 -51.448  13.219  1.00  0.00     0.006 C 
HETATM    9  C   UNL     1     -41.673 -52.680  13.998  1.00  0.00     0.027 C 
HETATM   10  C   UNL     1     -42.085 -53.957  13.279  1.00  0.00     0.135 C 
HETATM   11  N   UNL     1     -43.552 -54.031  13.219  1.00  0.00    -0.311 N 
HETATM   12  C   UNL     1     -44.206 -52.887  12.544  1.00  0.00     0.135 C 
HETATM   13  C   UNL     1     -43.667 -51.528  12.998  1.00  0.00     0.027 C 
BRANCH  11  14
HETATM   14  S   UNL     1     -44.348 -54.860  14.458  1.00  0.00     0.224 S 
HETATM   15  C   UNL     1     -44.903 -53.490  15.461  1.00  0.00     0.186 C 
HETATM   16  O   UNL     1     -43.369 -55.586  15.231  1.00  0.00    -0.206 OA
HETATM   17  O   UNL     1     -45.516 -55.512  13.909  1.00  0.00    -0.206 OA
ENDBRANCH  11  14
ENDBRANCH   7   8
ENDBRANCH   1   7
BRANCH   4  18
HETATM   18  C   UNL     1     -42.465 -47.838   9.868  1.00  0.00     0.108 A 
HETATM   19  C   UNL     1     -43.561 -47.578  10.682  1.00  0.00     0.049 A 
HETATM   20  C   UNL     1     -44.821 -47.490  10.083  1.00  0.00     0.005 A 
HETATM   21  C   UNL     1     -44.954 -47.659   8.707  1.00  0.00     0.017 A 
HETATM   22  C   UNL     1     -43.811 -47.910   7.978  1.00  0.00     0.089 A 
HETATM   23  N   UNL     1     -42.585 -48.000   8.530  1.00  0.00    -0.352 N 
ATOM     24  HN  UNL     1     -41.766 -48.187   7.951  1.00  0.00     0.166 HD
ENDBRANCH   4  18
TORSDOF 4
ENDMDL
MODEL 2
REMARK VINA RESULT:      -6.6      1.404      2.116
REMARK  4 active torsions:
REMARK  status: ('A' for Active; 'I' for Inactive)
REMARK    1  A    between atoms: S_2  and  N_5 
REMARK    2  A    between atoms: C_8  and  C_9 
REMARK    3  A    between atoms: C_9  and  N_10 
REMARK       I    between atoms: N_10  and  C_11 
REMARK       I    between atoms: C_11  and  N_13 
REMARK    4  A    between atoms: N_13  and  C_14 
ROOT
HETATM    1  N   UNL     1     -40.233 -50.587  12.232  1.00  0.00    -0.342 N 
HETATM    2  C   UNL     1     -39.224 -49.799  11.774  1.00  0.00     0.321 C 
HETATM    3  O   UNL     1     -38.039 -50.091  11.855  1.00  0.00    -0.247 OA
HETATM    4  N   UNL     1     -39.618 -48.616  11.208  1.00  0.00    -0.295 N 
HETATM    5  H   UNL     1     -41.166 -50.227  12.057  1.00  0.00     0.164 HD
HETATM    6  H   UNL     1     -38.850 -48.047  10.887  1.00  0.00     0.172 HD
ENDROOT
BRANCH   1   7
HETATM    7  C   UNL     1     -40.107 -51.835  12.918  1.00  0.00     0.129 C 
BRANCH   7   8
HETATM    8  C   UNL     1     -40.987 -52.944  12.318  1.00  0.00     0.006 C 
HETATM    9  C   UNL     1     -42.416 -52.414  12.174  1.00  0.00     0.027 C 
HETATM   10  C   UNL     1     -43.072 -52.263  13.539  1.00  0.00     0.135 C 
HETATM   11  N   UNL     1     -43.176 -53.584  14.177  1.00  0.00    -0.311 N 
HETATM   12  C   UNL     1     -41.890 -54.293  14.356  1.00  0.00     0.135 C 
HETATM   13  C   UNL     1     -41.008 -54.272  13.104  1.00  0.00     0.027 C 
BRANCH  11  14
HETATM   14  S   UNL     1     -44.607 -54.455  13.948  1.00  0.00     0.224 S 
HETATM   15  C   UNL     1     -45.740 -53.480  14.928  1.00  0.00     0.186 C 
HETATM   16  O   UNL     1     -44.476 -55.737  14.597  1.00  0.00    -0.206 OA
HETATM   17  O   UNL     1     -45.006 -54.342  12.563  1.00  0.00    -0.206 OA
ENDBRANCH  11  14
ENDBRANCH   7   8
ENDBRANCH   1   7
BRANCH   4  18
HETATM   18  C   UNL     1     -40.926 -48.124  11.089  1.00  0.00     0.108 A 
HETATM   19  C   UNL     1     -41.509 -47.506  12.189  1.00  0.00     0.049 A 
HETATM   20  C   UNL     1     -42.822 -47.044  12.067  1.00  0.00     0.005 A 
HETATM   21  C   UNL     1     -43.511 -47.203  10.868  1.00  0.00     0.017 A 
HETATM   22  C   UNL     1     -42.852 -47.824   9.827  1.00  0.00     0.089 A 
HETATM   23  N   UNL     1     -41.588 -48.280   9.918  1.00  0.00    -0.352 N 
ATOM     24  HN  UNL     1     -41.139 -48.733   9.122  1.00  0.00     0.166 HD
ENDBRANCH   4  18
TORSDOF 4
ENDMDL
MODEL 3
REMARK VINA RESULT:      -6.3      4.047      6.643
REMARK  4 active torsions:
REMARK  status: ('A' for Active; 'I' for Inactive)
REMARK    1  A    between atoms: S_2  and  N_5 
REMARK    2  A    between atoms: C_8  and  C_9 
REMARK    3  A    between atoms: C_9  and  N_10 
REMARK       I    between atoms: N_10  and  C_11 
REMARK       I    between atoms: C_11  and  N_13 
REMARK    4  A    between atoms: N_13  and  C_14 
ROOT
HETATM    1  N   UNL     1     -42.718 -53.999  14.846  1.00  0.00    -0.342 N 
HETATM    2  C   UNL     1     -43.552 -55.055  15.044  1.00  0.00     0.321 C 
HETATM    3  O   UNL     1     -43.187 -56.140  15.479  1.00  0.00    -0.247 OA
HETATM    4  N   UNL     1     -44.862 -54.836  14.712  1.00  0.00    -0.295 N 
HETATM    5  H   UNL     1     -43.175 -53.154  14.518  1.00  0.00     0.164 HD
HETATM    6  H   UNL     1     -45.455 -55.639  14.859  1.00  0.00     0.172 HD
ENDROOT
BRANCH   1   7
HETATM    7  C   UNL     1     -41.303 -53.969  15.047  1.00  0.00     0.129 C 
BRANCH   7   8
HETATM    8  C   UNL     1     -40.511 -53.860  13.734  1.00  0.00     0.006 C 
HETATM    9  C   UNL     1     -39.051 -53.541  14.066  1.00  0.00     0.027 C 
HETATM   10  C   UNL     1     -38.916 -52.114  14.577  1.00  0.00     0.135 C 
HETATM   11  N   UNL     1     -39.320 -51.177  13.518  1.00  0.00    -0.311 N 
HETATM   12  C   UNL     1     -40.699 -51.362  13.015  1.00  0.00     0.135 C 
HETATM   13  C   UNL     1     -41.046 -52.824  12.721  1.00  0.00     0.027 C 
BRANCH  11  14
HETATM   14  S   UNL     1     -38.112 -50.579  12.498  1.00  0.00     0.224 S 
HETATM   15  C   UNL     1     -37.594 -49.138  13.419  1.00  0.00     0.186 C 
HETATM   16  O   UNL     1     -38.727 -50.109  11.280  1.00  0.00    -0.206 OA
HETATM   17  O   UNL     1     -37.010 -51.515  12.479  1.00  0.00    -0.206 OA
ENDBRANCH  11  14
ENDBRANCH   7   8
ENDBRANCH   1   7
BRANCH   4  18
HETATM   18  C   UNL     1     -45.417 -53.672  14.161  1.00  0.00     0.108 A 
HETATM   19  C   UNL     1     -46.011 -52.748  15.013  1.00  0.00     0.049 A 
HETATM   20  C   UNL     1     -46.585 -51.605  14.449  1.00  0.00     0.005 A 
HETATM   21  C   UNL     1     -46.549 -51.412  13.071  1.00  0.00     0.017 A 
HETATM   22  C   UNL     1     -45.935 -52.380  12.303  1.00  0.00     0.089 A 
HETATM   23  N   UNL     1     -45.376 -53.491  12.820  1.00  0.00    -0.352 N 
ATOM     24  HN  UNL     1     -44.931 -54.180  12.214  1.00  0.00     0.166 HD
ENDBRANCH   4  18
TORSDOF 4
ENDMDL
MODEL 4
REMARK VINA RESULT:      -6.2      1.432      1.600
REMARK  4 active torsions:
REMARK  status: ('A' for Active; 'I' for Inactive)
REMARK    1  A    between atoms: S_2  and  N_5 
REMARK    2  A    between atoms: C_8  and  C_9 
REMARK    3  A    between atoms: C_9  and  N_10 
REMARK       I    between atoms: N_10  and  C_11 
REMARK       I    between atoms: C_11  and  N_13 
REMARK    4  A    between atoms: N_13  and  C_14 
ROOT
HETATM    1  N   UNL     1     -41.283 -49.072  10.722  1.00  0.00    -0.342 N 
HETATM    2  C   UNL     1     -40.978 -47.747  10.729  1.00  0.00     0.321 C 
HETATM    3  O   UNL     1     -39.996 -47.276  11.287  1.00  0.00    -0.247 OA
HETATM    4  N   UNL     1     -41.864 -46.940  10.067  1.00  0.00    -0.295 N 
HETATM    5  H   UNL     1     -42.109 -49.315  10.184  1.00  0.00     0.164 HD
HETATM    6  H   UNL     1     -41.619 -45.962  10.098  1.00  0.00     0.172 HD
ENDROOT
BRANCH   1   7
HETATM    7  C   UNL     1     -40.574 -50.123  11.382  1.00  0.00     0.129 C 
BRANCH   7   8
HETATM    8  C   UNL     1     -41.031 -50.339  12.834  1.00  0.00     0.006 C 
HETATM    9  C   UNL     1     -40.198 -51.466  13.450  1.00  0.00     0.027 C 
HETATM   10  C   UNL     1     -40.585 -52.810  12.847  1.00  0.00     0.135 C 
HETATM   11  N   UNL     1     -41.989 -53.101  13.169  1.00  0.00    -0.311 N 
HETATM   12  C   UNL     1     -42.960 -52.086  12.702  1.00  0.00     0.135 C 
HETATM   13  C   UNL     1     -42.532 -50.650  13.017  1.00  0.00     0.027 C 
BRANCH  11  14
HETATM   14  S   UNL     1     -42.303 -54.005  14.563  1.00  0.00     0.224 S 
HETATM   15  C   UNL     1     -42.618 -52.694  15.736  1.00  0.00     0.186 C 
HETATM   16  O   UNL     1     -41.085 -54.661  14.973  1.00  0.00    -0.206 OA
HETATM   17  O   UNL     1     -43.534 -54.740  14.376  1.00  0.00    -0.206 OA
ENDBRANCH  11  14
ENDBRANCH   7   8
ENDBRANCH   1   7
BRANCH   4  18
HETATM   18  C   UNL     1     -43.051 -47.324   9.427  1.00  0.00     0.108 A 
HETATM   19  C   UNL     1     -44.237 -47.302  10.152  1.00  0.00     0.049 A 
HETATM   20  C   UNL     1     -45.409 -47.713   9.512  1.00  0.00     0.005 A 
HETATM   21  C   UNL     1     -45.371 -48.127   8.183  1.00  0.00     0.017 A 
HETATM   22  C   UNL     1     -44.151 -48.114   7.541  1.00  0.00     0.089 A 
HETATM   23  N   UNL     1     -43.007 -47.723   8.134  1.00  0.00    -0.352 N 
ATOM     24  HN  UNL     1     -42.125 -47.728   7.620  1.00  0.00     0.166 HD
ENDBRANCH   4  18
TORSDOF 4
ENDMDL
MODEL 5
REMARK VINA RESULT:      -6.2      1.604      2.069
REMARK  4 active torsions:
REMARK  status: ('A' for Active; 'I' for Inactive)
REMARK    1  A    between atoms: S_2  and  N_5 
REMARK    2  A    between atoms: C_8  and  C_9 
REMARK    3  A    between atoms: C_9  and  N_10 
REMARK       I    between atoms: N_10  and  C_11 
REMARK       I    between atoms: C_11  and  N_13 
REMARK    4  A    between atoms: N_13  and  C_14 
ROOT
HETATM    1  N   UNL     1     -42.642 -49.321  12.173  1.00  0.00    -0.342 N 
HETATM    2  C   UNL     1     -41.438 -49.488  11.563  1.00  0.00     0.321 C 
HETATM    3  O   UNL     1     -40.559 -50.231  11.981  1.00  0.00    -0.247 OA
HETATM    4  N   UNL     1     -41.250 -48.747  10.427  1.00  0.00    -0.295 N 
HETATM    5  H   UNL     1     -43.282 -48.701  11.686  1.00  0.00     0.164 HD
HETATM    6  H   UNL     1     -40.345 -48.882  10.002  1.00  0.00     0.172 HD
ENDROOT
BRANCH   1   7
HETATM    7  C   UNL     1     -43.077 -49.916  13.398  1.00  0.00     0.129 C 
BRANCH   7   8
HETATM    8  C   UNL     1     -43.902 -51.195  13.186  1.00  0.00     0.006 C 
HETATM    9  C   UNL     1     -44.679 -51.499  14.469  1.00  0.00     0.027 C 
HETATM   10  C   UNL     1     -43.736 -51.971  15.568  1.00  0.00     0.135 C 
HETATM   11  N   UNL     1     -43.099 -53.230  15.155  1.00  0.00    -0.311 N 
HETATM   12  C   UNL     1     -42.337 -53.157  13.888  1.00  0.00     0.135 C 
HETATM   13  C   UNL     1     -43.095 -52.443  12.765  1.00  0.00     0.027 C 
BRANCH  11  14
HETATM   14  S   UNL     1     -43.841 -54.675  15.623  1.00  0.00     0.224 S 
HETATM   15  C   UNL     1     -42.408 -55.644  16.072  1.00  0.00     0.186 C 
HETATM   16  O   UNL     1     -44.426 -55.293  14.457  1.00  0.00    -0.206 OA
HETATM   17  O   UNL     1     -44.611 -54.437  16.823  1.00  0.00    -0.206 OA
ENDBRANCH  11  14
ENDBRANCH   7   8
ENDBRANCH   1   7
BRANCH   4  18
HETATM   18  C   UNL     1     -42.138 -47.823   9.858  1.00  0.00     0.108 A 
HETATM   19  C   UNL     1     -42.224 -46.552  10.413  1.00  0.00     0.049 A 
HETATM   20  C   UNL     1     -43.132 -45.647   9.855  1.00  0.00     0.005 A 
HETATM   21  C   UNL     1     -43.917 -46.027   8.770  1.00  0.00     0.017 A 
HETATM   22  C   UNL     1     -43.763 -47.307   8.281  1.00  0.00     0.089 A 
HETATM   23  N   UNL     1     -42.897 -48.198   8.801  1.00  0.00    -0.352 N 
ATOM     24  HN  UNL     1     -42.814 -49.135   8.407  1.00  0.00     0.166 HD
ENDBRANCH   4  18
TORSDOF 4
ENDMDL
MODEL 6
REMARK VINA RESULT:      -6.1      3.881      7.503
REMARK  4 active torsions:
REMARK  status: ('A' for Active; 'I' for Inactive)
REMARK    1  A    between atoms: S_2  and  N_5 
REMARK    2  A    between atoms: C_8  and  C_9 
REMARK    3  A    between atoms: C_9  and  N_10 
REMARK       I    between atoms: N_10  and  C_11 
REMARK       I    between atoms: C_11  and  N_13 
REMARK    4  A    between atoms: N_13  and  C_14 
ROOT
HETATM    1  N   UNL     1     -42.419 -50.257  12.174  1.00  0.00    -0.342 N 
HETATM    2  C   UNL     1     -42.026 -51.554  12.286  1.00  0.00     0.321 C 
HETATM    3  O   UNL     1     -40.934 -51.969  11.921  1.00  0.00    -0.247 OA
HETATM    4  N   UNL     1     -42.952 -52.400  12.836  1.00  0.00    -0.295 N 
HETATM    5  H   UNL     1     -43.339 -50.058  12.557  1.00  0.00     0.164 HD
HETATM    6  H   UNL     1     -42.637 -53.357  12.896  1.00  0.00     0.172 HD
ENDROOT
BRANCH   1   7
HETATM    7  C   UNL     1     -41.685 -49.182  11.585  1.00  0.00     0.129 C 
BRANCH   7   8
HETATM    8  C   UNL     1     -42.578 -48.009  11.151  1.00  0.00     0.006 C 
HETATM    9  C   UNL     1     -41.820 -47.169  10.120  1.00  0.00     0.027 C 
HETATM   10  C   UNL     1     -40.682 -46.405  10.781  1.00  0.00     0.135 C 
HETATM   11  N   UNL     1     -41.235 -45.462  11.765  1.00  0.00    -0.311 N 
HETATM   12  C   UNL     1     -42.059 -46.082  12.828  1.00  0.00     0.135 C 
HETATM   13  C   UNL     1     -43.075 -47.095  12.293  1.00  0.00     0.027 C 
BRANCH  11  14
HETATM   14  S   UNL     1     -41.557 -43.885  11.247  1.00  0.00     0.224 S 
HETATM   15  C   UNL     1     -41.726 -43.055  12.819  1.00  0.00     0.186 C 
HETATM   16  O   UNL     1     -42.852 -43.863  10.610  1.00  0.00    -0.206 OA
HETATM   17  O   UNL     1     -40.380 -43.361  10.591  1.00  0.00    -0.206 OA
ENDBRANCH  11  14
ENDBRANCH   7   8
ENDBRANCH   1   7
BRANCH   4  18
HETATM   18  C   UNL     1     -44.253 -52.084  13.252  1.00  0.00     0.108 A 
HETATM   19  C   UNL     1     -44.447 -51.639  14.554  1.00  0.00     0.049 A 
HETATM   20  C   UNL     1     -45.752 -51.352  14.966  1.00  0.00     0.005 A 
HETATM   21  C   UNL     1     -46.814 -51.511  14.080  1.00  0.00     0.017 A 
HETATM   22  C   UNL     1     -46.528 -51.954  12.806  1.00  0.00     0.089 A 
HETATM   23  N   UNL     1     -45.281 -52.238  12.384  1.00  0.00    -0.352 N 
ATOM     24  HN  UNL     1     -45.114 -52.561  11.431  1.00  0.00     0.166 HD
ENDBRANCH   4  18
TORSDOF 4
ENDMDL
MODEL 7
REMARK VINA RESULT:      -6.0      5.273      8.765
REMARK  4 active torsions:
REMARK  status: ('A' for Active; 'I' for Inactive)
REMARK    1  A    between atoms: S_2  and  N_5 
REMARK    2  A    between atoms: C_8  and  C_9 
REMARK    3  A    between atoms: C_9  and  N_10 
REMARK       I    between atoms: N_10  and  C_11 
REMARK       I    between atoms: C_11  and  N_13 
REMARK    4  A    between atoms: N_13  and  C_14 
ROOT
HETATM    1  N   UNL     1     -40.226 -47.325  10.885  1.00  0.00    -0.342 N 
HETATM    2  C   UNL     1     -41.149 -48.256  10.524  1.00  0.00     0.321 C 
HETATM    3  O   UNL     1     -42.206 -47.989   9.969  1.00  0.00    -0.247 OA
HETATM    4  N   UNL     1     -40.827 -49.550  10.835  1.00  0.00    -0.295 N 
HETATM    5  H   UNL     1     -39.381 -47.705  11.301  1.00  0.00     0.164 HD
HETATM    6  H   UNL     1     -41.534 -50.218  10.566  1.00  0.00     0.172 HD
ENDROOT
BRANCH   1   7
HETATM    7  C   UNL     1     -40.331 -45.907  10.740  1.00  0.00     0.129 C 
BRANCH   7   8
HETATM    8  C   UNL     1     -40.743 -45.197  12.039  1.00  0.00     0.006 C 
HETATM    9  C   UNL     1     -42.269 -45.080  12.073  1.00  0.00     0.027 C 
HETATM   10  C   UNL     1     -42.752 -44.062  11.049  1.00  0.00     0.135 C 
HETATM   11  N   UNL     1     -42.222 -42.735  11.395  1.00  0.00    -0.311 N 
HETATM   12  C   UNL     1     -40.746 -42.654  11.470  1.00  0.00     0.135 C 
HETATM   13  C   UNL     1     -40.116 -43.804  12.261  1.00  0.00     0.027 C 
BRANCH  11  14
HETATM   14  S   UNL     1     -43.183 -41.733  12.360  1.00  0.00     0.224 S 
HETATM   15  C   UNL     1     -42.016 -40.434  12.740  1.00  0.00     0.186 C 
HETATM   16  O   UNL     1     -43.473 -42.421  13.595  1.00  0.00    -0.206 OA
HETATM   17  O   UNL     1     -44.232 -41.165  11.543  1.00  0.00    -0.206 OA
ENDBRANCH  11  14
ENDBRANCH   7   8
ENDBRANCH   1   7
BRANCH   4  18
HETATM   18  C   UNL     1     -39.684 -50.004  11.510  1.00  0.00     0.108 A 
HETATM   19  C   UNL     1     -39.821 -50.478  12.809  1.00  0.00     0.049 A 
HETATM   20  C   UNL     1     -38.671 -50.902  13.481  1.00  0.00     0.005 A 
HETATM   21  C   UNL     1     -37.432 -50.846  12.849  1.00  0.00     0.017 A 
HETATM   22  C   UNL     1     -37.391 -50.364  11.558  1.00  0.00     0.089 A 
HETATM   23  N   UNL     1     -38.483 -49.948  10.888  1.00  0.00    -0.352 N 
ATOM     24  HN  UNL     1     -38.407 -49.600   9.932  1.00  0.00     0.166 HD
ENDBRANCH   4  18
TORSDOF 4
ENDMDL
MODEL 8
REMARK VINA RESULT:      -6.0      5.489      9.013
REMARK  4 active torsions:
REMARK  status: ('A' for Active; 'I' for Inactive)
REMARK    1  A    between atoms: S_2  and  N_5 
REMARK    2  A    between atoms: C_8  and  C_9 
REMARK    3  A    between atoms: C_9  and  N_10 
REMARK       I    between atoms: N_10  and  C_11 
REMARK       I    between atoms: C_11  and  N_13 
REMARK    4  A    between atoms: N_13  and  C_14 
ROOT
HETATM    1  N   UNL     1     -40.849 -47.321  11.257  1.00  0.00    -0.342 N 
HETATM    2  C   UNL     1     -41.465 -48.279  10.514  1.00  0.00     0.321 C 
HETATM    3  O   UNL     1     -42.468 -48.079   9.840  1.00  0.00    -0.247 OA
HETATM    4  N   UNL     1     -40.893 -49.521  10.570  1.00  0.00    -0.295 N 
HETATM    5  H   UNL     1     -40.005 -47.629  11.730  1.00  0.00     0.164 HD
HETATM    6  H   UNL     1     -41.377 -50.213  10.018  1.00  0.00     0.172 HD
ENDROOT
BRANCH   1   7
HETATM    7  C   UNL     1     -41.264 -45.965  11.431  1.00  0.00     0.129 C 
BRANCH   7   8
HETATM    8  C   UNL     1     -40.091 -45.001  11.672  1.00  0.00     0.006 C 
HETATM    9  C   UNL     1     -39.924 -44.798  13.180  1.00  0.00     0.027 C 
HETATM   10  C   UNL     1     -41.069 -43.967  13.740  1.00  0.00     0.135 C 
HETATM   11  N   UNL     1     -41.043 -42.629  13.131  1.00  0.00    -0.311 N 
HETATM   12  C   UNL     1     -41.138 -42.614  11.654  1.00  0.00     0.135 C 
HETATM   13  C   UNL     1     -40.208 -43.627  10.978  1.00  0.00     0.027 C 
BRANCH  11  14
HETATM   14  S   UNL     1     -40.196 -41.413  13.945  1.00  0.00     0.224 S 
HETATM   15  C   UNL     1     -41.223 -39.999  13.573  1.00  0.00     0.186 C 
HETATM   16  O   UNL     1     -38.931 -41.208  13.281  1.00  0.00    -0.206 OA
HETATM   17  O   UNL     1     -40.276 -41.660  15.367  1.00  0.00    -0.206 OA
ENDBRANCH  11  14
ENDBRANCH   7   8
ENDBRANCH   1   7
BRANCH   4  18
HETATM   18  C   UNL     1     -39.781 -49.912  11.330  1.00  0.00     0.108 A 
HETATM   19  C   UNL     1     -39.988 -50.383  12.621  1.00  0.00     0.049 A 
HETATM   20  C   UNL     1     -38.871 -50.745  13.379  1.00  0.00     0.005 A 
HETATM   21  C   UNL     1     -37.593 -50.632  12.837  1.00  0.00     0.017 A 
HETATM   22  C   UNL     1     -37.483 -50.158  11.546  1.00  0.00     0.089 A 
HETATM   23  N   UNL     1     -38.542 -49.802  10.795  1.00  0.00    -0.352 N 
ATOM     24  HN  UNL     1     -38.414 -49.458   9.844  1.00  0.00     0.166 HD
ENDBRANCH   4  18
TORSDOF 4
ENDMDL
MODEL 9
REMARK VINA RESULT:      -5.7      3.774      7.269
REMARK  4 active torsions:
REMARK  status: ('A' for Active; 'I' for Inactive)
REMARK    1  A    between atoms: S_2  and  N_5 
REMARK    2  A    between atoms: C_8  and  C_9 
REMARK    3  A    between atoms: C_9  and  N_10 
REMARK       I    between atoms: N_10  and  C_11 
REMARK       I    between atoms: C_11  and  N_13 
REMARK    4  A    between atoms: N_13  and  C_14 
ROOT
HETATM    1  N   UNL     1     -40.712 -51.861  13.154  1.00  0.00    -0.342 N 
HETATM    2  C   UNL     1     -40.048 -53.010  13.452  1.00  0.00     0.321 C 
HETATM    3  O   UNL     1     -38.828 -53.099  13.502  1.00  0.00    -0.247 OA
HETATM    4  N   UNL     1     -40.842 -54.100  13.689  1.00  0.00    -0.295 N 
HETATM    5  H   UNL     1     -41.724 -51.935  13.190  1.00  0.00     0.164 HD
HETATM    6  H   UNL     1     -40.323 -54.940  13.896  1.00  0.00     0.172 HD
ENDROOT
BRANCH   1   7
HETATM    7  C   UNL     1     -40.137 -50.600  12.805  1.00  0.00     0.129 C 
BRANCH   7   8
HETATM    8  C   UNL     1     -41.028 -49.406  13.185  1.00  0.00     0.006 C 
HETATM    9  C   UNL     1     -42.012 -49.143  12.042  1.00  0.00     0.027 C 
HETATM   10  C   UNL     1     -41.289 -48.561  10.835  1.00  0.00     0.135 C 
HETATM   11  N   UNL     1     -40.707 -47.260  11.197  1.00  0.00    -0.311 N 
HETATM   12  C   UNL     1     -39.760 -47.295  12.333  1.00  0.00     0.135 C 
HETATM   13  C   UNL     1     -40.277 -48.101  13.528  1.00  0.00     0.027 C 
BRANCH  11  14
HETATM   14  S   UNL     1     -41.633 -45.877  10.898  1.00  0.00     0.224 S 
HETATM   15  C   UNL     1     -40.343 -44.648  10.759  1.00  0.00     0.186 C 
HETATM   16  O   UNL     1     -42.393 -45.565  12.084  1.00  0.00    -0.206 OA
HETATM   17  O   UNL     1     -42.264 -46.008   9.604  1.00  0.00    -0.206 OA
ENDBRANCH  11  14
ENDBRANCH   7   8
ENDBRANCH   1   7
BRANCH   4  18
HETATM   18  C   UNL     1     -42.241 -54.164  13.620  1.00  0.00     0.108 A 
HETATM   19  C   UNL     1     -42.936 -54.747  14.673  1.00  0.00     0.049 A 
HETATM   20  C   UNL     1     -44.328 -54.830  14.580  1.00  0.00     0.005 A 
HETATM   21  C   UNL     1     -44.984 -54.332  13.458  1.00  0.00     0.017 A 
HETATM   22  C   UNL     1     -44.215 -53.767  12.462  1.00  0.00     0.089 A 
HETATM   23  N   UNL     1     -42.873 -53.676  12.526  1.00  0.00    -0.352 N 
ATOM     24  HN  UNL     1     -42.343 -53.248  11.766  1.00  0.00     0.166 HD
ENDBRANCH   4  18
TORSDOF 4
ENDMDL
