MODEL 1
REMARK VINA RESULT:      -6.1      0.000      0.000
REMARK  3 active torsions:
REMARK  status: ('A' for Active; 'I' for Inactive)
REMARK    1  A    between atoms: C_2  and  N_3 
REMARK    2  A    between atoms: C_2  and  C_14 
REMARK       I    between atoms: N_3  and  C_4 
REMARK       I    between atoms: C_4  and  N_6 
REMARK    3  A    between atoms: N_6  and  C_7 
ROOT
HETATM    1  N   UNL     1     -42.134 -49.685  11.573  1.00  0.00    -0.336 N 
HETATM    2  C   UNL     1     -41.132 -48.882  11.130  1.00  0.00     0.322 C 
HETATM    3  O   UNL     1     -39.985 -48.919  11.569  1.00  0.00    -0.247 OA
HETATM    4  N   UNL     1     -41.481 -47.934  10.204  1.00  0.00    -0.293 N 
HETATM    5  H   UNL     1     -42.990 -49.693  11.023  1.00  0.00     0.164 HD
HETATM    6  H   UNL     1     -40.766 -47.250  10.013  1.00  0.00     0.172 HD
ENDROOT
BRANCH   1   7
HETATM    7  C   UNL     1     -42.003 -50.767  12.537  1.00  0.00     0.111 C 
HETATM    8  C   UNL     1     -41.470 -52.002  11.813  1.00  0.00     0.035 C 
BRANCH   7   9
HETATM    9  C   UNL     1     -43.379 -50.986  13.203  1.00  0.00     0.143 C 
HETATM   10  C   UNL     1     -43.721 -50.039  14.344  1.00  0.00     0.036 C 
HETATM   11  C   UNL     1     -44.539 -50.882  15.306  1.00  0.00     0.029 C 
HETATM   12  C   UNL     1     -44.601 -52.256  14.672  1.00  0.00     0.168 C 
HETATM   13  O   UNL     1     -43.496 -52.309  13.764  1.00  0.00    -0.384 OA
ENDBRANCH   7   9
ENDBRANCH   1   7
BRANCH   4  14
HETATM   14  C   UNL     1     -42.706 -47.801   9.578  1.00  0.00     0.132 A 
HETATM   15  C   UNL     1     -43.875 -47.270  10.171  1.00  0.00     0.084 A 
HETATM   16  C   UNL     1     -44.844 -47.421   9.205  1.00  0.00     0.076 A 
HETATM   17  C   UNL     1     -46.292 -47.181   9.127  1.00  0.00     0.079 C 
HETATM   18  O   UNL     1     -44.281 -47.937   8.085  1.00  0.00    -0.241 OA
HETATM   19  N   UNL     1     -42.948 -48.177   8.318  1.00  0.00    -0.245 N 
ATOM     20  HN  UNL     1     -42.275 -48.567   7.659  1.00  0.00     0.196 HD
ENDBRANCH   4  14
TORSDOF 3
ENDMDL
MODEL 2
REMARK VINA RESULT:      -6.0      3.666      5.338
REMARK  3 active torsions:
REMARK  status: ('A' for Active; 'I' for Inactive)
REMARK    1  A    between atoms: C_2  and  N_3 
REMARK    2  A    between atoms: C_2  and  C_14 
REMARK       I    between atoms: N_3  and  C_4 
REMARK       I    between atoms: C_4  and  N_6 
REMARK    3  A    between atoms: N_6  and  C_7 
ROOT
HETATM    1  N   UNL     1     -44.946 -52.560  12.882  1.00  0.00    -0.336 N 
HETATM    2  C   UNL     1     -44.370 -53.780  12.724  1.00  0.00     0.322 C 
HETATM    3  O   UNL     1     -44.993 -54.838  12.774  1.00  0.00    -0.247 OA
HETATM    4  N   UNL     1     -43.007 -53.793  12.591  1.00  0.00    -0.293 N 
HETATM    5  H   UNL     1     -44.374 -51.752  12.647  1.00  0.00     0.164 HD
HETATM    6  H   UNL     1     -42.588 -54.709  12.639  1.00  0.00     0.172 HD
ENDROOT
BRANCH   1   7
HETATM    7  C   UNL     1     -46.369 -52.295  13.024  1.00  0.00     0.111 C 
HETATM    8  C   UNL     1     -46.877 -51.657  11.733  1.00  0.00     0.035 C 
BRANCH   7   9
HETATM    9  C   UNL     1     -46.569 -51.409  14.274  1.00  0.00     0.143 C 
HETATM   10  C   UNL     1     -45.298 -50.970  14.985  1.00  0.00     0.036 C 
HETATM   11  C   UNL     1     -45.679 -50.926  16.453  1.00  0.00     0.029 C 
HETATM   12  C   UNL     1     -47.131 -51.357  16.498  1.00  0.00     0.168 C 
HETATM   13  O   UNL     1     -47.352 -52.079  15.282  1.00  0.00    -0.384 OA
ENDBRANCH   7   9
ENDBRANCH   1   7
BRANCH   4  14
HETATM   14  C   UNL     1     -42.178 -52.695  12.463  1.00  0.00     0.132 A 
HETATM   15  C   UNL     1     -41.766 -51.852  13.522  1.00  0.00     0.084 A 
HETATM   16  C   UNL     1     -41.033 -50.864  12.904  1.00  0.00     0.076 A 
HETATM   17  C   UNL     1     -40.373 -49.624  13.336  1.00  0.00     0.079 C 
HETATM   18  O   UNL     1     -40.947 -51.136  11.579  1.00  0.00    -0.241 OA
HETATM   19  N   UNL     1     -41.663 -52.275  11.303  1.00  0.00    -0.245 N 
ATOM     20  HN  UNL     1     -41.779 -52.716  10.390  1.00  0.00     0.196 HD
ENDBRANCH   4  14
TORSDOF 3
ENDMDL
MODEL 3
REMARK VINA RESULT:      -5.7      4.433      6.466
REMARK  3 active torsions:
REMARK  status: ('A' for Active; 'I' for Inactive)
REMARK    1  A    between atoms: C_2  and  N_3 
REMARK    2  A    between atoms: C_2  and  C_14 
REMARK       I    between atoms: N_3  and  C_4 
REMARK       I    between atoms: C_4  and  N_6 
REMARK    3  A    between atoms: N_6  and  C_7 
ROOT
HETATM    1  N   UNL     1     -43.797 -52.104  13.686  1.00  0.00    -0.336 N 
HETATM    2  C   UNL     1     -44.149 -53.040  12.766  1.00  0.00     0.322 C 
HETATM    3  O   UNL     1     -45.256 -53.090  12.236  1.00  0.00    -0.247 OA
HETATM    4  N   UNL     1     -43.221 -54.015  12.509  1.00  0.00    -0.293 N 
HETATM    5  H   UNL     1     -42.810 -52.049  13.925  1.00  0.00     0.164 HD
HETATM    6  H   UNL     1     -43.562 -54.783  11.953  1.00  0.00     0.172 HD
ENDROOT
BRANCH   1   7
HETATM    7  C   UNL     1     -44.605 -50.970  14.108  1.00  0.00     0.111 C 
HETATM    8  C   UNL     1     -43.677 -49.788  14.385  1.00  0.00     0.035 C 
BRANCH   7   9
HETATM    9  C   UNL     1     -45.438 -51.405  15.333  1.00  0.00     0.143 C 
HETATM   10  C   UNL     1     -46.928 -51.595  15.088  1.00  0.00     0.036 C 
HETATM   11  C   UNL     1     -47.586 -51.161  16.385  1.00  0.00     0.029 C 
HETATM   12  C   UNL     1     -46.444 -50.735  17.284  1.00  0.00     0.168 C 
HETATM   13  O   UNL     1     -45.354 -50.443  16.404  1.00  0.00    -0.384 OA
ENDBRANCH   7   9
ENDBRANCH   1   7
BRANCH   4  14
HETATM   14  C   UNL     1     -41.924 -54.066  12.982  1.00  0.00     0.132 A 
HETATM   15  C   UNL     1     -41.543 -54.434  14.293  1.00  0.00     0.084 A 
HETATM   16  C   UNL     1     -40.179 -54.253  14.315  1.00  0.00     0.076 A 
HETATM   17  C   UNL     1     -39.125 -54.350  15.335  1.00  0.00     0.079 C 
HETATM   18  O   UNL     1     -39.760 -53.876  13.082  1.00  0.00    -0.241 OA
HETATM   19  N   UNL     1     -40.847 -53.756  12.251  1.00  0.00    -0.245 N 
ATOM     20  HN  UNL     1     -40.836 -53.483  11.268  1.00  0.00     0.196 HD
ENDBRANCH   4  14
TORSDOF 3
ENDMDL
MODEL 4
REMARK VINA RESULT:      -5.6      3.614      6.326
REMARK  3 active torsions:
REMARK  status: ('A' for Active; 'I' for Inactive)
REMARK    1  A    between atoms: C_2  and  N_3 
REMARK    2  A    between atoms: C_2  and  C_14 
REMARK       I    between atoms: N_3  and  C_4 
REMARK       I    between atoms: C_4  and  N_6 
REMARK    3  A    between atoms: N_6  and  C_7 
ROOT
HETATM    1  N   UNL     1     -39.649 -50.231  12.290  1.00  0.00    -0.336 N 
HETATM    2  C   UNL     1     -40.723 -50.073  11.472  1.00  0.00     0.322 C 
HETATM    3  O   UNL     1     -40.915 -49.072  10.787  1.00  0.00    -0.247 OA
HETATM    4  N   UNL     1     -41.663 -51.069  11.510  1.00  0.00    -0.293 N 
HETATM    5  H   UNL     1     -39.499 -51.162  12.671  1.00  0.00     0.164 HD
HETATM    6  H   UNL     1     -42.521 -50.856  11.024  1.00  0.00     0.172 HD
ENDROOT
BRANCH   1   7
HETATM    7  C   UNL     1     -38.521 -49.319  12.410  1.00  0.00     0.111 C 
HETATM    8  C   UNL     1     -37.359 -49.872  11.588  1.00  0.00     0.035 C 
BRANCH   7   9
HETATM    9  C   UNL     1     -38.196 -49.154  13.911  1.00  0.00     0.143 C 
HETATM   10  C   UNL     1     -37.576 -47.824  14.312  1.00  0.00     0.036 C 
HETATM   11  C   UNL     1     -36.627 -48.172  15.443  1.00  0.00     0.029 C 
HETATM   12  C   UNL     1     -36.745 -49.673  15.611  1.00  0.00     0.168 C 
HETATM   13  O   UNL     1     -37.265 -50.156  14.368  1.00  0.00    -0.384 OA
ENDBRANCH   7   9
ENDBRANCH   1   7
BRANCH   4  14
HETATM   14  C   UNL     1     -41.567 -52.272  12.183  1.00  0.00     0.132 A 
HETATM   15  C   UNL     1     -42.145 -52.555  13.442  1.00  0.00     0.084 A 
HETATM   16  C   UNL     1     -41.710 -53.827  13.738  1.00  0.00     0.076 A 
HETATM   17  C   UNL     1     -41.831 -54.734  14.888  1.00  0.00     0.079 C 
HETATM   18  O   UNL     1     -40.985 -54.304  12.697  1.00  0.00    -0.241 OA
HETATM   19  N   UNL     1     -40.893 -53.334  11.728  1.00  0.00    -0.245 N 
ATOM     20  HN  UNL     1     -40.404 -53.408  10.836  1.00  0.00     0.196 HD
ENDBRANCH   4  14
TORSDOF 3
ENDMDL
MODEL 5
REMARK VINA RESULT:      -5.6      4.229      5.594
REMARK  3 active torsions:
REMARK  status: ('A' for Active; 'I' for Inactive)
REMARK    1  A    between atoms: C_2  and  N_3 
REMARK    2  A    between atoms: C_2  and  C_14 
REMARK       I    between atoms: N_3  and  C_4 
REMARK       I    between atoms: C_4  and  N_6 
REMARK    3  A    between atoms: N_6  and  C_7 
ROOT
HETATM    1  N   UNL     1     -43.810 -53.732  13.691  1.00  0.00    -0.336 N 
HETATM    2  C   UNL     1     -44.168 -53.223  12.483  1.00  0.00     0.322 C 
HETATM    3  O   UNL     1     -45.292 -53.342  12.001  1.00  0.00    -0.247 OA
HETATM    4  N   UNL     1     -43.169 -52.630  11.757  1.00  0.00    -0.293 N 
HETATM    5  H   UNL     1     -42.916 -53.425  14.068  1.00  0.00     0.164 HD
HETATM    6  H   UNL     1     -43.417 -52.407  10.805  1.00  0.00     0.172 HD
ENDROOT
BRANCH   1   7
HETATM    7  C   UNL     1     -44.695 -54.389  14.641  1.00  0.00     0.111 C 
HETATM    8  C   UNL     1     -45.629 -55.321  13.873  1.00  0.00     0.035 C 
BRANCH   7   9
HETATM    9  C   UNL     1     -45.433 -53.296  15.445  1.00  0.00     0.143 C 
HETATM   10  C   UNL     1     -46.829 -52.942  14.955  1.00  0.00     0.036 C 
HETATM   11  C   UNL     1     -46.967 -51.457  15.234  1.00  0.00     0.029 C 
HETATM   12  C   UNL     1     -45.643 -51.046  15.847  1.00  0.00     0.168 C 
HETATM   13  O   UNL     1     -44.707 -52.050  15.441  1.00  0.00    -0.384 OA
ENDBRANCH   7   9
ENDBRANCH   1   7
BRANCH   4  14
HETATM   14  C   UNL     1     -41.879 -52.374  12.180  1.00  0.00     0.132 A 
HETATM   15  C   UNL     1     -41.475 -51.256  12.947  1.00  0.00     0.084 A 
HETATM   16  C   UNL     1     -40.108 -51.388  13.045  1.00  0.00     0.076 A 
HETATM   17  C   UNL     1     -39.016 -50.582  13.609  1.00  0.00     0.079 C 
HETATM   18  O   UNL     1     -39.727 -52.542  12.444  1.00  0.00    -0.241 OA
HETATM   19  N   UNL     1     -40.830 -53.155  11.902  1.00  0.00    -0.245 N 
ATOM     20  HN  UNL     1     -40.846 -54.036  11.387  1.00  0.00     0.196 HD
ENDBRANCH   4  14
TORSDOF 3
ENDMDL
MODEL 6
REMARK VINA RESULT:      -5.6      3.713      5.957
REMARK  3 active torsions:
REMARK  status: ('A' for Active; 'I' for Inactive)
REMARK    1  A    between atoms: C_2  and  N_3 
REMARK    2  A    between atoms: C_2  and  C_14 
REMARK       I    between atoms: N_3  and  C_4 
REMARK       I    between atoms: C_4  and  N_6 
REMARK    3  A    between atoms: N_6  and  C_7 
ROOT
HETATM    1  N   UNL     1     -41.749 -45.865  11.282  1.00  0.00    -0.336 N 
HETATM    2  C   UNL     1     -41.038 -46.997  11.043  1.00  0.00     0.322 C 
HETATM    3  O   UNL     1     -39.949 -47.239  11.557  1.00  0.00    -0.247 OA
HETATM    4  N   UNL     1     -41.556 -47.850  10.104  1.00  0.00    -0.293 N 
HETATM    5  H   UNL     1     -42.709 -45.849  10.945  1.00  0.00     0.164 HD
HETATM    6  H   UNL     1     -40.937 -48.595   9.825  1.00  0.00     0.172 HD
ENDROOT
BRANCH   1   7
HETATM    7  C   UNL     1     -41.409 -44.825  12.242  1.00  0.00     0.111 C 
HETATM    8  C   UNL     1     -42.485 -44.791  13.325  1.00  0.00     0.035 C 
BRANCH   7   9
HETATM    9  C   UNL     1     -41.261 -43.494  11.473  1.00  0.00     0.143 C 
HETATM   10  C   UNL     1     -40.334 -42.465  12.103  1.00  0.00     0.036 C 
HETATM   11  C   UNL     1     -40.963 -41.127  11.764  1.00  0.00     0.029 C 
HETATM   12  C   UNL     1     -42.214 -41.466  10.980  1.00  0.00     0.168 C 
HETATM   13  O   UNL     1     -42.527 -42.819  11.326  1.00  0.00    -0.384 OA
ENDBRANCH   7   9
ENDBRANCH   1   7
BRANCH   4  14
HETATM   14  C   UNL     1     -42.786 -47.746   9.481  1.00  0.00     0.132 A 
HETATM   15  C   UNL     1     -44.009 -47.454  10.128  1.00  0.00     0.084 A 
HETATM   16  C   UNL     1     -44.951 -47.542   9.129  1.00  0.00     0.076 A 
HETATM   17  C   UNL     1     -46.417 -47.451   9.059  1.00  0.00     0.079 C 
HETATM   18  O   UNL     1     -44.330 -47.794   7.950  1.00  0.00    -0.241 OA
HETATM   19  N   UNL     1     -42.980 -47.925   8.170  1.00  0.00    -0.245 N 
ATOM     20  HN  UNL     1     -42.265 -48.120   7.470  1.00  0.00     0.196 HD
ENDBRANCH   4  14
TORSDOF 3
ENDMDL
MODEL 7
REMARK VINA RESULT:      -5.6      4.232      5.981
REMARK  3 active torsions:
REMARK  status: ('A' for Active; 'I' for Inactive)
REMARK    1  A    between atoms: C_2  and  N_3 
REMARK    2  A    between atoms: C_2  and  C_14 
REMARK       I    between atoms: N_3  and  C_4 
REMARK       I    between atoms: C_4  and  N_6 
REMARK    3  A    between atoms: N_6  and  C_7 
ROOT
HETATM    1  N   UNL     1     -43.332 -53.984  14.005  1.00  0.00    -0.336 N 
HETATM    2  C   UNL     1     -43.929 -53.820  12.796  1.00  0.00     0.322 C 
HETATM    3  O   UNL     1     -45.017 -54.310  12.501  1.00  0.00    -0.247 OA
HETATM    4  N   UNL     1     -43.206 -53.138  11.852  1.00  0.00    -0.293 N 
HETATM    5  H   UNL     1     -42.527 -53.394  14.200  1.00  0.00     0.164 HD
HETATM    6  H   UNL     1     -43.594 -53.170  10.922  1.00  0.00     0.172 HD
ENDROOT
BRANCH   1   7
HETATM    7  C   UNL     1     -43.907 -54.655  15.161  1.00  0.00     0.111 C 
HETATM    8  C   UNL     1     -44.976 -53.748  15.769  1.00  0.00     0.035 C 
BRANCH   7   9
HETATM    9  C   UNL     1     -42.760 -54.999  16.136  1.00  0.00     0.143 C 
HETATM   10  C   UNL     1     -41.375 -54.520  15.725  1.00  0.00     0.036 C 
HETATM   11  C   UNL     1     -40.433 -55.595  16.236  1.00  0.00     0.029 C 
HETATM   12  C   UNL     1     -41.329 -56.627  16.889  1.00  0.00     0.168 C 
HETATM   13  O   UNL     1     -42.626 -56.423  16.318  1.00  0.00    -0.384 OA
ENDBRANCH   7   9
ENDBRANCH   1   7
BRANCH   4  14
HETATM   14  C   UNL     1     -42.003 -52.487  12.044  1.00  0.00     0.132 A 
HETATM   15  C   UNL     1     -41.856 -51.152  12.488  1.00  0.00     0.084 A 
HETATM   16  C   UNL     1     -40.499 -50.926  12.441  1.00  0.00     0.076 A 
HETATM   17  C   UNL     1     -39.621 -49.769  12.672  1.00  0.00     0.079 C 
HETATM   18  O   UNL     1     -39.869 -52.067  12.068  1.00  0.00    -0.241 OA
HETATM   19  N   UNL     1     -40.807 -53.039  11.818  1.00  0.00    -0.245 N 
ATOM     20  HN  UNL     1     -40.626 -53.997  11.517  1.00  0.00     0.196 HD
ENDBRANCH   4  14
TORSDOF 3
ENDMDL
MODEL 8
REMARK VINA RESULT:      -5.5      3.571      6.339
REMARK  3 active torsions:
REMARK  status: ('A' for Active; 'I' for Inactive)
REMARK    1  A    between atoms: C_2  and  N_3 
REMARK    2  A    between atoms: C_2  and  C_14 
REMARK       I    between atoms: N_3  and  C_4 
REMARK       I    between atoms: C_4  and  N_6 
REMARK    3  A    between atoms: N_6  and  C_7 
ROOT
HETATM    1  N   UNL     1     -40.830 -47.063  10.662  1.00  0.00    -0.336 N 
HETATM    2  C   UNL     1     -41.578 -48.124  10.260  1.00  0.00     0.322 C 
HETATM    3  O   UNL     1     -42.627 -48.017   9.629  1.00  0.00    -0.247 OA
HETATM    4  N   UNL     1     -41.150 -49.357  10.676  1.00  0.00    -0.293 N 
HETATM    5  H   UNL     1     -39.900 -47.269  11.018  1.00  0.00     0.164 HD
HETATM    6  H   UNL     1     -41.802 -50.107  10.507  1.00  0.00     0.172 HD
ENDROOT
BRANCH   1   7
HETATM    7  C   UNL     1     -41.076 -45.667  10.333  1.00  0.00     0.111 C 
HETATM    8  C   UNL     1     -39.750 -44.911  10.398  1.00  0.00     0.035 C 
BRANCH   7   9
HETATM    9  C   UNL     1     -42.147 -45.126  11.305  1.00  0.00     0.143 C 
HETATM   10  C   UNL     1     -42.339 -43.617  11.307  1.00  0.00     0.036 C 
HETATM   11  C   UNL     1     -42.682 -43.278  12.746  1.00  0.00     0.029 C 
HETATM   12  C   UNL     1     -42.649 -44.602  13.482  1.00  0.00     0.168 C 
HETATM   13  O   UNL     1     -41.847 -45.469  12.673  1.00  0.00    -0.384 OA
ENDBRANCH   7   9
ENDBRANCH   1   7
BRANCH   4  14
HETATM   14  C   UNL     1     -39.972 -49.643  11.339  1.00  0.00     0.132 A 
HETATM   15  C   UNL     1     -39.814 -49.692  12.744  1.00  0.00     0.084 A 
HETATM   16  C   UNL     1     -38.469 -49.924  12.927  1.00  0.00     0.076 A 
HETATM   17  C   UNL     1     -37.570 -50.014  14.086  1.00  0.00     0.079 C 
HETATM   18  O   UNL     1     -37.875 -50.077  11.718  1.00  0.00    -0.241 OA
HETATM   19  N   UNL     1     -38.811 -49.899  10.728  1.00  0.00    -0.245 N 
ATOM     20  HN  UNL     1     -38.651 -49.952   9.722  1.00  0.00     0.196 HD
ENDBRANCH   4  14
TORSDOF 3
ENDMDL
MODEL 9
REMARK VINA RESULT:      -5.5      2.730      5.773
REMARK  3 active torsions:
REMARK  status: ('A' for Active; 'I' for Inactive)
REMARK    1  A    between atoms: C_2  and  N_3 
REMARK    2  A    between atoms: C_2  and  C_14 
REMARK       I    between atoms: N_3  and  C_4 
REMARK       I    between atoms: C_4  and  N_6 
REMARK    3  A    between atoms: N_6  and  C_7 
ROOT
HETATM    1  N   UNL     1     -41.793 -51.061  12.643  1.00  0.00    -0.336 N 
HETATM    2  C   UNL     1     -40.990 -52.151  12.529  1.00  0.00     0.322 C 
HETATM    3  O   UNL     1     -39.774 -52.087  12.371  1.00  0.00    -0.247 OA
HETATM    4  N   UNL     1     -41.621 -53.367  12.507  1.00  0.00    -0.293 N 
HETATM    5  H   UNL     1     -42.750 -51.228  12.947  1.00  0.00     0.164 HD
HETATM    6  H   UNL     1     -41.028 -54.144  12.259  1.00  0.00     0.172 HD
ENDROOT
BRANCH   1   7
HETATM    7  C   UNL     1     -41.354 -49.675  12.706  1.00  0.00     0.111 C 
HETATM    8  C   UNL     1     -41.833 -49.071  14.024  1.00  0.00     0.035 C 
BRANCH   7   9
HETATM    9  C   UNL     1     -41.894 -48.944  11.457  1.00  0.00     0.143 C 
HETATM   10  C   UNL     1     -41.098 -47.729  11.004  1.00  0.00     0.036 C 
HETATM   11  C   UNL     1     -42.141 -46.774  10.453  1.00  0.00     0.029 C 
HETATM   12  C   UNL     1     -43.465 -47.487  10.637  1.00  0.00     0.168 C 
HETATM   13  O   UNL     1     -43.236 -48.459  11.662  1.00  0.00    -0.384 OA
ENDBRANCH   7   9
ENDBRANCH   1   7
BRANCH   4  14
HETATM   14  C   UNL     1     -42.965 -53.605  12.725  1.00  0.00     0.132 A 
HETATM   15  C   UNL     1     -43.513 -54.205  13.883  1.00  0.00     0.084 A 
HETATM   16  C   UNL     1     -44.857 -54.309  13.607  1.00  0.00     0.076 A 
HETATM   17  C   UNL     1     -46.024 -54.891  14.287  1.00  0.00     0.079 C 
HETATM   18  O   UNL     1     -45.111 -53.744  12.401  1.00  0.00    -0.241 OA
HETATM   19  N   UNL     1     -43.931 -53.308  11.849  1.00  0.00    -0.245 N 
ATOM     20  HN  UNL     1     -43.814 -52.847  10.947  1.00  0.00     0.196 HD
ENDBRANCH   4  14
TORSDOF 3
ENDMDL
