MODEL 1
REMARK VINA RESULT:      -7.0      0.000      0.000
REMARK  5 active torsions:
REMARK  status: ('A' for Active; 'I' for Inactive)
REMARK    1  A    between atoms: N_3  and  C_20 
REMARK    2  A    between atoms: C_7  and  N_10 
REMARK    3  A    between atoms: C_20  and  C_22 
REMARK    4  A    between atoms: C_22  and  C_27 
REMARK    5  A    between atoms: C_27  and  O_28 
ROOT
HETATM    1  C   UNL     1     -41.148 -48.946  12.371  1.00  0.00     0.122 A 
HETATM    2  N   UNL     1     -42.194 -50.900  12.456  1.00  0.00    -0.326 N 
HETATM    3  C   UNL     1     -40.988 -50.312  12.146  1.00  0.00     0.140 A 
HETATM    4  N   UNL     1     -42.433 -48.714  12.839  1.00  0.00    -0.346 N 
ATOM      5  HN  UNL     1     -42.844 -47.813  13.087  1.00  0.00     0.167 HD
HETATM    6  C   UNL     1     -40.030 -48.098  12.081  1.00  0.00     0.135 A 
HETATM    7  C   UNL     1     -43.015 -49.896  12.897  1.00  0.00     0.185 A 
HETATM    8  N   UNL     1     -39.900 -50.944  11.675  1.00  0.00    -0.336 N 
ATOM      9  HN  UNL     1     -39.832 -51.952  11.532  1.00  0.00     0.168 HD
HETATM   10  N   UNL     1     -38.922 -48.730  11.586  1.00  0.00    -0.337 N 
ATOM     11  HN  UNL     1     -38.096 -48.184  11.342  1.00  0.00     0.168 HD
HETATM   12  C   UNL     1     -38.914 -50.068  11.417  1.00  0.00     0.183 A 
ENDROOT
BRANCH   6  13
HETATM   13  N   UNL     1     -39.921 -46.719  12.301  1.00  0.00    -0.363 N 
HETATM   14  C   UNL     1     -40.289 -45.849  11.170  1.00  0.00     0.151 C 
HETATM   15  C   UNL     1     -39.526 -44.506  11.231  1.00  0.00     0.127 C 
HETATM   16  N   UNL     1     -40.177 -43.482  10.431  1.00  0.00    -0.335 N 
HETATM   17  C   UNL     1     -39.601 -43.886  12.624  1.00  0.00     0.114 C 
HETATM   18  C   UNL     1     -41.122 -42.817  11.209  1.00  0.00     0.318 C 
HETATM   19  H   UNL     1     -40.342 -43.547   9.433  1.00  0.00     0.164 HD
HETATM   20  O   UNL     1     -42.073 -42.198  10.770  1.00  0.00    -0.247 OA
HETATM   21  N   UNL     1     -40.827 -43.099  12.548  1.00  0.00    -0.332 N 
HETATM   22  C   UNL     1     -41.829 -42.968  13.576  1.00  0.00     0.155 C 
HETATM   23  C   UNL     1     -39.413 -44.871  13.775  1.00  0.00     0.047 C 
HETATM   24  C   UNL     1     -40.218 -46.158  13.617  1.00  0.00     0.126 C 
ENDBRANCH   6  13
BRANCH   2  25
HETATM   25  C   UNL     1     -42.534 -52.327  12.335  1.00  0.00     0.143 C 
BRANCH  25  26
HETATM   26  C   UNL     1     -42.023 -53.238  13.509  1.00  0.00     0.001 C 
HETATM   27  C   UNL     1     -43.128 -54.260  13.887  1.00  0.00     0.039 C 
HETATM   28  C   UNL     1     -44.234 -53.603  14.713  1.00  0.00     0.168 C 
HETATM   29  O   UNL     1     -43.697 -53.140  15.945  1.00  0.00    -0.391 OA
HETATM   30  C   UNL     1     -42.775 -52.074  15.757  1.00  0.00     0.168 C 
HETATM   31  C   UNL     1     -41.643 -52.454  14.812  1.00  0.00     0.039 C 
BRANCH  26  32
HETATM   32  C   UNL     1     -40.712 -53.939  13.068  1.00  0.00     0.175 C 
BRANCH  32  33
HETATM   33  O   UNL     1     -40.535 -53.799  11.658  1.00  0.00    -0.400 OA
HETATM   34  H   UNL     1     -41.158 -54.413  11.216  1.00  0.00     0.209 HD
ENDBRANCH  32  33
ENDBRANCH  26  32
ENDBRANCH  25  26
ENDBRANCH   2  25
TORSDOF 5
ENDMDL
MODEL 2
REMARK VINA RESULT:      -6.8      2.093      8.284
REMARK  5 active torsions:
REMARK  status: ('A' for Active; 'I' for Inactive)
REMARK    1  A    between atoms: N_3  and  C_20 
REMARK    2  A    between atoms: C_7  and  N_10 
REMARK    3  A    between atoms: C_20  and  C_22 
REMARK    4  A    between atoms: C_22  and  C_27 
REMARK    5  A    between atoms: C_27  and  O_28 
ROOT
HETATM    1  C   UNL     1     -41.764 -48.765  11.491  1.00  0.00     0.122 A 
HETATM    2  N   UNL     1     -41.993 -46.711  10.685  1.00  0.00    -0.326 N 
HETATM    3  C   UNL     1     -41.054 -47.633  11.092  1.00  0.00     0.140 A 
HETATM    4  N   UNL     1     -43.118 -48.538  11.301  1.00  0.00    -0.346 N 
ATOM      5  HN  UNL     1     -43.884 -49.180  11.506  1.00  0.00     0.167 HD
HETATM    6  C   UNL     1     -41.004 -49.869  12.000  1.00  0.00     0.135 A 
HETATM    7  C   UNL     1     -43.214 -47.321  10.803  1.00  0.00     0.185 A 
HETATM    8  N   UNL     1     -39.725 -47.441  11.133  1.00  0.00    -0.336 N 
ATOM      9  HN  UNL     1     -39.253 -46.591  10.823  1.00  0.00     0.168 HD
HETATM   10  N   UNL     1     -39.651 -49.677  12.061  1.00  0.00    -0.337 N 
ATOM     11  HN  UNL     1     -39.052 -50.416  12.429  1.00  0.00     0.168 HD
HETATM   12  C   UNL     1     -39.102 -48.519  11.640  1.00  0.00     0.183 A 
ENDROOT
BRANCH   6  13
HETATM   13  N   UNL     1     -41.478 -51.131  12.381  1.00  0.00    -0.363 N 
HETATM   14  C   UNL     1     -40.462 -52.093  12.844  1.00  0.00     0.151 C 
HETATM   15  C   UNL     1     -40.913 -53.548  12.578  1.00  0.00     0.127 C 
HETATM   16  N   UNL     1     -40.183 -54.495  13.404  1.00  0.00    -0.335 N 
HETATM   17  C   UNL     1     -42.344 -53.781  13.056  1.00  0.00     0.114 C 
HETATM   18  C   UNL     1     -40.846 -54.661  14.617  1.00  0.00     0.318 C 
HETATM   19  H   UNL     1     -39.177 -54.617  13.391  1.00  0.00     0.164 HD
HETATM   20  O   UNL     1     -40.330 -55.062  15.644  1.00  0.00    -0.247 OA
HETATM   21  N   UNL     1     -42.148 -54.176  14.446  1.00  0.00    -0.332 N 
HETATM   22  C   UNL     1     -42.948 -53.771  15.576  1.00  0.00     0.155 C 
HETATM   23  C   UNL     1     -43.322 -52.655  12.727  1.00  0.00     0.047 C 
HETATM   24  C   UNL     1     -42.777 -51.264  13.035  1.00  0.00     0.126 C 
ENDBRANCH   6  13
BRANCH   2  25
HETATM   25  C   UNL     1     -41.733 -45.340  10.218  1.00  0.00     0.143 C 
BRANCH  25  26
HETATM   26  C   UNL     1     -41.952 -44.214  11.292  1.00  0.00     0.001 C 
HETATM   27  C   UNL     1     -40.643 -43.395  11.455  1.00  0.00     0.039 C 
HETATM   28  C   UNL     1     -39.610 -44.158  12.284  1.00  0.00     0.168 C 
HETATM   29  O   UNL     1     -40.108 -44.358  13.600  1.00  0.00    -0.391 OA
HETATM   30  C   UNL     1     -41.228 -45.234  13.618  1.00  0.00     0.168 C 
HETATM   31  C   UNL     1     -42.351 -44.750  12.711  1.00  0.00     0.039 C 
BRANCH  26  32
HETATM   32  C   UNL     1     -43.142 -43.324  10.853  1.00  0.00     0.175 C 
BRANCH  32  33
HETATM   33  O   UNL     1     -43.822 -43.928   9.752  1.00  0.00    -0.400 OA
HETATM   34  H   UNL     1     -43.226 -43.890   8.975  1.00  0.00     0.209 HD
ENDBRANCH  32  33
ENDBRANCH  26  32
ENDBRANCH  25  26
ENDBRANCH   2  25
TORSDOF 5
ENDMDL
MODEL 3
REMARK VINA RESULT:      -6.7      1.521      2.137
REMARK  5 active torsions:
REMARK  status: ('A' for Active; 'I' for Inactive)
REMARK    1  A    between atoms: N_3  and  C_20 
REMARK    2  A    between atoms: C_7  and  N_10 
REMARK    3  A    between atoms: C_20  and  C_22 
REMARK    4  A    between atoms: C_22  and  C_27 
REMARK    5  A    between atoms: C_27  and  O_28 
ROOT
HETATM    1  C   UNL     1     -42.354 -49.159  12.348  1.00  0.00     0.122 A 
HETATM    2  N   UNL     1     -42.770 -51.307  12.715  1.00  0.00    -0.326 N 
HETATM    3  C   UNL     1     -41.875 -50.448  12.118  1.00  0.00     0.140 A 
HETATM    4  N   UNL     1     -43.515 -49.239  13.102  1.00  0.00    -0.346 N 
ATOM      5  HN  UNL     1     -44.095 -48.462  13.422  1.00  0.00     0.167 HD
HETATM    6  C   UNL     1     -41.609 -48.073  11.786  1.00  0.00     0.135 A 
HETATM    7  C   UNL     1     -43.718 -50.524  13.318  1.00  0.00     0.185 A 
HETATM    8  N   UNL     1     -40.786 -50.806  11.415  1.00  0.00    -0.336 N 
ATOM      9  HN  UNL     1     -40.474 -51.767  11.280  1.00  0.00     0.168 HD
HETATM   10  N   UNL     1     -40.507 -48.427  11.055  1.00  0.00    -0.337 N 
ATOM     11  HN  UNL     1     -39.940 -47.703  10.613  1.00  0.00     0.168 HD
HETATM   12  C   UNL     1     -40.165 -49.723  10.914  1.00  0.00     0.183 A 
ENDROOT
BRANCH   6  13
HETATM   13  N   UNL     1     -41.840 -46.700  11.948  1.00  0.00    -0.363 N 
HETATM   14  C   UNL     1     -41.584 -46.153  13.291  1.00  0.00     0.151 C 
HETATM   15  C   UNL     1     -42.467 -44.914  13.565  1.00  0.00     0.127 C 
HETATM   16  N   UNL     1     -41.935 -44.103  14.647  1.00  0.00    -0.335 N 
HETATM   17  C   UNL     1     -42.414 -43.926  12.402  1.00  0.00     0.114 C 
HETATM   18  C   UNL     1     -41.037 -43.172  14.131  1.00  0.00     0.318 C 
HETATM   19  H   UNL     1     -41.790 -44.430  15.595  1.00  0.00     0.164 HD
HETATM   20  O   UNL     1     -40.159 -42.624  14.771  1.00  0.00    -0.247 OA
HETATM   21  N   UNL     1     -41.270 -43.093  12.753  1.00  0.00    -0.332 N 
HETATM   22  C   UNL     1     -40.258 -42.599  11.853  1.00  0.00     0.155 C 
HETATM   23  C   UNL     1     -42.480 -44.564  11.016  1.00  0.00     0.047 C 
HETATM   24  C   UNL     1     -41.563 -45.773  10.855  1.00  0.00     0.126 C 
ENDBRANCH   6  13
BRANCH   2  25
HETATM   25  C   UNL     1     -42.718 -52.778  12.705  1.00  0.00     0.143 C 
BRANCH  25  26
HETATM   26  C   UNL     1     -41.791 -53.422  13.798  1.00  0.00     0.001 C 
HETATM   27  C   UNL     1     -42.501 -54.658  14.414  1.00  0.00     0.039 C 
HETATM   28  C   UNL     1     -43.587 -54.238  15.405  1.00  0.00     0.168 C 
HETATM   29  O   UNL     1     -42.995 -53.548  16.497  1.00  0.00    -0.391 OA
HETATM   30  C   UNL     1     -42.439 -52.301  16.100  1.00  0.00     0.168 C 
HETATM   31  C   UNL     1     -41.421 -52.457  14.977  1.00  0.00     0.039 C 
BRANCH  26  32
HETATM   32  C   UNL     1     -40.433 -53.797  13.150  1.00  0.00     0.175 C 
BRANCH  32  33
HETATM   33  O   UNL     1     -40.542 -53.743  11.727  1.00  0.00    -0.400 OA
HETATM   34  H   UNL     1     -41.063 -52.946  11.497  1.00  0.00     0.209 HD
ENDBRANCH  32  33
ENDBRANCH  26  32
ENDBRANCH  25  26
ENDBRANCH   2  25
TORSDOF 5
ENDMDL
MODEL 4
REMARK VINA RESULT:      -6.7      2.078      8.144
REMARK  5 active torsions:
REMARK  status: ('A' for Active; 'I' for Inactive)
REMARK    1  A    between atoms: N_3  and  C_20 
REMARK    2  A    between atoms: C_7  and  N_10 
REMARK    3  A    between atoms: C_20  and  C_22 
REMARK    4  A    between atoms: C_22  and  C_27 
REMARK    5  A    between atoms: C_27  and  O_28 
ROOT
HETATM    1  C   UNL     1     -41.750 -49.068  11.857  1.00  0.00     0.122 A 
HETATM    2  N   UNL     1     -41.992 -47.100  10.862  1.00  0.00    -0.326 N 
HETATM    3  C   UNL     1     -41.047 -48.000  11.301  1.00  0.00     0.140 A 
HETATM    4  N   UNL     1     -43.110 -48.826  11.730  1.00  0.00    -0.346 N 
ATOM      5  HN  UNL     1     -43.873 -49.425  12.047  1.00  0.00     0.167 HD
HETATM    6  C   UNL     1     -40.981 -50.134  12.427  1.00  0.00     0.135 A 
HETATM    7  C   UNL     1     -43.214 -47.663  11.117  1.00  0.00     0.185 A 
HETATM    8  N   UNL     1     -39.714 -47.838  11.239  1.00  0.00    -0.336 N 
ATOM      9  HN  UNL     1     -39.247 -47.037  10.815  1.00  0.00     0.168 HD
HETATM   10  N   UNL     1     -39.623 -49.971  12.384  1.00  0.00    -0.337 N 
ATOM     11  HN  UNL     1     -39.015 -50.685  12.786  1.00  0.00     0.168 HD
HETATM   12  C   UNL     1     -39.081 -48.876  11.813  1.00  0.00     0.183 A 
ENDROOT
BRANCH   6  13
HETATM   13  N   UNL     1     -41.452 -51.339  12.964  1.00  0.00    -0.363 N 
HETATM   14  C   UNL     1     -42.231 -51.234  14.210  1.00  0.00     0.151 C 
HETATM   15  C   UNL     1     -42.108 -52.525  15.052  1.00  0.00     0.127 C 
HETATM   16  N   UNL     1     -43.185 -52.638  16.022  1.00  0.00    -0.335 N 
HETATM   17  C   UNL     1     -42.345 -53.769  14.200  1.00  0.00     0.114 C 
HETATM   18  C   UNL     1     -44.268 -53.292  15.439  1.00  0.00     0.318 C 
HETATM   19  H   UNL     1     -43.374 -51.965  16.755  1.00  0.00     0.164 HD
HETATM   20  O   UNL     1     -45.419 -53.211  15.823  1.00  0.00    -0.247 OA
HETATM   21  N   UNL     1     -43.791 -53.938  14.292  1.00  0.00    -0.332 N 
HETATM   22  C   UNL     1     -44.682 -54.312  13.221  1.00  0.00     0.155 C 
HETATM   23  C   UNL     1     -41.679 -53.742  12.826  1.00  0.00     0.047 C 
HETATM   24  C   UNL     1     -41.870 -52.424  12.080  1.00  0.00     0.126 C 
ENDBRANCH   6  13
BRANCH   2  25
HETATM   25  C   UNL     1     -41.738 -45.790  10.243  1.00  0.00     0.143 C 
BRANCH  25  26
HETATM   26  C   UNL     1     -41.878 -44.555  11.205  1.00  0.00     0.001 C 
HETATM   27  C   UNL     1     -40.548 -43.755  11.215  1.00  0.00     0.039 C 
HETATM   28  C   UNL     1     -39.485 -44.454  12.064  1.00  0.00     0.168 C 
HETATM   29  O   UNL     1     -39.915 -44.506  13.417  1.00  0.00    -0.391 OA
HETATM   30  C   UNL     1     -41.048 -45.350  13.583  1.00  0.00     0.168 C 
HETATM   31  C   UNL     1     -42.209 -44.934  12.690  1.00  0.00     0.039 C 
BRANCH  26  32
HETATM   32  C   UNL     1     -43.074 -43.686  10.739  1.00  0.00     0.175 C 
BRANCH  32  33
HETATM   33  O   UNL     1     -43.714 -44.300   9.619  1.00  0.00    -0.400 OA
HETATM   34  H   UNL     1     -44.683 -44.236   9.757  1.00  0.00     0.209 HD
ENDBRANCH  32  33
ENDBRANCH  26  32
ENDBRANCH  25  26
ENDBRANCH   2  25
TORSDOF 5
ENDMDL
MODEL 5
REMARK VINA RESULT:      -6.6      2.618      8.449
REMARK  5 active torsions:
REMARK  status: ('A' for Active; 'I' for Inactive)
REMARK    1  A    between atoms: N_3  and  C_20 
REMARK    2  A    between atoms: C_7  and  N_10 
REMARK    3  A    between atoms: C_20  and  C_22 
REMARK    4  A    between atoms: C_22  and  C_27 
REMARK    5  A    between atoms: C_27  and  O_28 
ROOT
HETATM    1  C   UNL     1     -40.480 -49.494  12.660  1.00  0.00     0.122 A 
HETATM    2  N   UNL     1     -40.588 -47.701  11.358  1.00  0.00    -0.326 N 
HETATM    3  C   UNL     1     -39.982 -48.203  12.489  1.00  0.00     0.140 A 
HETATM    4  N   UNL     1     -41.359 -49.779  11.626  1.00  0.00    -0.346 N 
ATOM      5  HN  UNL     1     -41.882 -50.643  11.484  1.00  0.00     0.167 HD
HETATM    6  C   UNL     1     -40.027 -50.224  13.806  1.00  0.00     0.135 A 
HETATM    7  C   UNL     1     -41.380 -48.703  10.864  1.00  0.00     0.185 A 
HETATM    8  N   UNL     1     -39.121 -47.543  13.282  1.00  0.00    -0.336 N 
ATOM      9  HN  UNL     1     -38.783 -46.597  13.109  1.00  0.00     0.168 HD
HETATM   10  N   UNL     1     -39.162 -49.556  14.629  1.00  0.00    -0.337 N 
ATOM     11  HN  UNL     1     -38.812 -50.012  15.472  1.00  0.00     0.168 HD
HETATM   12  C   UNL     1     -38.768 -48.300  14.336  1.00  0.00     0.183 A 
ENDROOT
BRANCH   6  13
HETATM   13  N   UNL     1     -40.316 -51.553  14.145  1.00  0.00    -0.363 N 
HETATM   14  C   UNL     1     -39.240 -52.532  13.908  1.00  0.00     0.151 C 
HETATM   15  C   UNL     1     -39.820 -53.940  13.643  1.00  0.00     0.127 C 
HETATM   16  N   UNL     1     -38.826 -54.979  13.857  1.00  0.00    -0.335 N 
HETATM   17  C   UNL     1     -40.869 -54.315  14.687  1.00  0.00     0.114 C 
HETATM   18  C   UNL     1     -38.849 -55.376  15.192  1.00  0.00     0.318 C 
HETATM   19  H   UNL     1     -37.949 -55.051  13.355  1.00  0.00     0.164 HD
HETATM   20  O   UNL     1     -37.929 -55.920  15.773  1.00  0.00    -0.247 OA
HETATM   21  N   UNL     1     -40.060 -54.928  15.734  1.00  0.00    -0.332 N 
HETATM   22  C   UNL     1     -40.221 -54.755  17.157  1.00  0.00     0.155 C 
HETATM   23  C   UNL     1     -41.841 -53.195  15.049  1.00  0.00     0.047 C 
HETATM   24  C   UNL     1     -41.162 -51.852  15.297  1.00  0.00     0.126 C 
ENDBRANCH   6  13
BRANCH   2  25
HETATM   25  C   UNL     1     -40.417 -46.352  10.795  1.00  0.00     0.143 C 
BRANCH  25  26
HETATM   26  C   UNL     1     -41.558 -45.330  11.146  1.00  0.00     0.001 C 
HETATM   27  C   UNL     1     -41.008 -43.883  11.032  1.00  0.00     0.039 C 
HETATM   28  C   UNL     1     -40.142 -43.522  12.239  1.00  0.00     0.168 C 
HETATM   29  O   UNL     1     -40.936 -43.542  13.418  1.00  0.00    -0.391 OA
HETATM   30  C   UNL     1     -41.379 -44.855  13.738  1.00  0.00     0.168 C 
HETATM   31  C   UNL     1     -42.147 -45.497  12.589  1.00  0.00     0.039 C 
BRANCH  26  32
HETATM   32  C   UNL     1     -42.759 -45.570  10.195  1.00  0.00     0.175 C 
BRANCH  32  33
HETATM   33  O   UNL     1     -42.290 -45.785   8.864  1.00  0.00    -0.400 OA
HETATM   34  H   UNL     1     -42.763 -46.565   8.503  1.00  0.00     0.209 HD
ENDBRANCH  32  33
ENDBRANCH  26  32
ENDBRANCH  25  26
ENDBRANCH   2  25
TORSDOF 5
ENDMDL
MODEL 6
REMARK VINA RESULT:      -6.6      2.104      8.458
REMARK  5 active torsions:
REMARK  status: ('A' for Active; 'I' for Inactive)
REMARK    1  A    between atoms: N_3  and  C_20 
REMARK    2  A    between atoms: C_7  and  N_10 
REMARK    3  A    between atoms: C_20  and  C_22 
REMARK    4  A    between atoms: C_22  and  C_27 
REMARK    5  A    between atoms: C_27  and  O_28 
ROOT
HETATM    1  C   UNL     1     -41.971 -48.652  13.128  1.00  0.00     0.122 A 
HETATM    2  N   UNL     1     -40.808 -46.763  13.145  1.00  0.00    -0.326 N 
HETATM    3  C   UNL     1     -40.998 -47.930  12.438  1.00  0.00     0.140 A 
HETATM    4  N   UNL     1     -42.384 -47.915  14.228  1.00  0.00    -0.346 N 
ATOM      5  HN  UNL     1     -43.081 -48.185  14.922  1.00  0.00     0.167 HD
HETATM    6  C   UNL     1     -42.324 -49.940  12.608  1.00  0.00     0.135 A 
HETATM    7  C   UNL     1     -41.690 -46.794  14.192  1.00  0.00     0.185 A 
HETATM    8  N   UNL     1     -40.332 -48.300  11.331  1.00  0.00    -0.336 N 
ATOM      9  HN  UNL     1     -39.630 -47.730  10.860  1.00  0.00     0.168 HD
HETATM   10  N   UNL     1     -41.640 -50.333  11.490  1.00  0.00    -0.337 N 
ATOM     11  HN  UNL     1     -41.830 -51.246  11.076  1.00  0.00     0.168 HD
HETATM   12  C   UNL     1     -40.717 -49.524  10.930  1.00  0.00     0.183 A 
ENDROOT
BRANCH   6  13
HETATM   13  N   UNL     1     -43.321 -50.807  13.071  1.00  0.00    -0.363 N 
HETATM   14  C   UNL     1     -43.103 -52.243  12.819  1.00  0.00     0.151 C 
HETATM   15  C   UNL     1     -44.447 -52.999  12.715  1.00  0.00     0.127 C 
HETATM   16  N   UNL     1     -44.276 -54.427  12.922  1.00  0.00    -0.335 N 
HETATM   17  C   UNL     1     -45.377 -52.642  13.871  1.00  0.00     0.114 C 
HETATM   18  C   UNL     1     -44.382 -54.715  14.281  1.00  0.00     0.318 C 
HETATM   19  H   UNL     1     -43.690 -55.027  12.353  1.00  0.00     0.164 HD
HETATM   20  O   UNL     1     -43.925 -55.706  14.821  1.00  0.00    -0.247 OA
HETATM   21  N   UNL     1     -44.995 -53.614  14.889  1.00  0.00    -0.332 N 
HETATM   22  C   UNL     1     -44.852 -53.367  16.303  1.00  0.00     0.155 C 
HETATM   23  C   UNL     1     -45.414 -51.158  14.229  1.00  0.00     0.047 C 
HETATM   24  C   UNL     1     -44.034 -50.514  14.312  1.00  0.00     0.126 C 
ENDBRANCH   6  13
BRANCH   2  25
HETATM   25  C   UNL     1     -39.844 -45.695  12.835  1.00  0.00     0.143 C 
BRANCH  25  26
HETATM   26  C   UNL     1     -40.352 -44.610  11.818  1.00  0.00     0.001 C 
HETATM   27  C   UNL     1     -39.828 -43.214  12.249  1.00  0.00     0.039 C 
HETATM   28  C   UNL     1     -40.626 -42.660  13.429  1.00  0.00     0.168 C 
HETATM   29  O   UNL     1     -41.978 -42.462  13.039  1.00  0.00    -0.391 OA
HETATM   30  C   UNL     1     -42.639 -43.691  12.768  1.00  0.00     0.168 C 
HETATM   31  C   UNL     1     -41.913 -44.512  11.710  1.00  0.00     0.039 C 
BRANCH  26  32
HETATM   32  C   UNL     1     -39.877 -44.993  10.393  1.00  0.00     0.175 C 
BRANCH  32  33
HETATM   33  O   UNL     1     -40.936 -45.639   9.684  1.00  0.00    -0.400 OA
HETATM   34  H   UNL     1     -41.605 -44.958   9.461  1.00  0.00     0.209 HD
ENDBRANCH  32  33
ENDBRANCH  26  32
ENDBRANCH  25  26
ENDBRANCH   2  25
TORSDOF 5
ENDMDL
MODEL 7
REMARK VINA RESULT:      -6.6      1.943      8.343
REMARK  5 active torsions:
REMARK  status: ('A' for Active; 'I' for Inactive)
REMARK    1  A    between atoms: N_3  and  C_20 
REMARK    2  A    between atoms: C_7  and  N_10 
REMARK    3  A    between atoms: C_20  and  C_22 
REMARK    4  A    between atoms: C_22  and  C_27 
REMARK    5  A    between atoms: C_27  and  O_28 
ROOT
HETATM    1  C   UNL     1     -41.686 -47.457  12.018  1.00  0.00     0.122 A 
HETATM    2  N   UNL     1     -41.008 -45.367  11.708  1.00  0.00    -0.326 N 
HETATM    3  C   UNL     1     -41.990 -46.267  11.358  1.00  0.00     0.140 A 
HETATM    4  N   UNL     1     -40.544 -47.269  12.782  1.00  0.00    -0.346 N 
ATOM      5  HN  UNL     1     -40.077 -47.959  13.371  1.00  0.00     0.167 HD
HETATM    6  C   UNL     1     -42.549 -48.576  11.783  1.00  0.00     0.135 A 
HETATM    7  C   UNL     1     -40.184 -46.015  12.591  1.00  0.00     0.185 A 
HETATM    8  N   UNL     1     -43.005 -46.036  10.507  1.00  0.00    -0.336 N 
ATOM      9  HN  UNL     1     -43.187 -45.142  10.052  1.00  0.00     0.168 HD
HETATM   10  N   UNL     1     -43.577 -48.356  10.906  1.00  0.00    -0.337 N 
ATOM     11  HN  UNL     1     -44.220 -49.115  10.681  1.00  0.00     0.168 HD
HETATM   12  C   UNL     1     -43.746 -47.145  10.338  1.00  0.00     0.183 A 
ENDROOT
BRANCH   6  13
HETATM   13  N   UNL     1     -42.500 -49.838  12.388  1.00  0.00    -0.363 N 
HETATM   14  C   UNL     1     -41.487 -50.771  11.863  1.00  0.00     0.151 C 
HETATM   15  C   UNL     1     -41.931 -52.239  12.057  1.00  0.00     0.127 C 
HETATM   16  N   UNL     1     -40.805 -53.155  11.979  1.00  0.00    -0.335 N 
HETATM   17  C   UNL     1     -42.416 -52.489  13.483  1.00  0.00     0.114 C 
HETATM   18  C   UNL     1     -40.241 -53.307  13.243  1.00  0.00     0.318 C 
HETATM   19  H   UNL     1     -40.200 -53.258  11.172  1.00  0.00     0.164 HD
HETATM   20  O   UNL     1     -39.102 -53.676  13.458  1.00  0.00    -0.247 OA
HETATM   21  N   UNL     1     -41.183 -52.850  14.173  1.00  0.00    -0.332 N 
HETATM   22  C   UNL     1     -40.785 -52.435  15.495  1.00  0.00     0.155 C 
HETATM   23  C   UNL     1     -43.304 -51.388  14.060  1.00  0.00     0.047 C 
HETATM   24  C   UNL     1     -42.768 -49.981  13.817  1.00  0.00     0.126 C 
ENDBRANCH   6  13
BRANCH   2  25
HETATM   25  C   UNL     1     -40.871 -43.984  11.227  1.00  0.00     0.143 C 
BRANCH  25  26
HETATM   26  C   UNL     1     -41.797 -42.932  11.939  1.00  0.00     0.001 C 
HETATM   27  C   UNL     1     -40.918 -41.877  12.663  1.00  0.00     0.039 C 
HETATM   28  C   UNL     1     -40.341 -42.435  13.964  1.00  0.00     0.168 C 
HETATM   29  O   UNL     1     -41.398 -42.740  14.863  1.00  0.00    -0.391 OA
HETATM   30  C   UNL     1     -42.200 -43.817  14.395  1.00  0.00     0.168 C 
HETATM   31  C   UNL     1     -42.766 -43.549  13.006  1.00  0.00     0.039 C 
BRANCH  26  32
HETATM   32  C   UNL     1     -42.728 -42.284  10.882  1.00  0.00     0.175 C 
BRANCH  32  33
HETATM   33  O   UNL     1     -43.593 -43.274  10.323  1.00  0.00    -0.400 OA
HETATM   34  H   UNL     1     -44.222 -43.551  11.022  1.00  0.00     0.209 HD
ENDBRANCH  32  33
ENDBRANCH  26  32
ENDBRANCH  25  26
ENDBRANCH   2  25
TORSDOF 5
ENDMDL
MODEL 8
REMARK VINA RESULT:      -6.6      1.492      1.612
REMARK  5 active torsions:
REMARK  status: ('A' for Active; 'I' for Inactive)
REMARK    1  A    between atoms: N_3  and  C_20 
REMARK    2  A    between atoms: C_7  and  N_10 
REMARK    3  A    between atoms: C_20  and  C_22 
REMARK    4  A    between atoms: C_22  and  C_27 
REMARK    5  A    between atoms: C_27  and  O_28 
ROOT
HETATM    1  C   UNL     1     -40.190 -49.937  12.676  1.00  0.00     0.122 A 
HETATM    2  N   UNL     1     -40.850 -52.048  12.845  1.00  0.00    -0.326 N 
HETATM    3  C   UNL     1     -39.750 -51.229  12.964  1.00  0.00     0.140 A 
HETATM    4  N   UNL     1     -41.551 -49.973  12.412  1.00  0.00    -0.346 N 
ATOM      5  HN  UNL     1     -42.150 -49.185  12.166  1.00  0.00     0.167 HD
HETATM    6  C   UNL     1     -39.210 -48.892  12.695  1.00  0.00     0.135 A 
HETATM    7  C   UNL     1     -41.911 -51.235  12.543  1.00  0.00     0.185 A 
HETATM    8  N   UNL     1     -38.499 -51.624  13.254  1.00  0.00    -0.336 N 
ATOM      9  HN  UNL     1     -38.229 -52.586  13.463  1.00  0.00     0.168 HD
HETATM   10  N   UNL     1     -37.930 -49.286  12.973  1.00  0.00    -0.337 N 
ATOM     11  HN  UNL     1     -37.179 -48.596  12.986  1.00  0.00     0.168 HD
HETATM   12  C   UNL     1     -37.651 -50.581  13.230  1.00  0.00     0.183 A 
ENDROOT
BRANCH   6  13
HETATM   13  N   UNL     1     -39.420 -47.518  12.523  1.00  0.00    -0.363 N 
HETATM   14  C   UNL     1     -40.180 -47.122  11.324  1.00  0.00     0.151 C 
HETATM   15  C   UNL     1     -39.785 -45.701  10.860  1.00  0.00     0.127 C 
HETATM   16  N   UNL     1     -40.799 -45.117   9.998  1.00  0.00    -0.335 N 
HETATM   17  C   UNL     1     -39.784 -44.716  12.026  1.00  0.00     0.114 C 
HETATM   18  C   UNL     1     -41.739 -44.447  10.775  1.00  0.00     0.318 C 
HETATM   19  H   UNL     1     -41.104 -45.513   9.116  1.00  0.00     0.164 HD
HETATM   20  O   UNL     1     -42.876 -44.190  10.426  1.00  0.00    -0.247 OA
HETATM   21  N   UNL     1     -41.165 -44.246  12.036  1.00  0.00    -0.332 N 
HETATM   22  C   UNL     1     -41.983 -44.009  13.200  1.00  0.00     0.155 C 
HETATM   23  C   UNL     1     -39.164 -45.248  13.315  1.00  0.00     0.047 C 
HETATM   24  C   UNL     1     -39.629 -46.654  13.682  1.00  0.00     0.126 C 
ENDBRANCH   6  13
BRANCH   2  25
HETATM   25  C   UNL     1     -40.879 -53.510  13.009  1.00  0.00     0.143 C 
BRANCH  25  26
HETATM   26  C   UNL     1     -40.833 -54.018  14.496  1.00  0.00     0.001 C 
HETATM   27  C   UNL     1     -42.038 -54.962  14.756  1.00  0.00     0.039 C 
HETATM   28  C   UNL     1     -43.334 -54.171  14.936  1.00  0.00     0.168 C 
HETATM   29  O   UNL     1     -43.233 -53.346  16.088  1.00  0.00    -0.391 OA
HETATM   30  C   UNL     1     -42.264 -52.318  15.923  1.00  0.00     0.168 C 
HETATM   31  C   UNL     1     -40.892 -52.875  15.567  1.00  0.00     0.039 C 
BRANCH  26  32
HETATM   32  C   UNL     1     -39.477 -54.728  14.744  1.00  0.00     0.175 C 
BRANCH  32  33
HETATM   33  O   UNL     1     -38.701 -54.726  13.545  1.00  0.00    -0.400 OA
HETATM   34  H   UNL     1     -37.761 -54.605  13.797  1.00  0.00     0.209 HD
ENDBRANCH  32  33
ENDBRANCH  26  32
ENDBRANCH  25  26
ENDBRANCH   2  25
TORSDOF 5
ENDMDL
MODEL 9
REMARK VINA RESULT:      -6.6      2.447      3.843
REMARK  5 active torsions:
REMARK  status: ('A' for Active; 'I' for Inactive)
REMARK    1  A    between atoms: N_3  and  C_20 
REMARK    2  A    between atoms: C_7  and  N_10 
REMARK    3  A    between atoms: C_20  and  C_22 
REMARK    4  A    between atoms: C_22  and  C_27 
REMARK    5  A    between atoms: C_27  and  O_28 
ROOT
HETATM    1  C   UNL     1     -41.821 -50.430  13.970  1.00  0.00     0.122 A 
HETATM    2  N   UNL     1     -41.559 -52.127  15.374  1.00  0.00    -0.326 N 
HETATM    3  C   UNL     1     -42.453 -51.555  14.497  1.00  0.00     0.140 A 
HETATM    4  N   UNL     1     -40.545 -50.337  14.505  1.00  0.00    -0.346 N 
ATOM      5  HN  UNL     1     -39.848 -49.618  14.313  1.00  0.00     0.167 HD
HETATM    6  C   UNL     1     -42.570 -49.629  13.047  1.00  0.00     0.135 A 
HETATM    7  C   UNL     1     -40.418 -51.371  15.314  1.00  0.00     0.185 A 
HETATM    8  N   UNL     1     -43.702 -51.987  14.249  1.00  0.00    -0.336 N 
ATOM      9  HN  UNL     1     -44.117 -52.824  14.658  1.00  0.00     0.168 HD
HETATM   10  N   UNL     1     -43.848 -50.051  12.800  1.00  0.00    -0.337 N 
ATOM     11  HN  UNL     1     -44.442 -49.518  12.165  1.00  0.00     0.168 HD
HETATM   12  C   UNL     1     -44.329 -51.165  13.389  1.00  0.00     0.183 A 
ENDROOT
BRANCH   6  13
HETATM   13  N   UNL     1     -42.128 -48.510  12.329  1.00  0.00    -0.363 N 
HETATM   14  C   UNL     1     -42.869 -48.197  11.094  1.00  0.00     0.151 C 
HETATM   15  C   UNL     1     -41.965 -47.467  10.074  1.00  0.00     0.127 C 
HETATM   16  N   UNL     1     -42.748 -46.759   9.075  1.00  0.00    -0.335 N 
HETATM   17  C   UNL     1     -41.208 -46.315  10.728  1.00  0.00     0.114 C 
HETATM   18  C   UNL     1     -43.029 -45.473   9.531  1.00  0.00     0.318 C 
HETATM   19  H   UNL     1     -43.409 -47.196   8.444  1.00  0.00     0.164 HD
HETATM   20  O   UNL     1     -43.948 -44.780   9.136  1.00  0.00    -0.247 OA
HETATM   21  N   UNL     1     -42.142 -45.204  10.580  1.00  0.00    -0.332 N 
HETATM   22  C   UNL     1     -42.435 -44.191  11.564  1.00  0.00     0.155 C 
HETATM   23  C   UNL     1     -40.628 -46.628  12.106  1.00  0.00     0.047 C 
HETATM   24  C   UNL     1     -41.607 -47.342  13.033  1.00  0.00     0.126 C 
ENDBRANCH   6  13
BRANCH   2  25
HETATM   25  C   UNL     1     -41.786 -53.315  16.211  1.00  0.00     0.143 C 
BRANCH  25  26
HETATM   26  C   UNL     1     -41.612 -54.694  15.478  1.00  0.00     0.001 C 
HETATM   27  C   UNL     1     -40.838 -55.675  16.400  1.00  0.00     0.039 C 
HETATM   28  C   UNL     1     -39.343 -55.355  16.420  1.00  0.00     0.168 C 
HETATM   29  O   UNL     1     -38.800 -55.536  15.120  1.00  0.00    -0.391 OA
HETATM   30  C   UNL     1     -39.307 -54.584  14.193  1.00  0.00     0.168 C 
HETATM   31  C   UNL     1     -40.829 -54.606  14.123  1.00  0.00     0.039 C 
BRANCH  26  32
HETATM   32  C   UNL     1     -43.011 -55.241  15.095  1.00  0.00     0.175 C 
BRANCH  32  33
HETATM   33  O   UNL     1     -44.014 -54.618  15.897  1.00  0.00    -0.400 OA
HETATM   34  H   UNL     1     -43.561 -54.124  16.613  1.00  0.00     0.209 HD
ENDBRANCH  32  33
ENDBRANCH  26  32
ENDBRANCH  25  26
ENDBRANCH   2  25
TORSDOF 5
ENDMDL
