MODEL 1
REMARK VINA RESULT:      -5.8      0.000      0.000
REMARK  5 active torsions:
REMARK  status: ('A' for Active; 'I' for Inactive)
REMARK    1  A    between atoms: C_2  and  N_3 
REMARK    2  A    between atoms: N_3  and  C_4 
REMARK       I    between atoms: N_3  and  C_7 
REMARK    3  A    between atoms: C_7  and  C_9 
REMARK    4  A    between atoms: C_9  and  C_10 
REMARK    5  A    between atoms: C_13  and  N_16 
ROOT
HETATM    1  C   UNL     1     -41.541 -51.144  12.129  1.00  0.00     0.026 A 
HETATM    2  C   UNL     1     -40.176 -51.281  12.295  1.00  0.00     0.078 A 
HETATM    3  S   UNL     1     -39.399 -49.780  12.013  1.00  0.00    -0.064 SA
HETATM    4  C   UNL     1     -40.910 -49.082  11.598  1.00  0.00     0.155 A 
HETATM    5  N   UNL     1     -41.942 -49.879  11.733  1.00  0.00    -0.339 N 
ATOM      6  HN  UNL     1     -42.911 -49.604  11.568  1.00  0.00     0.168 HD
ENDROOT
BRANCH   1   7
HETATM    7  C   UNL     1     -42.588 -52.178  12.375  1.00  0.00     0.160 C 
BRANCH   7   8
HETATM    8  C   UNL     1     -43.596 -51.746  13.423  1.00  0.00     0.225 C 
HETATM    9  N   UNL     1     -44.642 -52.615  13.756  1.00  0.00    -0.347 N 
HETATM   10  O   UNL     1     -43.475 -50.634  13.953  1.00  0.00    -0.273 OA
BRANCH   9  11
HETATM   11  C   UNL     1     -45.538 -52.210  14.843  1.00  0.00     0.122 C 
HETATM   12  C   UNL     1     -46.754 -51.444  14.338  1.00  0.00     0.026 C 
ENDBRANCH   9  11
BRANCH   9  13
HETATM   13  C   UNL     1     -44.722 -53.995  13.337  1.00  0.00     0.087 A 
HETATM   14  C   UNL     1     -45.640 -55.017  13.955  1.00  0.00     0.027 A 
HETATM   15  C   UNL     1     -44.172 -55.101  14.213  1.00  0.00     0.027 A 
ENDBRANCH   9  13
ENDBRANCH   7   8
ENDBRANCH   1   7
BRANCH   4  16
HETATM   16  N   UNL     1     -40.920 -47.783  11.139  1.00  0.00    -0.278 N 
HETATM   17  C   UNL     1     -40.003 -46.705  11.430  1.00  0.00     0.155 C 
HETATM   18  C   UNL     1     -40.349 -45.631  10.410  1.00  0.00     0.145 C 
HETATM   19  N   UNL     1     -41.609 -46.047   9.876  1.00  0.00    -0.341 N 
HETATM   20  C   UNL     1     -41.894 -47.368  10.220  1.00  0.00     0.324 C 
HETATM   21  H   UNL     1     -42.075 -45.654   9.068  1.00  0.00     0.164 HD
HETATM   22  O   UNL     1     -42.825 -47.970   9.716  1.00  0.00    -0.247 OA
ENDBRANCH   4  16
TORSDOF 5
ENDMDL
MODEL 2
REMARK VINA RESULT:      -5.5      2.568      6.788
REMARK  5 active torsions:
REMARK  status: ('A' for Active; 'I' for Inactive)
REMARK    1  A    between atoms: C_2  and  N_3 
REMARK    2  A    between atoms: N_3  and  C_4 
REMARK       I    between atoms: N_3  and  C_7 
REMARK    3  A    between atoms: C_7  and  C_9 
REMARK    4  A    between atoms: C_9  and  C_10 
REMARK    5  A    between atoms: C_13  and  N_16 
ROOT
HETATM    1  C   UNL     1     -42.941 -49.358  12.293  1.00  0.00     0.026 A 
HETATM    2  C   UNL     1     -41.672 -49.904  12.353  1.00  0.00     0.078 A 
HETATM    3  S   UNL     1     -41.775 -51.591  12.632  1.00  0.00    -0.064 SA
HETATM    4  C   UNL     1     -43.481 -51.463  12.749  1.00  0.00     0.155 A 
HETATM    5  N   UNL     1     -43.962 -50.266  12.519  1.00  0.00    -0.339 N 
ATOM      6  HN  UNL     1     -44.956 -50.033  12.508  1.00  0.00     0.168 HD
ENDROOT
BRANCH   1   7
HETATM    7  C   UNL     1     -43.300 -47.947  11.970  1.00  0.00     0.160 C 
BRANCH   7   8
HETATM    8  C   UNL     1     -42.940 -47.566  10.547  1.00  0.00     0.225 C 
HETATM    9  N   UNL     1     -43.946 -47.552   9.573  1.00  0.00    -0.347 N 
HETATM   10  O   UNL     1     -41.764 -47.285  10.278  1.00  0.00    -0.273 OA
BRANCH   9  11
HETATM   11  C   UNL     1     -43.583 -47.083   8.233  1.00  0.00     0.122 C 
HETATM   12  C   UNL     1     -43.259 -48.230   7.284  1.00  0.00     0.026 C 
ENDBRANCH   9  11
BRANCH   9  13
HETATM   13  C   UNL     1     -45.357 -47.662   9.856  1.00  0.00     0.087 A 
HETATM   14  C   UNL     1     -46.364 -48.282   8.923  1.00  0.00     0.027 A 
HETATM   15  C   UNL     1     -46.362 -46.802   9.117  1.00  0.00     0.027 A 
ENDBRANCH   9  13
ENDBRANCH   7   8
ENDBRANCH   1   7
BRANCH   4  16
HETATM   16  N   UNL     1     -44.195 -52.590  13.095  1.00  0.00    -0.278 N 
HETATM   17  C   UNL     1     -43.718 -53.839  13.643  1.00  0.00     0.155 C 
HETATM   18  C   UNL     1     -44.980 -54.559  14.094  1.00  0.00     0.145 C 
HETATM   19  N   UNL     1     -46.041 -53.827  13.473  1.00  0.00    -0.341 N 
HETATM   20  C   UNL     1     -45.591 -52.604  12.977  1.00  0.00     0.324 C 
HETATM   21  H   UNL     1     -47.030 -53.929  13.665  1.00  0.00     0.164 HD
HETATM   22  O   UNL     1     -46.368 -51.756  12.577  1.00  0.00    -0.247 OA
ENDBRANCH   4  16
TORSDOF 5
ENDMDL
MODEL 3
REMARK VINA RESULT:      -5.4      1.979      6.645
REMARK  5 active torsions:
REMARK  status: ('A' for Active; 'I' for Inactive)
REMARK    1  A    between atoms: C_2  and  N_3 
REMARK    2  A    between atoms: N_3  and  C_4 
REMARK       I    between atoms: N_3  and  C_7 
REMARK    3  A    between atoms: C_7  and  C_9 
REMARK    4  A    between atoms: C_9  and  C_10 
REMARK    5  A    between atoms: C_13  and  N_16 
ROOT
HETATM    1  C   UNL     1     -41.148 -50.772  12.214  1.00  0.00     0.026 A 
HETATM    2  C   UNL     1     -40.585 -51.420  13.298  1.00  0.00     0.078 A 
HETATM    3  S   UNL     1     -41.791 -52.286  14.152  1.00  0.00    -0.064 SA
HETATM    4  C   UNL     1     -42.984 -51.667  13.086  1.00  0.00     0.155 A 
HETATM    5  N   UNL     1     -42.520 -50.928  12.107  1.00  0.00    -0.339 N 
ATOM      6  HN  UNL     1     -43.092 -50.522  11.367  1.00  0.00     0.168 HD
ENDROOT
BRANCH   1   7
HETATM    7  C   UNL     1     -40.435 -49.993  11.160  1.00  0.00     0.160 C 
BRANCH   7   8
HETATM    8  C   UNL     1     -40.164 -48.561  11.580  1.00  0.00     0.225 C 
HETATM    9  N   UNL     1     -40.929 -47.533  11.015  1.00  0.00    -0.347 N 
HETATM   10  O   UNL     1     -39.269 -48.334  12.404  1.00  0.00    -0.273 OA
BRANCH   9  11
HETATM   11  C   UNL     1     -40.709 -46.174  11.517  1.00  0.00     0.122 C 
HETATM   12  C   UNL     1     -39.799 -45.358  10.607  1.00  0.00     0.026 C 
ENDBRANCH   9  11
BRANCH   9  13
HETATM   13  C   UNL     1     -42.114 -47.740  10.217  1.00  0.00     0.087 A 
HETATM   14  C   UNL     1     -43.084 -46.652   9.840  1.00  0.00     0.027 A 
HETATM   15  C   UNL     1     -43.490 -47.675  10.848  1.00  0.00     0.027 A 
ENDBRANCH   9  13
ENDBRANCH   7   8
ENDBRANCH   1   7
BRANCH   4  16
HETATM   16  N   UNL     1     -44.304 -51.960  13.348  1.00  0.00    -0.278 N 
HETATM   17  C   UNL     1     -45.291 -51.174  14.053  1.00  0.00     0.155 C 
HETATM   18  C   UNL     1     -46.610 -51.868  13.752  1.00  0.00     0.145 C 
HETATM   19  N   UNL     1     -46.225 -53.132  13.204  1.00  0.00    -0.341 N 
HETATM   20  C   UNL     1     -44.873 -53.145  12.862  1.00  0.00     0.324 C 
HETATM   21  H   UNL     1     -46.837 -53.800  12.753  1.00  0.00     0.164 HD
HETATM   22  O   UNL     1     -44.390 -54.057  12.215  1.00  0.00    -0.247 OA
ENDBRANCH   4  16
TORSDOF 5
ENDMDL
MODEL 4
REMARK VINA RESULT:      -5.2      3.251      7.043
REMARK  5 active torsions:
REMARK  status: ('A' for Active; 'I' for Inactive)
REMARK    1  A    between atoms: C_2  and  N_3 
REMARK    2  A    between atoms: N_3  and  C_4 
REMARK       I    between atoms: N_3  and  C_7 
REMARK    3  A    between atoms: C_7  and  C_9 
REMARK    4  A    between atoms: C_9  and  C_10 
REMARK    5  A    between atoms: C_13  and  N_16 
ROOT
HETATM    1  C   UNL     1     -41.121 -53.802  14.397  1.00  0.00     0.026 A 
HETATM    2  C   UNL     1     -41.060 -54.652  15.485  1.00  0.00     0.078 A 
HETATM    3  S   UNL     1     -42.643 -55.067  15.993  1.00  0.00    -0.064 SA
HETATM    4  C   UNL     1     -43.294 -54.018  14.802  1.00  0.00     0.155 A 
HETATM    5  N   UNL     1     -42.407 -53.453  14.019  1.00  0.00    -0.339 N 
ATOM      6  HN  UNL     1     -42.634 -52.838  13.237  1.00  0.00     0.168 HD
ENDROOT
BRANCH   1   7
HETATM    7  C   UNL     1     -39.977 -53.284  13.592  1.00  0.00     0.160 C 
BRANCH   7   8
HETATM    8  C   UNL     1     -40.418 -52.310  12.516  1.00  0.00     0.225 C 
HETATM    9  N   UNL     1     -39.954 -50.990  12.565  1.00  0.00    -0.347 N 
HETATM   10  O   UNL     1     -41.183 -52.702  11.625  1.00  0.00    -0.273 OA
BRANCH   9  11
HETATM   11  C   UNL     1     -40.318 -50.104  11.456  1.00  0.00     0.122 C 
HETATM   12  C   UNL     1     -41.520 -49.227  11.782  1.00  0.00     0.026 C 
ENDBRANCH   9  11
BRANCH   9  13
HETATM   13  C   UNL     1     -38.907 -50.525  13.443  1.00  0.00     0.087 A 
HETATM   14  C   UNL     1     -37.993 -49.368  13.135  1.00  0.00     0.027 A 
HETATM   15  C   UNL     1     -37.450 -50.759  13.099  1.00  0.00     0.027 A 
ENDBRANCH   9  13
ENDBRANCH   7   8
ENDBRANCH   1   7
BRANCH   4  16
HETATM   16  N   UNL     1     -44.659 -53.832  14.778  1.00  0.00    -0.278 N 
HETATM   17  C   UNL     1     -45.545 -53.435  15.848  1.00  0.00     0.155 C 
HETATM   18  C   UNL     1     -46.855 -53.106  15.150  1.00  0.00     0.145 C 
HETATM   19  N   UNL     1     -46.700 -53.653  13.836  1.00  0.00    -0.341 N 
HETATM   20  C   UNL     1     -45.370 -53.982  13.579  1.00  0.00     0.324 C 
HETATM   21  H   UNL     1     -47.313 -53.496  13.047  1.00  0.00     0.164 HD
HETATM   22  O   UNL     1     -44.995 -54.288  12.461  1.00  0.00    -0.247 OA
ENDBRANCH   4  16
TORSDOF 5
ENDMDL
MODEL 5
REMARK VINA RESULT:      -5.1      3.442      4.406
REMARK  5 active torsions:
REMARK  status: ('A' for Active; 'I' for Inactive)
REMARK    1  A    between atoms: C_2  and  N_3 
REMARK    2  A    between atoms: N_3  and  C_4 
REMARK       I    between atoms: N_3  and  C_7 
REMARK    3  A    between atoms: C_7  and  C_9 
REMARK    4  A    between atoms: C_9  and  C_10 
REMARK    5  A    between atoms: C_13  and  N_16 
ROOT
HETATM    1  C   UNL     1     -42.602 -54.563  14.789  1.00  0.00     0.026 A 
HETATM    2  C   UNL     1     -41.666 -55.014  15.701  1.00  0.00     0.078 A 
HETATM    3  S   UNL     1     -40.242 -54.066  15.595  1.00  0.00    -0.064 SA
HETATM    4  C   UNL     1     -40.928 -53.192  14.288  1.00  0.00     0.155 A 
HETATM    5  N   UNL     1     -42.163 -53.518  13.992  1.00  0.00    -0.339 N 
ATOM      6  HN  UNL     1     -42.725 -53.064  13.272  1.00  0.00     0.168 HD
ENDROOT
BRANCH   1   7
HETATM    7  C   UNL     1     -44.004 -55.044  14.624  1.00  0.00     0.160 C 
BRANCH   7   8
HETATM    8  C   UNL     1     -44.797 -54.199  13.645  1.00  0.00     0.225 C 
HETATM    9  N   UNL     1     -45.864 -53.430  14.124  1.00  0.00    -0.347 N 
HETATM   10  O   UNL     1     -44.487 -54.215  12.447  1.00  0.00    -0.273 OA
BRANCH   9  11
HETATM   11  C   UNL     1     -46.544 -52.548  13.170  1.00  0.00     0.122 C 
HETATM   12  C   UNL     1     -45.741 -51.289  12.870  1.00  0.00     0.026 C 
ENDBRANCH   9  11
BRANCH   9  13
HETATM   13  C   UNL     1     -46.145 -53.203  15.522  1.00  0.00     0.087 A 
HETATM   14  C   UNL     1     -46.955 -52.047  16.048  1.00  0.00     0.027 A 
HETATM   15  C   UNL     1     -45.479 -52.065  16.267  1.00  0.00     0.027 A 
ENDBRANCH   9  13
ENDBRANCH   7   8
ENDBRANCH   1   7
BRANCH   4  16
HETATM   16  N   UNL     1     -40.142 -52.259  13.648  1.00  0.00    -0.278 N 
HETATM   17  C   UNL     1     -38.930 -51.618  14.105  1.00  0.00     0.155 C 
HETATM   18  C   UNL     1     -38.371 -50.940  12.864  1.00  0.00     0.145 C 
HETATM   19  N   UNL     1     -39.455 -50.972  11.929  1.00  0.00    -0.341 N 
HETATM   20  C   UNL     1     -40.459 -51.844  12.347  1.00  0.00     0.324 C 
HETATM   21  H   UNL     1     -39.402 -50.742  10.945  1.00  0.00     0.164 HD
HETATM   22  O   UNL     1     -41.378 -52.154  11.611  1.00  0.00    -0.247 OA
ENDBRANCH   4  16
TORSDOF 5
ENDMDL
MODEL 6
REMARK VINA RESULT:      -5.0      2.022      2.957
REMARK  5 active torsions:
REMARK  status: ('A' for Active; 'I' for Inactive)
REMARK    1  A    between atoms: C_2  and  N_3 
REMARK    2  A    between atoms: N_3  and  C_4 
REMARK       I    between atoms: N_3  and  C_7 
REMARK    3  A    between atoms: C_7  and  C_9 
REMARK    4  A    between atoms: C_9  and  C_10 
REMARK    5  A    between atoms: C_13  and  N_16 
ROOT
HETATM    1  C   UNL     1     -43.124 -50.141  13.218  1.00  0.00     0.026 A 
HETATM    2  C   UNL     1     -43.269 -49.393  14.371  1.00  0.00     0.078 A 
HETATM    3  S   UNL     1     -42.797 -47.772  14.079  1.00  0.00    -0.064 SA
HETATM    4  C   UNL     1     -42.344 -48.197  12.480  1.00  0.00     0.155 A 
HETATM    5  N   UNL     1     -42.596 -49.440  12.147  1.00  0.00    -0.339 N 
ATOM      6  HN  UNL     1     -42.427 -49.836  11.222  1.00  0.00     0.168 HD
ENDROOT
BRANCH   1   7
HETATM    7  C   UNL     1     -43.514 -51.566  13.013  1.00  0.00     0.160 C 
BRANCH   7   8
HETATM    8  C   UNL     1     -42.324 -52.457  12.713  1.00  0.00     0.225 C 
HETATM    9  N   UNL     1     -41.993 -53.475  13.616  1.00  0.00    -0.347 N 
HETATM   10  O   UNL     1     -41.668 -52.259  11.681  1.00  0.00    -0.273 OA
BRANCH   9  11
HETATM   11  C   UNL     1     -40.901 -54.379  13.245  1.00  0.00     0.122 C 
HETATM   12  C   UNL     1     -39.600 -54.044  13.963  1.00  0.00     0.026 C 
ENDBRANCH   9  11
BRANCH   9  13
HETATM   13  C   UNL     1     -42.828 -53.892  14.717  1.00  0.00     0.087 A 
HETATM   14  C   UNL     1     -42.791 -55.264  15.337  1.00  0.00     0.027 A 
HETATM   15  C   UNL     1     -43.962 -54.873  14.497  1.00  0.00     0.027 A 
ENDBRANCH   9  13
ENDBRANCH   7   8
ENDBRANCH   1   7
BRANCH   4  16
HETATM   16  N   UNL     1     -41.740 -47.236  11.699  1.00  0.00    -0.278 N 
HETATM   17  C   UNL     1     -40.648 -46.348  12.027  1.00  0.00     0.155 C 
HETATM   18  C   UNL     1     -40.233 -45.752  10.691  1.00  0.00     0.145 C 
HETATM   19  N   UNL     1     -41.310 -46.086   9.809  1.00  0.00    -0.341 N 
HETATM   20  C   UNL     1     -42.143 -47.052  10.370  1.00  0.00     0.324 C 
HETATM   21  H   UNL     1     -41.312 -45.980   8.802  1.00  0.00     0.164 HD
HETATM   22  O   UNL     1     -43.007 -47.605   9.713  1.00  0.00    -0.247 OA
ENDBRANCH   4  16
TORSDOF 5
ENDMDL
MODEL 7
REMARK VINA RESULT:      -4.9      1.966      7.116
REMARK  5 active torsions:
REMARK  status: ('A' for Active; 'I' for Inactive)
REMARK    1  A    between atoms: C_2  and  N_3 
REMARK    2  A    between atoms: N_3  and  C_4 
REMARK       I    between atoms: N_3  and  C_7 
REMARK    3  A    between atoms: C_7  and  C_9 
REMARK    4  A    between atoms: C_9  and  C_10 
REMARK    5  A    between atoms: C_13  and  N_16 
ROOT
HETATM    1  C   UNL     1     -41.723 -50.820  12.210  1.00  0.00     0.026 A 
HETATM    2  C   UNL     1     -40.800 -51.819  12.453  1.00  0.00     0.078 A 
HETATM    3  S   UNL     1     -41.607 -53.272  12.870  1.00  0.00    -0.064 SA
HETATM    4  C   UNL     1     -43.112 -52.453  12.793  1.00  0.00     0.155 A 
HETATM    5  N   UNL     1     -43.040 -51.202  12.406  1.00  0.00    -0.339 N 
ATOM      6  HN  UNL     1     -43.846 -50.592  12.269  1.00  0.00     0.168 HD
ENDROOT
BRANCH   1   7
HETATM    7  C   UNL     1     -41.448 -49.437  11.726  1.00  0.00     0.160 C 
BRANCH   7   8
HETATM    8  C   UNL     1     -41.139 -48.475  12.858  1.00  0.00     0.225 C 
HETATM    9  N   UNL     1     -40.433 -47.300  12.576  1.00  0.00    -0.347 N 
HETATM   10  O   UNL     1     -41.512 -48.756  14.005  1.00  0.00    -0.273 OA
BRANCH   9  11
HETATM   11  C   UNL     1     -40.241 -46.347  13.673  1.00  0.00     0.122 C 
HETATM   12  C   UNL     1     -38.841 -46.420  14.268  1.00  0.00     0.026 C 
ENDBRANCH   9  11
BRANCH   9  13
HETATM   13  C   UNL     1     -40.156 -46.813  11.245  1.00  0.00     0.087 A 
HETATM   14  C   UNL     1     -39.888 -45.370  10.909  1.00  0.00     0.027 A 
HETATM   15  C   UNL     1     -41.182 -45.989  10.496  1.00  0.00     0.027 A 
ENDBRANCH   9  13
ENDBRANCH   7   8
ENDBRANCH   1   7
BRANCH   4  16
HETATM   16  N   UNL     1     -44.246 -53.142  13.161  1.00  0.00    -0.278 N 
HETATM   17  C   UNL     1     -44.375 -54.502  13.632  1.00  0.00     0.155 C 
HETATM   18  C   UNL     1     -45.799 -54.585  14.159  1.00  0.00     0.145 C 
HETATM   19  N   UNL     1     -46.432 -53.408  13.645  1.00  0.00    -0.341 N 
HETATM   20  C   UNL     1     -45.494 -52.503  13.152  1.00  0.00     0.324 C 
HETATM   21  H   UNL     1     -47.342 -53.055  13.912  1.00  0.00     0.164 HD
HETATM   22  O   UNL     1     -45.808 -51.369  12.840  1.00  0.00    -0.247 OA
ENDBRANCH   4  16
TORSDOF 5
ENDMDL
MODEL 8
REMARK VINA RESULT:      -4.9      2.424      6.758
REMARK  5 active torsions:
REMARK  status: ('A' for Active; 'I' for Inactive)
REMARK    1  A    between atoms: C_2  and  N_3 
REMARK    2  A    between atoms: N_3  and  C_4 
REMARK       I    between atoms: N_3  and  C_7 
REMARK    3  A    between atoms: C_7  and  C_9 
REMARK    4  A    between atoms: C_9  and  C_10 
REMARK    5  A    between atoms: C_13  and  N_16 
ROOT
HETATM    1  C   UNL     1     -41.510 -52.143  12.391  1.00  0.00     0.026 A 
HETATM    2  C   UNL     1     -40.838 -53.093  13.138  1.00  0.00     0.078 A 
HETATM    3  S   UNL     1     -41.955 -54.207  13.807  1.00  0.00    -0.064 SA
HETATM    4  C   UNL     1     -43.251 -53.299  13.143  1.00  0.00     0.155 A 
HETATM    5  N   UNL     1     -42.888 -52.278  12.404  1.00  0.00    -0.339 N 
ATOM      6  HN  UNL     1     -43.534 -51.667  11.906  1.00  0.00     0.168 HD
ENDROOT
BRANCH   1   7
HETATM    7  C   UNL     1     -40.909 -51.056  11.565  1.00  0.00     0.160 C 
BRANCH   7   8
HETATM    8  C   UNL     1     -41.225 -49.674  12.103  1.00  0.00     0.225 C 
HETATM    9  N   UNL     1     -40.324 -49.068  12.987  1.00  0.00    -0.347 N 
HETATM   10  O   UNL     1     -42.275 -49.118  11.756  1.00  0.00    -0.273 OA
BRANCH   9  11
HETATM   11  C   UNL     1     -40.610 -47.694  13.408  1.00  0.00     0.122 C 
HETATM   12  C   UNL     1     -41.228 -47.629  14.799  1.00  0.00     0.026 C 
ENDBRANCH   9  11
BRANCH   9  13
HETATM   13  C   UNL     1     -38.997 -49.563  13.267  1.00  0.00     0.087 A 
HETATM   14  C   UNL     1     -37.825 -48.691  13.634  1.00  0.00     0.027 A 
HETATM   15  C   UNL     1     -37.865 -49.333  12.286  1.00  0.00     0.027 A 
ENDBRANCH   9  13
ENDBRANCH   7   8
ENDBRANCH   1   7
BRANCH   4  16
HETATM   16  N   UNL     1     -44.537 -53.682  13.452  1.00  0.00    -0.278 N 
HETATM   17  C   UNL     1     -45.011 -54.936  13.992  1.00  0.00     0.155 C 
HETATM   18  C   UNL     1     -46.449 -54.652  14.398  1.00  0.00     0.145 C 
HETATM   19  N   UNL     1     -46.754 -53.406  13.761  1.00  0.00    -0.341 N 
HETATM   20  C   UNL     1     -45.598 -52.780  13.297  1.00  0.00     0.324 C 
HETATM   21  H   UNL     1     -47.573 -52.836  13.926  1.00  0.00     0.164 HD
HETATM   22  O   UNL     1     -45.618 -51.631  12.891  1.00  0.00    -0.247 OA
ENDBRANCH   4  16
TORSDOF 5
ENDMDL
MODEL 9
REMARK VINA RESULT:      -4.7     19.890     22.482
REMARK  5 active torsions:
REMARK  status: ('A' for Active; 'I' for Inactive)
REMARK    1  A    between atoms: C_2  and  N_3 
REMARK    2  A    between atoms: N_3  and  C_4 
REMARK       I    between atoms: N_3  and  C_7 
REMARK    3  A    between atoms: C_7  and  C_9 
REMARK    4  A    between atoms: C_9  and  C_10 
REMARK    5  A    between atoms: C_13  and  N_16 
ROOT
HETATM    1  C   UNL     1     -25.459 -44.429  -1.686  1.00  0.00     0.026 A 
HETATM    2  C   UNL     1     -25.115 -45.526  -2.453  1.00  0.00     0.078 A 
HETATM    3  S   UNL     1     -26.526 -46.248  -3.104  1.00  0.00    -0.064 SA
HETATM    4  C   UNL     1     -27.493 -45.120  -2.248  1.00  0.00     0.155 A 
HETATM    5  N   UNL     1     -26.822 -44.210  -1.583  1.00  0.00    -0.339 N 
ATOM      6  HN  UNL     1     -27.248 -43.445  -1.060  1.00  0.00     0.168 HD
ENDROOT
BRANCH   1   7
HETATM    7  C   UNL     1     -24.531 -43.465  -1.025  1.00  0.00     0.160 C 
BRANCH   7   8
HETATM    8  C   UNL     1     -25.081 -42.936   0.286  1.00  0.00     0.225 C 
HETATM    9  N   UNL     1     -25.415 -41.580   0.384  1.00  0.00    -0.347 N 
HETATM   10  O   UNL     1     -25.214 -43.713   1.241  1.00  0.00    -0.273 OA
BRANCH   9  11
HETATM   11  C   UNL     1     -26.037 -41.124   1.630  1.00  0.00     0.122 C 
HETATM   12  C   UNL     1     -25.068 -40.346   2.512  1.00  0.00     0.026 C 
ENDBRANCH   9  11
BRANCH   9  13
HETATM   13  C   UNL     1     -25.482 -40.673  -0.738  1.00  0.00     0.087 A 
HETATM   14  C   UNL     1     -26.288 -39.401  -0.753  1.00  0.00     0.027 A 
HETATM   15  C   UNL     1     -26.746 -40.565  -1.568  1.00  0.00     0.027 A 
ENDBRANCH   9  13
ENDBRANCH   7   8
ENDBRANCH   1   7
BRANCH   4  16
HETATM   16  N   UNL     1     -28.862 -45.267  -2.300  1.00  0.00    -0.278 N 
HETATM   17  C   UNL     1     -29.826 -44.560  -3.112  1.00  0.00     0.155 C 
HETATM   18  C   UNL     1     -31.109 -45.360  -2.956  1.00  0.00     0.145 C 
HETATM   19  N   UNL     1     -30.853 -46.219  -1.840  1.00  0.00    -0.341 N 
HETATM   20  C   UNL     1     -29.496 -46.246  -1.523  1.00  0.00     0.324 C 
HETATM   21  H   UNL     1     -31.428 -46.995  -1.539  1.00  0.00     0.164 HD
HETATM   22  O   UNL     1     -29.044 -47.051  -0.729  1.00  0.00    -0.247 OA
ENDBRANCH   4  16
TORSDOF 5
ENDMDL
