MODEL 1
REMARK VINA RESULT:      -6.0      0.000      0.000
REMARK  2 active torsions:
REMARK  status: ('A' for Active; 'I' for Inactive)
REMARK       I    between atoms: C_2  and  N_3 
REMARK       I    between atoms: C_2  and  N_12 
REMARK    1  A    between atoms: N_3  and  C_4 
REMARK    2  A    between atoms: N_12  and  C_13 
ROOT
HETATM    1  O   UNL     1     -39.839 -48.970  11.742  1.00  0.00    -0.247 OA
HETATM    2  C   UNL     1     -40.947 -48.970  11.210  1.00  0.00     0.322 C 
HETATM    3  N   UNL     1     -41.874 -49.940  11.429  1.00  0.00    -0.330 N 
HETATM    4  N   UNL     1     -41.268 -47.951  10.376  1.00  0.00    -0.289 N 
HETATM    5  H   UNL     1     -42.829 -49.714  11.161  1.00  0.00     0.165 HD
HETATM    6  H   UNL     1     -40.569 -47.229  10.292  1.00  0.00     0.172 HD
ENDROOT
BRANCH   3   7
HETATM    7  C   UNL     1     -41.702 -50.959  12.472  1.00  0.00     0.178 C 
HETATM    8  C   UNL     1     -41.139 -52.257  11.887  1.00  0.00     0.035 C 
HETATM    9  C   UNL     1     -40.838 -53.300  12.958  1.00  0.00     0.004 C 
HETATM   10  C   UNL     1     -42.032 -54.184  13.288  1.00  0.00     0.020 C 
HETATM   11  C   UNL     1     -43.379 -53.481  13.270  1.00  0.00     0.122 C 
HETATM   12  N   UNL     1     -43.396 -52.187  13.914  1.00  0.00    -0.359 N 
HETATM   13  C   UNL     1     -43.031 -51.041  13.259  1.00  0.00     0.240 C 
HETATM   14  H   UNL     1     -44.244 -52.002  14.440  1.00  0.00     0.162 HD
HETATM   15  O   UNL     1     -43.741 -50.042  13.428  1.00  0.00    -0.271 OA
ENDBRANCH   3   7
BRANCH   4  16
HETATM   16  C   UNL     1     -42.442 -47.770   9.710  1.00  0.00     0.152 A 
HETATM   17  N   UNL     1     -42.735 -48.057   8.467  1.00  0.00    -0.346 N 
HETATM   18  C   UNL     1     -44.057 -47.724   8.232  1.00  0.00     0.097 A 
ATOM     19  HN  UNL     1     -42.094 -48.460   7.783  1.00  0.00     0.167 HD
HETATM   20  C   UNL     1     -44.751 -47.230   9.319  1.00  0.00     0.070 A 
HETATM   21  S   UNL     1     -43.692 -47.108  10.664  1.00  0.00    -0.064 SA
ENDBRANCH   4  16
TORSDOF 2
ENDMDL
MODEL 2
REMARK VINA RESULT:      -6.0      4.458      6.286
REMARK  2 active torsions:
REMARK  status: ('A' for Active; 'I' for Inactive)
REMARK       I    between atoms: C_2  and  N_3 
REMARK       I    between atoms: C_2  and  N_12 
REMARK    1  A    between atoms: N_3  and  C_4 
REMARK    2  A    between atoms: N_12  and  C_13 
ROOT
HETATM    1  O   UNL     1     -45.873 -53.011  12.068  1.00  0.00    -0.247 OA
HETATM    2  C   UNL     1     -44.796 -52.939  12.656  1.00  0.00     0.322 C 
HETATM    3  N   UNL     1     -44.695 -52.741  13.997  1.00  0.00    -0.330 N 
HETATM    4  N   UNL     1     -43.653 -53.075  11.939  1.00  0.00    -0.289 N 
HETATM    5  H   UNL     1     -43.793 -52.960  14.414  1.00  0.00     0.165 HD
HETATM    6  H   UNL     1     -43.783 -53.276  10.959  1.00  0.00     0.172 HD
ENDROOT
BRANCH   3   7
HETATM    7  C   UNL     1     -45.865 -52.797  14.881  1.00  0.00     0.178 C 
HETATM    8  C   UNL     1     -46.357 -51.391  15.234  1.00  0.00     0.035 C 
HETATM    9  C   UNL     1     -47.641 -51.409  16.057  1.00  0.00     0.004 C 
HETATM   10  C   UNL     1     -47.393 -51.497  17.556  1.00  0.00     0.020 C 
HETATM   11  C   UNL     1     -46.217 -52.369  17.964  1.00  0.00     0.122 C 
HETATM   12  N   UNL     1     -46.128 -53.632  17.267  1.00  0.00    -0.359 N 
HETATM   13  C   UNL     1     -45.516 -53.751  16.048  1.00  0.00     0.240 C 
HETATM   14  H   UNL     1     -45.831 -54.404  17.854  1.00  0.00     0.162 HD
HETATM   15  O   UNL     1     -44.773 -54.725  15.880  1.00  0.00    -0.271 OA
ENDBRANCH   3   7
BRANCH   4  16
HETATM   16  C   UNL     1     -42.376 -53.041  12.410  1.00  0.00     0.152 A 
HETATM   17  N   UNL     1     -41.628 -54.029  12.834  1.00  0.00    -0.346 N 
HETATM   18  C   UNL     1     -40.391 -53.528  13.195  1.00  0.00     0.097 A 
ATOM     19  HN  UNL     1     -41.912 -55.007  12.888  1.00  0.00     0.167 HD
HETATM   20  C   UNL     1     -40.213 -52.173  12.997  1.00  0.00     0.070 A 
HETATM   21  S   UNL     1     -41.671 -51.487  12.407  1.00  0.00    -0.064 SA
ENDBRANCH   4  16
TORSDOF 2
ENDMDL
MODEL 3
REMARK VINA RESULT:      -5.6      2.230      3.127
REMARK  2 active torsions:
REMARK  status: ('A' for Active; 'I' for Inactive)
REMARK       I    between atoms: C_2  and  N_3 
REMARK       I    between atoms: C_2  and  N_12 
REMARK    1  A    between atoms: N_3  and  C_4 
REMARK    2  A    between atoms: N_12  and  C_13 
ROOT
HETATM    1  O   UNL     1     -40.530 -52.978  12.022  1.00  0.00    -0.247 OA
HETATM    2  C   UNL     1     -41.068 -51.876  11.942  1.00  0.00     0.322 C 
HETATM    3  N   UNL     1     -42.320 -51.626  12.411  1.00  0.00    -0.330 N 
HETATM    4  N   UNL     1     -40.380 -50.855  11.374  1.00  0.00    -0.289 N 
HETATM    5  H   UNL     1     -42.562 -50.645  12.537  1.00  0.00     0.165 HD
HETATM    6  H   UNL     1     -39.437 -51.077  11.095  1.00  0.00     0.172 HD
ENDROOT
BRANCH   3   7
HETATM    7  C   UNL     1     -43.053 -52.600  13.228  1.00  0.00     0.178 C 
HETATM    8  C   UNL     1     -44.136 -53.305  12.406  1.00  0.00     0.035 C 
HETATM    9  C   UNL     1     -44.842 -54.407  13.190  1.00  0.00     0.004 C 
HETATM   10  C   UNL     1     -46.036 -53.906  13.989  1.00  0.00     0.020 C 
HETATM   11  C   UNL     1     -45.866 -52.526  14.604  1.00  0.00     0.122 C 
HETATM   12  N   UNL     1     -44.585 -52.296  15.233  1.00  0.00    -0.359 N 
HETATM   13  C   UNL     1     -43.489 -51.878  14.525  1.00  0.00     0.240 C 
HETATM   14  H   UNL     1     -44.641 -51.755  16.089  1.00  0.00     0.162 HD
HETATM   15  O   UNL     1     -42.794 -50.989  15.030  1.00  0.00    -0.271 OA
ENDBRANCH   3   7
BRANCH   4  16
HETATM   16  C   UNL     1     -40.798 -49.570  11.210  1.00  0.00     0.152 A 
HETATM   17  N   UNL     1     -41.387 -49.022  10.177  1.00  0.00    -0.346 N 
HETATM   18  C   UNL     1     -41.652 -47.696  10.466  1.00  0.00     0.097 A 
ATOM     19  HN  UNL     1     -41.612 -49.495   9.302  1.00  0.00     0.167 HD
HETATM   20  C   UNL     1     -41.296 -47.278  11.733  1.00  0.00     0.070 A 
HETATM   21  S   UNL     1     -40.534 -48.570  12.567  1.00  0.00    -0.064 SA
ENDBRANCH   4  16
TORSDOF 2
ENDMDL
MODEL 4
REMARK VINA RESULT:      -5.4      4.087      6.078
REMARK  2 active torsions:
REMARK  status: ('A' for Active; 'I' for Inactive)
REMARK       I    between atoms: C_2  and  N_3 
REMARK       I    between atoms: C_2  and  N_12 
REMARK    1  A    between atoms: N_3  and  C_4 
REMARK    2  A    between atoms: N_12  and  C_13 
ROOT
HETATM    1  O   UNL     1     -42.292 -50.699  12.202  1.00  0.00    -0.247 OA
HETATM    2  C   UNL     1     -41.943 -51.632  12.922  1.00  0.00     0.322 C 
HETATM    3  N   UNL     1     -42.806 -52.318  13.717  1.00  0.00    -0.330 N 
HETATM    4  N   UNL     1     -40.639 -52.007  12.915  1.00  0.00    -0.289 N 
HETATM    5  H   UNL     1     -42.479 -53.219  14.059  1.00  0.00     0.165 HD
HETATM    6  H   UNL     1     -40.052 -51.505  12.268  1.00  0.00     0.172 HD
ENDROOT
BRANCH   3   7
HETATM    7  C   UNL     1     -44.260 -52.130  13.631  1.00  0.00     0.178 C 
HETATM    8  C   UNL     1     -44.813 -51.517  14.920  1.00  0.00     0.035 C 
HETATM    9  C   UNL     1     -46.302 -51.199  14.825  1.00  0.00     0.004 C 
HETATM   10  C   UNL     1     -47.193 -52.370  15.217  1.00  0.00     0.020 C 
HETATM   11  C   UNL     1     -46.680 -53.738  14.799  1.00  0.00     0.122 C 
HETATM   12  N   UNL     1     -46.162 -53.805  13.451  1.00  0.00    -0.359 N 
HETATM   13  C   UNL     1     -44.869 -53.467  13.149  1.00  0.00     0.240 C 
HETATM   14  H   UNL     1     -46.392 -54.666  12.967  1.00  0.00     0.162 HD
HETATM   15  O   UNL     1     -44.257 -54.210  12.373  1.00  0.00    -0.271 OA
ENDBRANCH   3   7
BRANCH   4  16
HETATM   16  C   UNL     1     -40.070 -53.019  13.627  1.00  0.00     0.152 A 
HETATM   17  N   UNL     1     -39.895 -54.270  13.283  1.00  0.00    -0.346 N 
HETATM   18  C   UNL     1     -39.251 -54.929  14.313  1.00  0.00     0.097 A 
ATOM     19  HN  UNL     1     -40.185 -54.688  12.399  1.00  0.00     0.167 HD
HETATM   20  C   UNL     1     -38.913 -54.151  15.403  1.00  0.00     0.070 A 
HETATM   21  S   UNL     1     -39.488 -52.553  15.162  1.00  0.00    -0.064 SA
ENDBRANCH   4  16
TORSDOF 2
ENDMDL
MODEL 5
REMARK VINA RESULT:      -5.2      2.925      5.972
REMARK  2 active torsions:
REMARK  status: ('A' for Active; 'I' for Inactive)
REMARK       I    between atoms: C_2  and  N_3 
REMARK       I    between atoms: C_2  and  N_12 
REMARK    1  A    between atoms: N_3  and  C_4 
REMARK    2  A    between atoms: N_12  and  C_13 
ROOT
HETATM    1  O   UNL     1     -38.052 -49.321  11.440  1.00  0.00    -0.247 OA
HETATM    2  C   UNL     1     -39.180 -49.716  11.725  1.00  0.00     0.322 C 
HETATM    3  N   UNL     1     -40.252 -48.886  11.827  1.00  0.00    -0.330 N 
HETATM    4  N   UNL     1     -39.372 -51.042  11.934  1.00  0.00    -0.289 N 
HETATM    5  H   UNL     1     -41.167 -49.332  11.802  1.00  0.00     0.165 HD
HETATM    6  H   UNL     1     -38.559 -51.620  11.791  1.00  0.00     0.172 HD
ENDROOT
BRANCH   3   7
HETATM    7  C   UNL     1     -40.189 -47.479  11.410  1.00  0.00     0.178 C 
HETATM    8  C   UNL     1     -39.857 -46.568  12.595  1.00  0.00     0.035 C 
HETATM    9  C   UNL     1     -39.668 -45.113  12.180  1.00  0.00     0.004 C 
HETATM   10  C   UNL     1     -40.966 -44.318  12.171  1.00  0.00     0.020 C 
HETATM   11  C   UNL     1     -42.191 -45.088  11.704  1.00  0.00     0.122 C 
HETATM   12  N   UNL     1     -41.982 -45.907  10.532  1.00  0.00    -0.359 N 
HETATM   13  C   UNL     1     -41.478 -47.178  10.609  1.00  0.00     0.240 C 
HETATM   14  H   UNL     1     -42.766 -45.909   9.889  1.00  0.00     0.162 HD
HETATM   15  O   UNL     1     -42.019 -48.045   9.913  1.00  0.00    -0.271 OA
ENDBRANCH   3   7
BRANCH   4  16
HETATM   16  C   UNL     1     -40.543 -51.666  12.241  1.00  0.00     0.152 A 
HETATM   17  N   UNL     1     -41.410 -52.229  11.438  1.00  0.00    -0.346 N 
HETATM   18  C   UNL     1     -42.439 -52.759  12.195  1.00  0.00     0.097 A 
ATOM     19  HN  UNL     1     -41.338 -52.271  10.422  1.00  0.00     0.167 HD
HETATM   20  C   UNL     1     -42.307 -52.622  13.563  1.00  0.00     0.070 A 
HETATM   21  S   UNL     1     -40.882 -51.734  13.912  1.00  0.00    -0.064 SA
ENDBRANCH   4  16
TORSDOF 2
ENDMDL
MODEL 6
REMARK VINA RESULT:      -5.0      3.528      4.768
REMARK  2 active torsions:
REMARK  status: ('A' for Active; 'I' for Inactive)
REMARK       I    between atoms: C_2  and  N_3 
REMARK       I    between atoms: C_2  and  N_12 
REMARK    1  A    between atoms: N_3  and  C_4 
REMARK    2  A    between atoms: N_12  and  C_13 
ROOT
HETATM    1  O   UNL     1     -42.727 -52.808  14.965  1.00  0.00    -0.247 OA
HETATM    2  C   UNL     1     -42.419 -52.052  14.045  1.00  0.00     0.322 C 
HETATM    3  N   UNL     1     -43.311 -51.603  13.124  1.00  0.00    -0.330 N 
HETATM    4  N   UNL     1     -41.132 -51.634  13.951  1.00  0.00    -0.289 N 
HETATM    5  H   UNL     1     -43.022 -50.792  12.580  1.00  0.00     0.165 HD
HETATM    6  H   UNL     1     -40.523 -51.950  14.690  1.00  0.00     0.172 HD
ENDROOT
BRANCH   3   7
HETATM    7  C   UNL     1     -44.755 -51.824  13.267  1.00  0.00     0.178 C 
HETATM    8  C   UNL     1     -45.276 -51.226  14.577  1.00  0.00     0.035 C 
HETATM    9  C   UNL     1     -46.792 -51.333  14.708  1.00  0.00     0.004 C 
HETATM   10  C   UNL     1     -47.250 -52.641  15.338  1.00  0.00     0.020 C 
HETATM   11  C   UNL     1     -46.433 -53.863  14.951  1.00  0.00     0.122 C 
HETATM   12  N   UNL     1     -46.109 -53.956  13.546  1.00  0.00    -0.359 N 
HETATM   13  C   UNL     1     -45.020 -53.325  13.005  1.00  0.00     0.240 C 
HETATM   14  H   UNL     1     -46.150 -54.901  13.178  1.00  0.00     0.162 HD
HETATM   15  O   UNL     1     -44.336 -53.967  12.200  1.00  0.00    -0.271 OA
ENDBRANCH   3   7
BRANCH   4  16
HETATM   16  C   UNL     1     -40.606 -50.792  13.019  1.00  0.00     0.152 A 
HETATM   17  N   UNL     1     -40.193 -51.062  11.806  1.00  0.00    -0.346 N 
HETATM   18  C   UNL     1     -39.760 -49.891  11.212  1.00  0.00     0.097 A 
ATOM     19  HN  UNL     1     -40.192 -51.984  11.371  1.00  0.00     0.167 HD
HETATM   20  C   UNL     1     -39.894 -48.748  11.976  1.00  0.00     0.070 A 
HETATM   21  S   UNL     1     -40.515 -49.164  13.520  1.00  0.00    -0.064 SA
ENDBRANCH   4  16
TORSDOF 2
ENDMDL
MODEL 7
REMARK VINA RESULT:      -4.8      3.718      5.643
REMARK  2 active torsions:
REMARK  status: ('A' for Active; 'I' for Inactive)
REMARK       I    between atoms: C_2  and  N_3 
REMARK       I    between atoms: C_2  and  N_12 
REMARK    1  A    between atoms: N_3  and  C_4 
REMARK    2  A    between atoms: N_12  and  C_13 
ROOT
HETATM    1  O   UNL     1     -40.379 -49.015  11.046  1.00  0.00    -0.247 OA
HETATM    2  C   UNL     1     -40.455 -50.016  11.754  1.00  0.00     0.322 C 
HETATM    3  N   UNL     1     -39.900 -50.091  12.993  1.00  0.00    -0.330 N 
HETATM    4  N   UNL     1     -41.134 -51.094  11.288  1.00  0.00    -0.289 N 
HETATM    5  H   UNL     1     -40.239 -50.843  13.590  1.00  0.00     0.165 HD
HETATM    6  H   UNL     1     -41.574 -50.967  10.390  1.00  0.00     0.172 HD
ENDROOT
BRANCH   3   7
HETATM    7  C   UNL     1     -39.337 -48.914  13.666  1.00  0.00     0.178 C 
HETATM    8  C   UNL     1     -37.813 -49.020  13.779  1.00  0.00     0.035 C 
HETATM    9  C   UNL     1     -37.180 -47.764  14.368  1.00  0.00     0.004 C 
HETATM   10  C   UNL     1     -37.110 -47.782  15.888  1.00  0.00     0.020 C 
HETATM   11  C   UNL     1     -38.299 -48.430  16.581  1.00  0.00     0.122 C 
HETATM   12  N   UNL     1     -39.589 -48.059  16.045  1.00  0.00    -0.359 N 
HETATM   13  C   UNL     1     -40.143 -48.698  14.968  1.00  0.00     0.240 C 
HETATM   14  H   UNL     1     -40.306 -47.937  16.752  1.00  0.00     0.162 HD
HETATM   15  O   UNL     1     -41.345 -48.978  15.033  1.00  0.00    -0.271 OA
ENDBRANCH   3   7
BRANCH   4  16
HETATM   16  C   UNL     1     -41.337 -52.278  11.928  1.00  0.00     0.152 A 
HETATM   17  N   UNL     1     -40.596 -53.358  11.915  1.00  0.00    -0.346 N 
HETATM   18  C   UNL     1     -41.180 -54.309  12.732  1.00  0.00     0.097 A 
ATOM     19  HN  UNL     1     -39.730 -53.477  11.390  1.00  0.00     0.167 HD
HETATM   20  C   UNL     1     -42.333 -53.913  13.381  1.00  0.00     0.070 A 
HETATM   21  S   UNL     1     -42.742 -52.319  12.895  1.00  0.00    -0.064 SA
ENDBRANCH   4  16
TORSDOF 2
ENDMDL
MODEL 8
REMARK VINA RESULT:      -4.7      2.447      3.385
REMARK  2 active torsions:
REMARK  status: ('A' for Active; 'I' for Inactive)
REMARK       I    between atoms: C_2  and  N_3 
REMARK       I    between atoms: C_2  and  N_12 
REMARK    1  A    between atoms: N_3  and  C_4 
REMARK    2  A    between atoms: N_12  and  C_13 
ROOT
HETATM    1  O   UNL     1     -42.659 -46.681  13.200  1.00  0.00    -0.247 OA
HETATM    2  C   UNL     1     -42.630 -47.160  12.068  1.00  0.00     0.322 C 
HETATM    3  N   UNL     1     -41.710 -48.081  11.676  1.00  0.00    -0.330 N 
HETATM    4  N   UNL     1     -43.566 -46.763  11.170  1.00  0.00    -0.289 N 
HETATM    5  H   UNL     1     -41.931 -48.599  10.828  1.00  0.00     0.165 HD
HETATM    6  H   UNL     1     -44.258 -46.123  11.527  1.00  0.00     0.172 HD
ENDROOT
BRANCH   3   7
HETATM    7  C   UNL     1     -40.801 -48.727  12.629  1.00  0.00     0.178 C 
HETATM    8  C   UNL     1     -39.417 -48.072  12.601  1.00  0.00     0.035 C 
HETATM    9  C   UNL     1     -38.478 -48.639  13.661  1.00  0.00     0.004 C 
HETATM   10  C   UNL     1     -37.706 -49.862  13.186  1.00  0.00     0.020 C 
HETATM   11  C   UNL     1     -38.481 -50.802  12.277  1.00  0.00     0.122 C 
HETATM   12  N   UNL     1     -39.835 -51.076  12.701  1.00  0.00    -0.359 N 
HETATM   13  C   UNL     1     -40.881 -50.252  12.382  1.00  0.00     0.240 C 
HETATM   14  H   UNL     1     -40.124 -52.037  12.551  1.00  0.00     0.162 HD
HETATM   15  O   UNL     1     -41.932 -50.788  12.012  1.00  0.00    -0.271 OA
ENDBRANCH   3   7
BRANCH   4  16
HETATM   16  C   UNL     1     -43.705 -47.188   9.884  1.00  0.00     0.152 A 
HETATM   17  N   UNL     1     -42.783 -47.357   8.970  1.00  0.00    -0.346 N 
HETATM   18  C   UNL     1     -43.382 -47.827   7.815  1.00  0.00     0.097 A 
ATOM     19  HN  UNL     1     -41.787 -47.174   9.090  1.00  0.00     0.167 HD
HETATM   20  C   UNL     1     -44.743 -48.044   7.893  1.00  0.00     0.070 A 
HETATM   21  S   UNL     1     -45.307 -47.573   9.444  1.00  0.00    -0.064 SA
ENDBRANCH   4  16
TORSDOF 2
ENDMDL
MODEL 9
REMARK VINA RESULT:      -4.7      2.776      5.844
REMARK  2 active torsions:
REMARK  status: ('A' for Active; 'I' for Inactive)
REMARK       I    between atoms: C_2  and  N_3 
REMARK       I    between atoms: C_2  and  N_12 
REMARK    1  A    between atoms: N_3  and  C_4 
REMARK    2  A    between atoms: N_12  and  C_13 
ROOT
HETATM    1  O   UNL     1     -40.159 -49.920  10.878  1.00  0.00    -0.247 OA
HETATM    2  C   UNL     1     -41.028 -50.471  11.550  1.00  0.00     0.322 C 
HETATM    3  N   UNL     1     -41.939 -49.784  12.290  1.00  0.00    -0.330 N 
HETATM    4  N   UNL     1     -41.093 -51.825  11.547  1.00  0.00    -0.289 N 
HETATM    5  H   UNL     1     -42.760 -50.309  12.586  1.00  0.00     0.165 HD
HETATM    6  H   UNL     1     -40.432 -52.284  10.939  1.00  0.00     0.172 HD
ENDROOT
BRANCH   3   7
HETATM    7  C   UNL     1     -42.085 -48.327  12.187  1.00  0.00     0.178 C 
HETATM    8  C   UNL     1     -42.344 -47.900  10.740  1.00  0.00     0.035 C 
HETATM    9  C   UNL     1     -42.617 -46.405  10.610  1.00  0.00     0.004 C 
HETATM   10  C   UNL     1     -41.352 -45.576  10.434  1.00  0.00     0.020 C 
HETATM   11  C   UNL     1     -40.148 -46.063  11.224  1.00  0.00     0.122 C 
HETATM   12  N   UNL     1     -40.431 -46.441  12.590  1.00  0.00    -0.359 N 
HETATM   13  C   UNL     1     -40.882 -47.691  12.922  1.00  0.00     0.240 C 
HETATM   14  H   UNL     1     -39.705 -46.175  13.247  1.00  0.00     0.162 HD
HETATM   15  O   UNL     1     -40.375 -48.231  13.912  1.00  0.00    -0.271 OA
ENDBRANCH   3   7
BRANCH   4  16
HETATM   16  C   UNL     1     -41.987 -52.609  12.211  1.00  0.00     0.152 A 
HETATM   17  N   UNL     1     -43.223 -52.899  11.890  1.00  0.00    -0.346 N 
HETATM   18  C   UNL     1     -43.742 -53.752  12.847  1.00  0.00     0.097 A 
ATOM     19  HN  UNL     1     -43.720 -52.554  11.069  1.00  0.00     0.167 HD
HETATM   20  C   UNL     1     -42.872 -54.123  13.853  1.00  0.00     0.070 A 
HETATM   21  S   UNL     1     -41.372 -53.319  13.635  1.00  0.00    -0.064 SA
ENDBRANCH   4  16
TORSDOF 2
ENDMDL
