MODEL 1
REMARK VINA RESULT:      -6.5      0.000      0.000
REMARK  4 active torsions:
REMARK  status: ('A' for Active; 'I' for Inactive)
REMARK    1  A    between atoms: C_2  and  C_4 
REMARK    2  A    between atoms: C_2  and  N_16 
REMARK    3  A    between atoms: C_4  and  N_5 
REMARK       I    between atoms: N_5  and  C_6 
REMARK       I    between atoms: C_6  and  N_8 
REMARK    4  A    between atoms: N_8  and  C_9 
ROOT
HETATM    1  N   UNL     1     -41.730 -50.020  11.475  1.00  0.00    -0.340 N 
HETATM    2  C   UNL     1     -40.833 -49.030  11.159  1.00  0.00     0.321 C 
HETATM    3  O   UNL     1     -39.690 -48.987  11.597  1.00  0.00    -0.247 OA
HETATM    4  N   UNL     1     -41.321 -48.001  10.406  1.00  0.00    -0.295 N 
HETATM    5  H   UNL     1     -42.689 -49.701  11.479  1.00  0.00     0.164 HD
HETATM    6  H   UNL     1     -40.872 -47.119  10.613  1.00  0.00     0.172 HD
ENDROOT
BRANCH   1   7
HETATM    7  C   UNL     1     -41.431 -50.989  12.509  1.00  0.00     0.165 C 
BRANCH   7   8
HETATM    8  C   UNL     1     -42.651 -51.637  13.223  1.00  0.00     0.168 C 
HETATM    9  C   UNL     1     -42.337 -51.707  14.745  1.00  0.00     0.050 C 
HETATM   10  C   UNL     1     -43.897 -50.723  13.112  1.00  0.00     0.050 C 
BRANCH   8  11
HETATM   11  N   UNL     1     -42.990 -53.007  12.732  1.00  0.00     0.103 N 
HETATM   12  C   UNL     1     -44.419 -53.364  12.607  1.00  0.00     0.299 C 
HETATM   13  C   UNL     1     -45.070 -53.940  13.877  1.00  0.00     0.198 C 
HETATM   14  O   UNL     1     -44.335 -55.048  14.406  1.00  0.00    -0.388 OA
HETATM   15  C   UNL     1     -42.962 -54.713  14.633  1.00  0.00     0.198 C 
HETATM   16  C   UNL     1     -42.294 -54.152  13.365  1.00  0.00     0.299 C 
ENDBRANCH   8  11
ENDBRANCH   7   8
ENDBRANCH   1   7
BRANCH   4  17
HETATM   17  C   UNL     1     -42.577 -47.903   9.823  1.00  0.00     0.108 A 
HETATM   18  C   UNL     1     -43.705 -47.579  10.574  1.00  0.00     0.049 A 
HETATM   19  C   UNL     1     -44.913 -47.394   9.914  1.00  0.00     0.005 A 
HETATM   20  C   UNL     1     -44.955 -47.525   8.532  1.00  0.00     0.017 A 
HETATM   21  C   UNL     1     -43.789 -47.879   7.873  1.00  0.00     0.089 A 
HETATM   22  N   UNL     1     -42.612 -48.101   8.492  1.00  0.00    -0.352 N 
ATOM     23  HN  UNL     1     -41.786 -48.403   7.976  1.00  0.00     0.166 HD
ENDBRANCH   4  17
TORSDOF 4
ENDMDL
MODEL 2
REMARK VINA RESULT:      -6.3      1.190      1.676
REMARK  4 active torsions:
REMARK  status: ('A' for Active; 'I' for Inactive)
REMARK    1  A    between atoms: C_2  and  C_4 
REMARK    2  A    between atoms: C_2  and  N_16 
REMARK    3  A    between atoms: C_4  and  N_5 
REMARK       I    between atoms: N_5  and  C_6 
REMARK       I    between atoms: C_6  and  N_8 
REMARK    4  A    between atoms: N_8  and  C_9 
ROOT
HETATM    1  N   UNL     1     -41.995 -50.271  11.606  1.00  0.00    -0.340 N 
HETATM    2  C   UNL     1     -40.916 -49.484  11.293  1.00  0.00     0.321 C 
HETATM    3  O   UNL     1     -39.785 -49.684  11.721  1.00  0.00    -0.247 OA
HETATM    4  N   UNL     1     -41.187 -48.366  10.559  1.00  0.00    -0.295 N 
HETATM    5  H   UNL     1     -42.868 -49.762  11.624  1.00  0.00     0.164 HD
HETATM    6  H   UNL     1     -40.564 -47.598  10.772  1.00  0.00     0.172 HD
ENDROOT
BRANCH   1   7
HETATM    7  C   UNL     1     -41.895 -51.296  12.625  1.00  0.00     0.165 C 
BRANCH   7   8
HETATM    8  C   UNL     1     -42.621 -51.006  13.971  1.00  0.00     0.168 C 
HETATM    9  C   UNL     1     -41.538 -50.855  15.077  1.00  0.00     0.050 C 
HETATM   10  C   UNL     1     -43.337 -49.633  13.920  1.00  0.00     0.050 C 
BRANCH   8  11
HETATM   11  N   UNL     1     -43.594 -52.064  14.381  1.00  0.00     0.103 N 
HETATM   12  C   UNL     1     -43.411 -53.424  13.831  1.00  0.00     0.299 C 
HETATM   13  C   UNL     1     -44.091 -53.686  12.476  1.00  0.00     0.198 C 
HETATM   14  O   UNL     1     -45.482 -53.352  12.497  1.00  0.00    -0.388 OA
HETATM   15  C   UNL     1     -45.697 -52.006  12.932  1.00  0.00     0.198 C 
HETATM   16  C   UNL     1     -45.036 -51.735  14.295  1.00  0.00     0.299 C 
ENDBRANCH   8  11
ENDBRANCH   7   8
ENDBRANCH   1   7
BRANCH   4  17
HETATM   17  C   UNL     1     -42.399 -48.002   9.990  1.00  0.00     0.108 A 
HETATM   18  C   UNL     1     -43.399 -47.385  10.739  1.00  0.00     0.049 A 
HETATM   19  C   UNL     1     -44.547 -46.953  10.087  1.00  0.00     0.005 A 
HETATM   20  C   UNL     1     -44.655 -47.136   8.715  1.00  0.00     0.017 A 
HETATM   21  C   UNL     1     -43.623 -47.786   8.059  1.00  0.00     0.089 A 
HETATM   22  N   UNL     1     -42.514 -48.249   8.671  1.00  0.00    -0.352 N 
ATOM     23  HN  UNL     1     -41.797 -48.763   8.160  1.00  0.00     0.166 HD
ENDBRANCH   4  17
TORSDOF 4
ENDMDL
MODEL 3
REMARK VINA RESULT:      -6.3      1.498      2.093
REMARK  4 active torsions:
REMARK  status: ('A' for Active; 'I' for Inactive)
REMARK    1  A    between atoms: C_2  and  C_4 
REMARK    2  A    between atoms: C_2  and  N_16 
REMARK    3  A    between atoms: C_4  and  N_5 
REMARK       I    between atoms: N_5  and  C_6 
REMARK       I    between atoms: C_6  and  N_8 
REMARK    4  A    between atoms: N_8  and  C_9 
ROOT
HETATM    1  N   UNL     1     -41.598 -49.959  11.320  1.00  0.00    -0.340 N 
HETATM    2  C   UNL     1     -40.790 -48.875  11.087  1.00  0.00     0.321 C 
HETATM    3  O   UNL     1     -39.662 -48.757  11.550  1.00  0.00    -0.247 OA
HETATM    4  N   UNL     1     -41.360 -47.846  10.392  1.00  0.00    -0.295 N 
HETATM    5  H   UNL     1     -42.582 -49.729  11.326  1.00  0.00     0.164 HD
HETATM    6  H   UNL     1     -40.996 -46.943  10.664  1.00  0.00     0.172 HD
ENDROOT
BRANCH   1   7
HETATM    7  C   UNL     1     -41.227 -50.964  12.296  1.00  0.00     0.165 C 
BRANCH   7   8
HETATM    8  C   UNL     1     -42.071 -51.004  13.602  1.00  0.00     0.168 C 
HETATM    9  C   UNL     1     -41.535 -49.898  14.555  1.00  0.00     0.050 C 
HETATM   10  C   UNL     1     -43.541 -50.610  13.314  1.00  0.00     0.050 C 
BRANCH   8  11
HETATM   11  N   UNL     1     -42.035 -52.319  14.312  1.00  0.00     0.103 N 
HETATM   12  C   UNL     1     -40.916 -52.573  15.245  1.00  0.00     0.299 C 
HETATM   13  C   UNL     1     -39.650 -53.173  14.609  1.00  0.00     0.198 C 
HETATM   14  O   UNL     1     -39.934 -54.356  13.855  1.00  0.00    -0.388 OA
HETATM   15  C   UNL     1     -40.948 -54.126  12.871  1.00  0.00     0.198 C 
HETATM   16  C   UNL     1     -42.227 -53.541  13.496  1.00  0.00     0.299 C 
ENDBRANCH   8  11
ENDBRANCH   7   8
ENDBRANCH   1   7
BRANCH   4  17
HETATM   17  C   UNL     1     -42.611 -47.823   9.791  1.00  0.00     0.108 A 
HETATM   18  C   UNL     1     -43.762 -47.527  10.518  1.00  0.00     0.049 A 
HETATM   19  C   UNL     1     -44.969 -47.418   9.839  1.00  0.00     0.005 A 
HETATM   20  C   UNL     1     -44.986 -47.594   8.461  1.00  0.00     0.017 A 
HETATM   21  C   UNL     1     -43.797 -47.914   7.827  1.00  0.00     0.089 A 
HETATM   22  N   UNL     1     -42.619 -48.063   8.467  1.00  0.00    -0.352 N 
ATOM     23  HN  UNL     1     -41.774 -48.344   7.970  1.00  0.00     0.166 HD
ENDBRANCH   4  17
TORSDOF 4
ENDMDL
MODEL 4
REMARK VINA RESULT:      -6.3      2.127      3.093
REMARK  4 active torsions:
REMARK  status: ('A' for Active; 'I' for Inactive)
REMARK    1  A    between atoms: C_2  and  C_4 
REMARK    2  A    between atoms: C_2  and  N_16 
REMARK    3  A    between atoms: C_4  and  N_5 
REMARK       I    between atoms: N_5  and  C_6 
REMARK       I    between atoms: C_6  and  N_8 
REMARK    4  A    between atoms: N_8  and  C_9 
ROOT
HETATM    1  N   UNL     1     -42.463 -51.446  12.176  1.00  0.00    -0.340 N 
HETATM    2  C   UNL     1     -41.176 -51.783  11.839  1.00  0.00     0.321 C 
HETATM    3  O   UNL     1     -40.758 -52.934  11.830  1.00  0.00    -0.247 OA
HETATM    4  N   UNL     1     -40.324 -50.739  11.621  1.00  0.00    -0.295 N 
HETATM    5  H   UNL     1     -42.535 -50.537  12.612  1.00  0.00     0.164 HD
HETATM    6  H   UNL     1     -39.371 -50.952  11.883  1.00  0.00     0.172 HD
ENDROOT
BRANCH   1   7
HETATM    7  C   UNL     1     -43.367 -52.433  12.729  1.00  0.00     0.165 C 
BRANCH   7   8
HETATM    8  C   UNL     1     -44.448 -51.905  13.717  1.00  0.00     0.168 C 
HETATM    9  C   UNL     1     -43.923 -50.580  14.339  1.00  0.00     0.050 C 
HETATM   10  C   UNL     1     -45.736 -51.507  12.954  1.00  0.00     0.050 C 
BRANCH   8  11
HETATM   11  N   UNL     1     -44.790 -52.859  14.815  1.00  0.00     0.103 N 
HETATM   12  C   UNL     1     -43.682 -53.585  15.472  1.00  0.00     0.299 C 
HETATM   13  C   UNL     1     -43.269 -54.907  14.802  1.00  0.00     0.198 C 
HETATM   14  O   UNL     1     -44.383 -55.786  14.611  1.00  0.00    -0.388 OA
HETATM   15  C   UNL     1     -45.443 -55.148  13.890  1.00  0.00     0.198 C 
HETATM   16  C   UNL     1     -45.877 -53.833  14.560  1.00  0.00     0.299 C 
ENDBRANCH   8  11
ENDBRANCH   7   8
ENDBRANCH   1   7
BRANCH   4  17
HETATM   17  C   UNL     1     -40.637 -49.387  11.580  1.00  0.00     0.108 A 
HETATM   18  C   UNL     1     -40.256 -48.521  12.602  1.00  0.00     0.049 A 
HETATM   19  C   UNL     1     -40.509 -47.163  12.452  1.00  0.00     0.005 A 
HETATM   20  C   UNL     1     -41.118 -46.714  11.287  1.00  0.00     0.017 A 
HETATM   21  C   UNL     1     -41.487 -47.653  10.338  1.00  0.00     0.089 A 
HETATM   22  N   UNL     1     -41.289 -48.980  10.474  1.00  0.00    -0.352 N 
ATOM     23  HN  UNL     1     -41.616 -49.644   9.773  1.00  0.00     0.166 HD
ENDBRANCH   4  17
TORSDOF 4
ENDMDL
MODEL 5
REMARK VINA RESULT:      -6.2      1.622      2.303
REMARK  4 active torsions:
REMARK  status: ('A' for Active; 'I' for Inactive)
REMARK    1  A    between atoms: C_2  and  C_4 
REMARK    2  A    between atoms: C_2  and  N_16 
REMARK    3  A    between atoms: C_4  and  N_5 
REMARK       I    between atoms: N_5  and  C_6 
REMARK       I    between atoms: C_6  and  N_8 
REMARK    4  A    between atoms: N_8  and  C_9 
ROOT
HETATM    1  N   UNL     1     -41.903 -51.680  11.819  1.00  0.00    -0.340 N 
HETATM    2  C   UNL     1     -40.657 -51.120  11.945  1.00  0.00     0.321 C 
HETATM    3  O   UNL     1     -39.669 -51.742  12.315  1.00  0.00    -0.247 OA
HETATM    4  N   UNL     1     -40.588 -49.770  11.750  1.00  0.00    -0.295 N 
HETATM    5  H   UNL     1     -42.653 -51.028  12.000  1.00  0.00     0.164 HD
HETATM    6  H   UNL     1     -39.872 -49.330  12.313  1.00  0.00     0.172 HD
ENDROOT
BRANCH   1   7
HETATM    7  C   UNL     1     -42.166 -53.021  12.299  1.00  0.00     0.165 C 
BRANCH   7   8
HETATM    8  C   UNL     1     -43.246 -53.159  13.410  1.00  0.00     0.168 C 
HETATM    9  C   UNL     1     -42.711 -54.151  14.481  1.00  0.00     0.050 C 
HETATM   10  C   UNL     1     -43.429 -51.817  14.163  1.00  0.00     0.050 C 
BRANCH   8  11
HETATM   11  N   UNL     1     -44.572 -53.641  12.917  1.00  0.00     0.103 N 
HETATM   12  C   UNL     1     -45.602 -52.629  12.598  1.00  0.00     0.299 C 
HETATM   13  C   UNL     1     -46.489 -52.195  13.779  1.00  0.00     0.198 C 
HETATM   14  O   UNL     1     -47.091 -53.312  14.441  1.00  0.00    -0.388 OA
HETATM   15  C   UNL     1     -46.113 -54.273  14.853  1.00  0.00     0.198 C 
HETATM   16  C   UNL     1     -45.230 -54.728  13.678  1.00  0.00     0.299 C 
ENDBRANCH   8  11
ENDBRANCH   7   8
ENDBRANCH   1   7
BRANCH   4  17
HETATM   17  C   UNL     1     -41.602 -48.926  11.319  1.00  0.00     0.108 A 
HETATM   18  C   UNL     1     -42.534 -48.394  12.208  1.00  0.00     0.049 A 
HETATM   19  C   UNL     1     -43.459 -47.475  11.730  1.00  0.00     0.005 A 
HETATM   20  C   UNL     1     -43.417 -47.107  10.392  1.00  0.00     0.017 A 
HETATM   21  C   UNL     1     -42.473 -47.710   9.577  1.00  0.00     0.089 A 
HETATM   22  N   UNL     1     -41.587 -48.633  10.005  1.00  0.00    -0.352 N 
ATOM     23  HN  UNL     1     -40.937 -49.087   9.364  1.00  0.00     0.166 HD
ENDBRANCH   4  17
TORSDOF 4
ENDMDL
MODEL 6
REMARK VINA RESULT:      -6.1      2.306      6.398
REMARK  4 active torsions:
REMARK  status: ('A' for Active; 'I' for Inactive)
REMARK    1  A    between atoms: C_2  and  C_4 
REMARK    2  A    between atoms: C_2  and  N_16 
REMARK    3  A    between atoms: C_4  and  N_5 
REMARK       I    between atoms: N_5  and  C_6 
REMARK       I    between atoms: C_6  and  N_8 
REMARK    4  A    between atoms: N_8  and  C_9 
ROOT
HETATM    1  N   UNL     1     -42.224 -50.903  12.221  1.00  0.00    -0.340 N 
HETATM    2  C   UNL     1     -42.060 -52.261  12.120  1.00  0.00     0.321 C 
HETATM    3  O   UNL     1     -41.043 -52.790  11.688  1.00  0.00    -0.247 OA
HETATM    4  N   UNL     1     -43.156 -53.018  12.418  1.00  0.00    -0.295 N 
HETATM    5  H   UNL     1     -43.183 -50.607  12.102  1.00  0.00     0.164 HD
HETATM    6  H   UNL     1     -43.198 -53.873  11.881  1.00  0.00     0.172 HD
ENDROOT
BRANCH   1   7
HETATM    7  C   UNL     1     -41.256 -49.994  11.642  1.00  0.00     0.165 C 
BRANCH   7   8
HETATM    8  C   UNL     1     -41.569 -48.475  11.773  1.00  0.00     0.168 C 
HETATM    9  C   UNL     1     -43.036 -48.327  12.267  1.00  0.00     0.050 C 
HETATM   10  C   UNL     1     -40.703 -47.835  12.888  1.00  0.00     0.050 C 
BRANCH   8  11
HETATM   11  N   UNL     1     -41.400 -47.704  10.504  1.00  0.00     0.103 N 
HETATM   12  C   UNL     1     -40.891 -46.319  10.597  1.00  0.00     0.299 C 
HETATM   13  C   UNL     1     -41.962 -45.235  10.811  1.00  0.00     0.198 C 
HETATM   14  O   UNL     1     -43.005 -45.306   9.834  1.00  0.00    -0.388 OA
HETATM   15  C   UNL     1     -43.592 -46.611   9.781  1.00  0.00     0.198 C 
HETATM   16  C   UNL     1     -42.534 -47.703   9.550  1.00  0.00     0.299 C 
ENDBRANCH   8  11
ENDBRANCH   7   8
ENDBRANCH   1   7
BRANCH   4  17
HETATM   17  C   UNL     1     -44.371 -52.581  12.929  1.00  0.00     0.108 A 
HETATM   18  C   UNL     1     -44.518 -52.254  14.275  1.00  0.00     0.049 A 
HETATM   19  C   UNL     1     -45.730 -51.724  14.702  1.00  0.00     0.005 A 
HETATM   20  C   UNL     1     -46.745 -51.526  13.775  1.00  0.00     0.017 A 
HETATM   21  C   UNL     1     -46.516 -51.908  12.463  1.00  0.00     0.089 A 
HETATM   22  N   UNL     1     -45.364 -52.459  12.029  1.00  0.00    -0.352 N 
ATOM     23  HN  UNL     1     -45.251 -52.768  11.064  1.00  0.00     0.166 HD
ENDBRANCH   4  17
TORSDOF 4
ENDMDL
MODEL 7
REMARK VINA RESULT:      -6.0      3.177      5.695
REMARK  4 active torsions:
REMARK  status: ('A' for Active; 'I' for Inactive)
REMARK    1  A    between atoms: C_2  and  C_4 
REMARK    2  A    between atoms: C_2  and  N_16 
REMARK    3  A    between atoms: C_4  and  N_5 
REMARK       I    between atoms: N_5  and  C_6 
REMARK       I    between atoms: C_6  and  N_8 
REMARK    4  A    between atoms: N_8  and  C_9 
ROOT
HETATM    1  N   UNL     1     -41.877 -51.120  12.286  1.00  0.00    -0.340 N 
HETATM    2  C   UNL     1     -41.793 -52.488  12.219  1.00  0.00     0.321 C 
HETATM    3  O   UNL     1     -40.800 -53.087  11.824  1.00  0.00    -0.247 OA
HETATM    4  N   UNL     1     -42.939 -53.170  12.509  1.00  0.00    -0.295 N 
HETATM    5  H   UNL     1     -42.814 -50.771  12.138  1.00  0.00     0.164 HD
HETATM    6  H   UNL     1     -43.020 -54.035  11.990  1.00  0.00     0.172 HD
ENDROOT
BRANCH   1   7
HETATM    7  C   UNL     1     -40.844 -50.284  11.709  1.00  0.00     0.165 C 
BRANCH   7   8
HETATM    8  C   UNL     1     -40.420 -49.038  12.538  1.00  0.00     0.168 C 
HETATM    9  C   UNL     1     -40.494 -47.794  11.608  1.00  0.00     0.050 C 
HETATM   10  C   UNL     1     -41.444 -48.758  13.666  1.00  0.00     0.050 C 
BRANCH   8  11
HETATM   11  N   UNL     1     -39.047 -49.130  13.121  1.00  0.00     0.103 N 
HETATM   12  C   UNL     1     -37.900 -49.172  12.188  1.00  0.00     0.299 C 
HETATM   13  C   UNL     1     -37.504 -50.573  11.690  1.00  0.00     0.198 C 
HETATM   14  O   UNL     1     -37.288 -51.488  12.769  1.00  0.00    -0.388 OA
HETATM   15  C   UNL     1     -38.419 -51.550  13.645  1.00  0.00     0.198 C 
HETATM   16  C   UNL     1     -38.815 -50.157  14.164  1.00  0.00     0.299 C 
ENDBRANCH   8  11
ENDBRANCH   7   8
ENDBRANCH   1   7
BRANCH   4  17
HETATM   17  C   UNL     1     -44.136 -52.650  12.981  1.00  0.00     0.108 A 
HETATM   18  C   UNL     1     -44.249 -52.143  14.274  1.00  0.00     0.049 A 
HETATM   19  C   UNL     1     -45.444 -51.543  14.651  1.00  0.00     0.005 A 
HETATM   20  C   UNL     1     -46.477 -51.455  13.727  1.00  0.00     0.017 A 
HETATM   21  C   UNL     1     -46.282 -52.013  12.473  1.00  0.00     0.089 A 
HETATM   22  N   UNL     1     -45.148 -52.634  12.093  1.00  0.00    -0.352 N 
ATOM     23  HN  UNL     1     -45.060 -53.072  11.177  1.00  0.00     0.166 HD
ENDBRANCH   4  17
TORSDOF 4
ENDMDL
MODEL 8
REMARK VINA RESULT:      -6.0      4.028      7.530
REMARK  4 active torsions:
REMARK  status: ('A' for Active; 'I' for Inactive)
REMARK    1  A    between atoms: C_2  and  C_4 
REMARK    2  A    between atoms: C_2  and  N_16 
REMARK    3  A    between atoms: C_4  and  N_5 
REMARK       I    between atoms: N_5  and  C_6 
REMARK       I    between atoms: C_6  and  N_8 
REMARK    4  A    between atoms: N_8  and  C_9 
ROOT
HETATM    1  N   UNL     1     -41.282 -47.522  11.631  1.00  0.00    -0.340 N 
HETATM    2  C   UNL     1     -41.521 -48.310  10.533  1.00  0.00     0.321 C 
HETATM    3  O   UNL     1     -42.392 -48.071   9.705  1.00  0.00    -0.247 OA
HETATM    4  N   UNL     1     -40.805 -49.470  10.465  1.00  0.00    -0.295 N 
HETATM    5  H   UNL     1     -40.942 -48.042  12.428  1.00  0.00     0.164 HD
HETATM    6  H   UNL     1     -41.313 -50.216  10.008  1.00  0.00     0.172 HD
ENDROOT
BRANCH   1   7
HETATM    7  C   UNL     1     -42.183 -46.442  11.979  1.00  0.00     0.165 C 
BRANCH   7   8
HETATM    8  C   UNL     1     -41.936 -45.751  13.352  1.00  0.00     0.168 C 
HETATM    9  C   UNL     1     -43.255 -45.829  14.172  1.00  0.00     0.050 C 
HETATM   10  C   UNL     1     -40.898 -46.545  14.184  1.00  0.00     0.050 C 
BRANCH   8  11
HETATM   11  N   UNL     1     -41.509 -44.323  13.248  1.00  0.00     0.103 N 
HETATM   12  C   UNL     1     -42.510 -43.331  12.803  1.00  0.00     0.299 C 
HETATM   13  C   UNL     1     -42.619 -43.140  11.279  1.00  0.00     0.198 C 
HETATM   14  O   UNL     1     -41.351 -42.856  10.680  1.00  0.00    -0.388 OA
HETATM   15  C   UNL     1     -40.375 -43.850  11.009  1.00  0.00     0.198 C 
HETATM   16  C   UNL     1     -40.244 -44.039  12.530  1.00  0.00     0.299 C 
ENDBRANCH   8  11
ENDBRANCH   7   8
ENDBRANCH   1   7
BRANCH   4  17
HETATM   17  C   UNL     1     -39.780 -49.881  11.306  1.00  0.00     0.108 A 
HETATM   18  C   UNL     1     -40.044 -50.528  12.511  1.00  0.00     0.049 A 
HETATM   19  C   UNL     1     -38.974 -51.007  13.258  1.00  0.00     0.005 A 
HETATM   20  C   UNL     1     -37.684 -50.837  12.774  1.00  0.00     0.017 A 
HETATM   21  C   UNL     1     -37.517 -50.155  11.579  1.00  0.00     0.089 A 
HETATM   22  N   UNL     1     -38.534 -49.648  10.854  1.00  0.00    -0.352 N 
ATOM     23  HN  UNL     1     -38.367 -49.112  10.002  1.00  0.00     0.166 HD
ENDBRANCH   4  17
TORSDOF 4
ENDMDL
MODEL 9
REMARK VINA RESULT:      -5.9      4.761      7.505
REMARK  4 active torsions:
REMARK  status: ('A' for Active; 'I' for Inactive)
REMARK    1  A    between atoms: C_2  and  C_4 
REMARK    2  A    between atoms: C_2  and  N_16 
REMARK    3  A    between atoms: C_4  and  N_5 
REMARK       I    between atoms: N_5  and  C_6 
REMARK       I    between atoms: C_6  and  N_8 
REMARK    4  A    between atoms: N_8  and  C_9 
ROOT
HETATM    1  N   UNL     1     -41.206 -45.560  10.715  1.00  0.00    -0.340 N 
HETATM    2  C   UNL     1     -40.631 -46.793  10.895  1.00  0.00     0.321 C 
HETATM    3  O   UNL     1     -39.525 -46.958  11.395  1.00  0.00    -0.247 OA
HETATM    4  N   UNL     1     -41.314 -47.852  10.368  1.00  0.00    -0.295 N 
HETATM    5  H   UNL     1     -41.811 -45.517   9.906  1.00  0.00     0.164 HD
HETATM    6  H   UNL     1     -40.703 -48.594  10.055  1.00  0.00     0.172 HD
ENDROOT
BRANCH   1   7
HETATM    7  C   UNL     1     -40.447 -44.348  10.942  1.00  0.00     0.165 C 
BRANCH   7   8
HETATM    8  C   UNL     1     -40.919 -43.447  12.120  1.00  0.00     0.168 C 
HETATM    9  C   UNL     1     -40.111 -43.851  13.386  1.00  0.00     0.050 C 
HETATM   10  C   UNL     1     -40.543 -41.967  11.859  1.00  0.00     0.050 C 
BRANCH   8  11
HETATM   11  N   UNL     1     -42.379 -43.548  12.420  1.00  0.00     0.103 N 
HETATM   12  C   UNL     1     -43.282 -42.550  11.807  1.00  0.00     0.299 C 
HETATM   13  C   UNL     1     -43.470 -41.249  12.608  1.00  0.00     0.198 C 
HETATM   14  O   UNL     1     -43.867 -41.501  13.960  1.00  0.00    -0.388 OA
HETATM   15  C   UNL     1     -42.960 -42.390  14.621  1.00  0.00     0.198 C 
HETATM   16  C   UNL     1     -42.777 -43.703  13.839  1.00  0.00     0.299 C 
ENDBRANCH   8  11
ENDBRANCH   7   8
ENDBRANCH   1   7
BRANCH   4  17
HETATM   17  C   UNL     1     -42.574 -47.839   9.786  1.00  0.00     0.108 A 
HETATM   18  C   UNL     1     -43.724 -47.637  10.546  1.00  0.00     0.049 A 
HETATM   19  C   UNL     1     -44.945 -47.532   9.890  1.00  0.00     0.005 A 
HETATM   20  C   UNL     1     -44.977 -47.618   8.504  1.00  0.00     0.017 A 
HETATM   21  C   UNL     1     -43.785 -47.849   7.836  1.00  0.00     0.089 A 
HETATM   22  N   UNL     1     -42.593 -47.992   8.449  1.00  0.00    -0.352 N 
ATOM     23  HN  UNL     1     -41.745 -48.206   7.924  1.00  0.00     0.166 HD
ENDBRANCH   4  17
TORSDOF 4
ENDMDL
