MODEL 1
REMARK VINA RESULT:      -6.5      0.000      0.000
REMARK  5 active torsions:
REMARK  status: ('A' for Active; 'I' for Inactive)
REMARK    1  A    between atoms: C_2  and  C_3 
REMARK    2  A    between atoms: C_9  and  N_10 
REMARK       I    between atoms: N_10  and  C_11 
REMARK       I    between atoms: C_11  and  N_13 
REMARK    3  A    between atoms: N_13  and  C_14 
REMARK    4  A    between atoms: C_14  and  C_15 
REMARK    5  A    between atoms: C_15  and  C_16 
ROOT
HETATM    1  N   UNL     1     -41.731 -49.285  10.993  1.00  0.00    -0.306 N 
HETATM    2  C   UNL     1     -42.432 -49.727  12.099  1.00  0.00     0.320 C 
HETATM    3  O   UNL     1     -43.054 -49.031  12.893  1.00  0.00    -0.247 OA
HETATM    4  N   UNL     1     -42.363 -51.105  12.228  1.00  0.00    -0.343 N 
HETATM    5  H   UNL     1     -41.394 -49.968  10.337  1.00  0.00     0.171 HD
HETATM    6  H   UNL     1     -41.527 -51.530  11.858  1.00  0.00     0.164 HD
ENDROOT
BRANCH   1   7
HETATM    7  C   UNL     1     -41.582 -47.948  10.647  1.00  0.00     0.077 A 
HETATM    8  C   UNL     1     -42.440 -47.136   9.848  1.00  0.00     0.053 A 
HETATM    9  N   UNL     1     -41.981 -45.879   9.740  1.00  0.00    -0.301 N 
HETATM   10  N   UNL     1     -40.848 -45.890  10.464  1.00  0.00    -0.305 N 
ATOM     11  HN  UNL     1     -42.395 -45.100   9.229  1.00  0.00     0.187 HD
HETATM   12  C   UNL     1     -40.066 -44.691  10.624  1.00  0.00     0.177 C 
HETATM   13  C   UNL     1     -40.557 -47.105  11.002  1.00  0.00     0.141 A 
BRANCH   8  14
HETATM   14  C   UNL     1     -43.711 -47.509   9.161  1.00  0.00     0.056 C 
HETATM   15  C   UNL     1     -43.497 -47.875   7.700  1.00  0.00     0.011 C 
ENDBRANCH   8  14
ENDBRANCH   1   7
BRANCH   4  16
HETATM   16  C   UNL     1     -42.923 -51.725  13.423  1.00  0.00     0.127 C 
BRANCH  16  17
HETATM   17  C   UNL     1     -43.344 -53.182  13.202  1.00  0.00     0.051 C 
BRANCH  17  18
HETATM   18  C   UNL     1     -44.747 -53.248  12.573  1.00  0.00     0.123 C 
HETATM   19  C   UNL     1     -45.674 -52.086  12.946  1.00  0.00     0.032 C 
HETATM   20  C   UNL     1     -46.235 -52.190  14.359  1.00  0.00     0.004 C 
HETATM   21  C   UNL     1     -46.723 -53.597  14.688  1.00  0.00     0.026 C 
HETATM   22  C   UNL     1     -45.758 -54.673  14.217  1.00  0.00     0.168 C 
HETATM   23  O   UNL     1     -45.406 -54.491  12.844  1.00  0.00    -0.386 OA
ENDBRANCH  17  18
ENDBRANCH  16  17
ENDBRANCH   4  16
TORSDOF 5
ENDMDL
MODEL 2
REMARK VINA RESULT:      -6.4      2.255      3.280
REMARK  5 active torsions:
REMARK  status: ('A' for Active; 'I' for Inactive)
REMARK    1  A    between atoms: C_2  and  C_3 
REMARK    2  A    between atoms: C_9  and  N_10 
REMARK       I    between atoms: N_10  and  C_11 
REMARK       I    between atoms: C_11  and  N_13 
REMARK    3  A    between atoms: N_13  and  C_14 
REMARK    4  A    between atoms: C_14  and  C_15 
REMARK    5  A    between atoms: C_15  and  C_16 
ROOT
HETATM    1  N   UNL     1     -40.872 -51.298  11.334  1.00  0.00    -0.306 N 
HETATM    2  C   UNL     1     -41.206 -52.011  12.470  1.00  0.00     0.320 C 
HETATM    3  O   UNL     1     -41.186 -51.597  13.623  1.00  0.00    -0.247 OA
HETATM    4  N   UNL     1     -41.589 -53.307  12.162  1.00  0.00    -0.343 N 
HETATM    5  H   UNL     1     -41.079 -51.703  10.438  1.00  0.00     0.171 HD
HETATM    6  H   UNL     1     -41.169 -53.695  11.332  1.00  0.00     0.164 HD
ENDROOT
BRANCH   1   7
HETATM    7  C   UNL     1     -40.400 -49.992  11.344  1.00  0.00     0.077 A 
HETATM    8  C   UNL     1     -39.060 -49.532  11.503  1.00  0.00     0.053 A 
HETATM    9  N   UNL     1     -38.980 -48.193  11.444  1.00  0.00    -0.301 N 
HETATM   10  N   UNL     1     -40.253 -47.806  11.245  1.00  0.00    -0.305 N 
ATOM     11  HN  UNL     1     -38.150 -47.607  11.529  1.00  0.00     0.187 HD
HETATM   12  C   UNL     1     -40.581 -46.412  11.088  1.00  0.00     0.177 C 
HETATM   13  C   UNL     1     -41.135 -48.840  11.203  1.00  0.00     0.141 A 
BRANCH   8  14
HETATM   14  C   UNL     1     -37.815 -50.327  11.718  1.00  0.00     0.056 C 
HETATM   15  C   UNL     1     -37.680 -50.820  13.150  1.00  0.00     0.011 C 
ENDBRANCH   8  14
ENDBRANCH   1   7
BRANCH   4  16
HETATM   16  C   UNL     1     -41.832 -54.242  13.254  1.00  0.00     0.127 C 
BRANCH  16  17
HETATM   17  C   UNL     1     -43.164 -53.995  13.970  1.00  0.00     0.051 C 
BRANCH  17  18
HETATM   18  C   UNL     1     -44.318 -53.922  12.953  1.00  0.00     0.123 C 
HETATM   19  C   UNL     1     -44.964 -52.540  12.815  1.00  0.00     0.032 C 
HETATM   20  C   UNL     1     -45.885 -52.184  13.976  1.00  0.00     0.004 C 
HETATM   21  C   UNL     1     -46.799 -53.340  14.368  1.00  0.00     0.026 C 
HETATM   22  C   UNL     1     -46.067 -54.672  14.414  1.00  0.00     0.168 C 
HETATM   23  O   UNL     1     -45.331 -54.901  13.210  1.00  0.00    -0.386 OA
ENDBRANCH  17  18
ENDBRANCH  16  17
ENDBRANCH   4  16
TORSDOF 5
ENDMDL
MODEL 3
REMARK VINA RESULT:      -6.3      1.512      2.012
REMARK  5 active torsions:
REMARK  status: ('A' for Active; 'I' for Inactive)
REMARK    1  A    between atoms: C_2  and  C_3 
REMARK    2  A    between atoms: C_9  and  N_10 
REMARK       I    between atoms: N_10  and  C_11 
REMARK       I    between atoms: C_11  and  N_13 
REMARK    3  A    between atoms: N_13  and  C_14 
REMARK    4  A    between atoms: C_14  and  C_15 
REMARK    5  A    between atoms: C_15  and  C_16 
ROOT
HETATM    1  N   UNL     1     -42.116 -49.277  11.211  1.00  0.00    -0.306 N 
HETATM    2  C   UNL     1     -41.161 -50.239  11.483  1.00  0.00     0.320 C 
HETATM    3  O   UNL     1     -39.945 -50.098  11.419  1.00  0.00    -0.247 OA
HETATM    4  N   UNL     1     -41.742 -51.440  11.858  1.00  0.00    -0.343 N 
HETATM    5  H   UNL     1     -43.072 -49.473  11.451  1.00  0.00     0.171 HD
HETATM    6  H   UNL     1     -42.655 -51.617  11.469  1.00  0.00     0.164 HD
ENDROOT
BRANCH   1   7
HETATM    7  C   UNL     1     -41.825 -47.996  10.761  1.00  0.00     0.077 A 
HETATM    8  C   UNL     1     -42.528 -47.211   9.799  1.00  0.00     0.053 A 
HETATM    9  N   UNL     1     -41.962 -46.007   9.627  1.00  0.00    -0.301 N 
HETATM   10  N   UNL     1     -40.915 -46.023  10.471  1.00  0.00    -0.305 N 
ATOM     11  HN  UNL     1     -42.256 -45.256   9.003  1.00  0.00     0.187 HD
HETATM   12  C   UNL     1     -40.061 -44.870  10.605  1.00  0.00     0.177 C 
HETATM   13  C   UNL     1     -40.780 -47.194  11.148  1.00  0.00     0.141 A 
BRANCH   8  14
HETATM   14  C   UNL     1     -43.746 -47.563   9.012  1.00  0.00     0.056 C 
HETATM   15  C   UNL     1     -43.422 -47.934   7.573  1.00  0.00     0.011 C 
ENDBRANCH   8  14
ENDBRANCH   1   7
BRANCH   4  16
HETATM   16  C   UNL     1     -40.885 -52.606  12.038  1.00  0.00     0.127 C 
BRANCH  16  17
HETATM   17  C   UNL     1     -41.552 -53.721  12.850  1.00  0.00     0.051 C 
BRANCH  17  18
HETATM   18  C   UNL     1     -42.555 -53.130  13.856  1.00  0.00     0.123 C 
HETATM   19  C   UNL     1     -42.758 -53.964  15.125  1.00  0.00     0.032 C 
HETATM   20  C   UNL     1     -43.618 -55.203  14.904  1.00  0.00     0.004 C 
HETATM   21  C   UNL     1     -44.856 -54.909  14.063  1.00  0.00     0.026 C 
HETATM   22  C   UNL     1     -44.550 -54.023  12.866  1.00  0.00     0.168 C 
HETATM   23  O   UNL     1     -43.826 -52.853  13.256  1.00  0.00    -0.386 OA
ENDBRANCH  17  18
ENDBRANCH  16  17
ENDBRANCH   4  16
TORSDOF 5
ENDMDL
MODEL 4
REMARK VINA RESULT:      -6.2      3.757      5.305
REMARK  5 active torsions:
REMARK  status: ('A' for Active; 'I' for Inactive)
REMARK    1  A    between atoms: C_2  and  C_3 
REMARK    2  A    between atoms: C_9  and  N_10 
REMARK       I    between atoms: N_10  and  C_11 
REMARK       I    between atoms: C_11  and  N_13 
REMARK    3  A    between atoms: N_13  and  C_14 
REMARK    4  A    between atoms: C_14  and  C_15 
REMARK    5  A    between atoms: C_15  and  C_16 
ROOT
HETATM    1  N   UNL     1     -41.234 -47.803  10.213  1.00  0.00    -0.306 N 
HETATM    2  C   UNL     1     -41.489 -48.911  10.999  1.00  0.00     0.320 C 
HETATM    3  O   UNL     1     -42.415 -49.046  11.791  1.00  0.00    -0.247 OA
HETATM    4  N   UNL     1     -40.550 -49.909  10.792  1.00  0.00    -0.343 N 
HETATM    5  H   UNL     1     -40.536 -47.879   9.494  1.00  0.00     0.171 HD
HETATM    6  H   UNL     1     -39.636 -49.589  10.513  1.00  0.00     0.164 HD
ENDROOT
BRANCH   1   7
HETATM    7  C   UNL     1     -41.980 -46.632  10.251  1.00  0.00     0.077 A 
HETATM    8  C   UNL     1     -43.279 -46.388   9.716  1.00  0.00     0.053 A 
HETATM    9  N   UNL     1     -43.692 -45.133   9.958  1.00  0.00    -0.301 N 
HETATM   10  N   UNL     1     -42.670 -44.588  10.642  1.00  0.00    -0.305 N 
ATOM     11  HN  UNL     1     -44.572 -44.697   9.688  1.00  0.00     0.187 HD
HETATM   12  C   UNL     1     -42.748 -43.232  11.124  1.00  0.00     0.177 C 
HETATM   13  C   UNL     1     -41.620 -45.434  10.819  1.00  0.00     0.141 A 
BRANCH   8  14
HETATM   14  C   UNL     1     -44.172 -47.315   8.962  1.00  0.00     0.056 C 
HETATM   15  C   UNL     1     -43.542 -47.806   7.668  1.00  0.00     0.011 C 
ENDBRANCH   8  14
ENDBRANCH   1   7
BRANCH   4  16
HETATM   16  C   UNL     1     -40.582 -51.089  11.647  1.00  0.00     0.127 C 
BRANCH  16  17
HETATM   17  C   UNL     1     -39.720 -50.942  12.905  1.00  0.00     0.051 C 
BRANCH  17  18
HETATM   18  C   UNL     1     -38.314 -50.433  12.539  1.00  0.00     0.123 C 
HETATM   19  C   UNL     1     -37.219 -50.789  13.549  1.00  0.00     0.032 C 
HETATM   20  C   UNL     1     -37.263 -49.940  14.814  1.00  0.00     0.004 C 
HETATM   21  C   UNL     1     -37.472 -48.459  14.513  1.00  0.00     0.026 C 
HETATM   22  C   UNL     1     -38.536 -48.225  13.452  1.00  0.00     0.168 C 
HETATM   23  O   UNL     1     -38.295 -49.023  12.290  1.00  0.00    -0.386 OA
ENDBRANCH  17  18
ENDBRANCH  16  17
ENDBRANCH   4  16
TORSDOF 5
ENDMDL
MODEL 5
REMARK VINA RESULT:      -6.1      3.537      6.893
REMARK  5 active torsions:
REMARK  status: ('A' for Active; 'I' for Inactive)
REMARK    1  A    between atoms: C_2  and  C_3 
REMARK    2  A    between atoms: C_9  and  N_10 
REMARK       I    between atoms: N_10  and  C_11 
REMARK       I    between atoms: C_11  and  N_13 
REMARK    3  A    between atoms: N_13  and  C_14 
REMARK    4  A    between atoms: C_14  and  C_15 
REMARK    5  A    between atoms: C_15  and  C_16 
ROOT
HETATM    1  N   UNL     1     -40.565 -50.528  11.177  1.00  0.00    -0.306 N 
HETATM    2  C   UNL     1     -41.104 -49.278  11.412  1.00  0.00     0.320 C 
HETATM    3  O   UNL     1     -41.267 -48.749  12.506  1.00  0.00    -0.247 OA
HETATM    4  N   UNL     1     -41.460 -48.647  10.231  1.00  0.00    -0.343 N 
HETATM    5  H   UNL     1     -40.343 -50.782  10.230  1.00  0.00     0.171 HD
HETATM    6  H   UNL     1     -41.719 -49.262   9.475  1.00  0.00     0.164 HD
ENDROOT
BRANCH   1   7
HETATM    7  C   UNL     1     -40.169 -51.408  12.176  1.00  0.00     0.077 A 
HETATM    8  C   UNL     1     -39.012 -51.347  13.008  1.00  0.00     0.053 A 
HETATM    9  N   UNL     1     -38.967 -52.368  13.877  1.00  0.00    -0.301 N 
HETATM   10  N   UNL     1     -40.083 -53.068  13.606  1.00  0.00    -0.305 N 
ATOM     11  HN  UNL     1     -38.254 -52.567  14.579  1.00  0.00     0.187 HD
HETATM   12  C   UNL     1     -40.417 -54.244  14.369  1.00  0.00     0.177 C 
HETATM   13  C   UNL     1     -40.816 -52.549  12.585  1.00  0.00     0.141 A 
BRANCH   8  14
HETATM   14  C   UNL     1     -37.915 -50.336  13.014  1.00  0.00     0.056 C 
HETATM   15  C   UNL     1     -37.424 -50.017  14.417  1.00  0.00     0.011 C 
ENDBRANCH   8  14
ENDBRANCH   1   7
BRANCH   4  16
HETATM   16  C   UNL     1     -42.181 -47.382  10.303  1.00  0.00     0.127 C 
BRANCH  16  17
HETATM   17  C   UNL     1     -43.701 -47.561  10.383  1.00  0.00     0.051 C 
BRANCH  17  18
HETATM   18  C   UNL     1     -44.398 -46.756   9.271  1.00  0.00     0.123 C 
HETATM   19  C   UNL     1     -45.913 -46.964   9.181  1.00  0.00     0.032 C 
HETATM   20  C   UNL     1     -46.305 -48.293   8.548  1.00  0.00     0.004 C 
HETATM   21  C   UNL     1     -45.488 -48.605   7.298  1.00  0.00     0.026 C 
HETATM   22  C   UNL     1     -44.009 -48.303   7.479  1.00  0.00     0.168 C 
HETATM   23  O   UNL     1     -43.807 -46.982   7.986  1.00  0.00    -0.386 OA
ENDBRANCH  17  18
ENDBRANCH  16  17
ENDBRANCH   4  16
TORSDOF 5
ENDMDL
MODEL 6
REMARK VINA RESULT:      -5.9      1.622      2.952
REMARK  5 active torsions:
REMARK  status: ('A' for Active; 'I' for Inactive)
REMARK    1  A    between atoms: C_2  and  C_3 
REMARK    2  A    between atoms: C_9  and  N_10 
REMARK       I    between atoms: N_10  and  C_11 
REMARK       I    between atoms: C_11  and  N_13 
REMARK    3  A    between atoms: N_13  and  C_14 
REMARK    4  A    between atoms: C_14  and  C_15 
REMARK    5  A    between atoms: C_15  and  C_16 
ROOT
HETATM    1  N   UNL     1     -41.237 -49.284  10.397  1.00  0.00    -0.306 N 
HETATM    2  C   UNL     1     -41.308 -49.994  11.580  1.00  0.00     0.320 C 
HETATM    3  O   UNL     1     -41.860 -49.636  12.614  1.00  0.00    -0.247 OA
HETATM    4  N   UNL     1     -40.661 -51.215  11.480  1.00  0.00    -0.343 N 
HETATM    5  H   UNL     1     -40.890 -49.753   9.578  1.00  0.00     0.171 HD
HETATM    6  H   UNL     1     -39.894 -51.244  10.826  1.00  0.00     0.164 HD
ENDROOT
BRANCH   1   7
HETATM    7  C   UNL     1     -41.750 -48.005  10.223  1.00  0.00     0.077 A 
HETATM    8  C   UNL     1     -41.204 -46.761  10.657  1.00  0.00     0.053 A 
HETATM    9  N   UNL     1     -41.973 -45.723  10.294  1.00  0.00    -0.301 N 
HETATM   10  N   UNL     1     -42.994 -46.299   9.632  1.00  0.00    -0.305 N 
ATOM     11  HN  UNL     1     -41.820 -44.732  10.476  1.00  0.00     0.187 HD
HETATM   12  C   UNL     1     -44.034 -45.494   9.043  1.00  0.00     0.177 C 
HETATM   13  C   UNL     1     -42.916 -47.655   9.586  1.00  0.00     0.141 A 
BRANCH   8  14
HETATM   14  C   UNL     1     -39.951 -46.505  11.426  1.00  0.00     0.056 C 
HETATM   15  C   UNL     1     -40.201 -46.373  12.920  1.00  0.00     0.011 C 
ENDBRANCH   8  14
ENDBRANCH   1   7
BRANCH   4  16
HETATM   16  C   UNL     1     -40.510 -52.028  12.680  1.00  0.00     0.127 C 
BRANCH  16  17
HETATM   17  C   UNL     1     -41.497 -53.200  12.740  1.00  0.00     0.051 C 
BRANCH  17  18
HETATM   18  C   UNL     1     -42.210 -53.235  14.103  1.00  0.00     0.123 C 
HETATM   19  C   UNL     1     -42.977 -54.529  14.393  1.00  0.00     0.032 C 
HETATM   20  C   UNL     1     -44.293 -54.636  13.634  1.00  0.00     0.004 C 
HETATM   21  C   UNL     1     -45.091 -53.337  13.668  1.00  0.00     0.026 C 
HETATM   22  C   UNL     1     -44.221 -52.113  13.431  1.00  0.00     0.168 C 
HETATM   23  O   UNL     1     -43.079 -52.112  14.291  1.00  0.00    -0.386 OA
ENDBRANCH  17  18
ENDBRANCH  16  17
ENDBRANCH   4  16
TORSDOF 5
ENDMDL
MODEL 7
REMARK VINA RESULT:      -5.9      3.216      4.772
REMARK  5 active torsions:
REMARK  status: ('A' for Active; 'I' for Inactive)
REMARK    1  A    between atoms: C_2  and  C_3 
REMARK    2  A    between atoms: C_9  and  N_10 
REMARK       I    between atoms: N_10  and  C_11 
REMARK       I    between atoms: C_11  and  N_13 
REMARK    3  A    between atoms: N_13  and  C_14 
REMARK    4  A    between atoms: C_14  and  C_15 
REMARK    5  A    between atoms: C_15  and  C_16 
ROOT
HETATM    1  N   UNL     1     -40.798 -50.890  11.190  1.00  0.00    -0.306 N 
HETATM    2  C   UNL     1     -41.636 -51.564  12.057  1.00  0.00     0.320 C 
HETATM    3  O   UNL     1     -42.399 -51.060  12.874  1.00  0.00    -0.247 OA
HETATM    4  N   UNL     1     -41.528 -52.937  11.904  1.00  0.00    -0.343 N 
HETATM    5  H   UNL     1     -40.340 -51.413  10.465  1.00  0.00     0.171 HD
HETATM    6  H   UNL     1     -40.630 -53.266  11.587  1.00  0.00     0.164 HD
ENDROOT
BRANCH   1   7
HETATM    7  C   UNL     1     -40.657 -49.508  11.158  1.00  0.00     0.077 A 
HETATM    8  C   UNL     1     -39.554 -48.717  11.599  1.00  0.00     0.053 A 
HETATM    9  N   UNL     1     -39.766 -47.408  11.396  1.00  0.00    -0.301 N 
HETATM   10  N   UNL     1     -40.986 -47.366  10.829  1.00  0.00    -0.305 N 
ATOM     11  HN  UNL     1     -39.148 -46.628  11.618  1.00  0.00     0.187 HD
HETATM   12  C   UNL     1     -41.564 -46.111  10.421  1.00  0.00     0.177 C 
HETATM   13  C   UNL     1     -41.564 -48.589  10.691  1.00  0.00     0.141 A 
BRANCH   8  14
HETATM   14  C   UNL     1     -38.274 -49.160  12.224  1.00  0.00     0.056 C 
HETATM   15  C   UNL     1     -37.384 -49.919  11.252  1.00  0.00     0.011 C 
ENDBRANCH   8  14
ENDBRANCH   1   7
BRANCH   4  16
HETATM   16  C   UNL     1     -42.233 -53.803  12.841  1.00  0.00     0.127 C 
BRANCH  16  17
HETATM   17  C   UNL     1     -41.547 -53.891  14.209  1.00  0.00     0.051 C 
BRANCH  17  18
HETATM   18  C   UNL     1     -40.055 -54.232  14.043  1.00  0.00     0.123 C 
HETATM   19  C   UNL     1     -39.430 -54.973  15.230  1.00  0.00     0.032 C 
HETATM   20  C   UNL     1     -39.153 -54.072  16.428  1.00  0.00     0.004 C 
HETATM   21  C   UNL     1     -38.513 -52.749  16.024  1.00  0.00     0.026 C 
HETATM   22  C   UNL     1     -39.171 -52.134  14.799  1.00  0.00     0.168 C 
HETATM   23  O   UNL     1     -39.266 -53.079  13.730  1.00  0.00    -0.386 OA
ENDBRANCH  17  18
ENDBRANCH  16  17
ENDBRANCH   4  16
TORSDOF 5
ENDMDL
MODEL 8
REMARK VINA RESULT:      -5.8      2.447      7.561
REMARK  5 active torsions:
REMARK  status: ('A' for Active; 'I' for Inactive)
REMARK    1  A    between atoms: C_2  and  C_3 
REMARK    2  A    between atoms: C_9  and  N_10 
REMARK       I    between atoms: N_10  and  C_11 
REMARK       I    between atoms: C_11  and  N_13 
REMARK    3  A    between atoms: N_13  and  C_14 
REMARK    4  A    between atoms: C_14  and  C_15 
REMARK    5  A    between atoms: C_15  and  C_16 
ROOT
HETATM    1  N   UNL     1     -42.058 -52.253  11.771  1.00  0.00    -0.306 N 
HETATM    2  C   UNL     1     -41.780 -50.952  12.144  1.00  0.00     0.320 C 
HETATM    3  O   UNL     1     -42.037 -50.432  13.223  1.00  0.00    -0.247 OA
HETATM    4  N   UNL     1     -41.146 -50.256  11.126  1.00  0.00    -0.343 N 
HETATM    5  H   UNL     1     -41.658 -52.602  10.917  1.00  0.00     0.171 HD
HETATM    6  H   UNL     1     -41.370 -50.561  10.192  1.00  0.00     0.164 HD
ENDROOT
BRANCH   1   7
HETATM    7  C   UNL     1     -42.736 -53.165  12.570  1.00  0.00     0.077 A 
HETATM    8  C   UNL     1     -42.216 -54.002  13.601  1.00  0.00     0.053 A 
HETATM    9  N   UNL     1     -43.176 -54.747  14.172  1.00  0.00    -0.301 N 
HETATM   10  N   UNL     1     -44.293 -54.385  13.515  1.00  0.00    -0.305 N 
ATOM     11  HN  UNL     1     -43.081 -55.427  14.926  1.00  0.00     0.187 HD
HETATM   12  C   UNL     1     -45.570 -54.950  13.871  1.00  0.00     0.177 C 
HETATM   13  C   UNL     1     -44.076 -53.466  12.538  1.00  0.00     0.141 A 
BRANCH   8  14
HETATM   14  C   UNL     1     -40.810 -54.133  14.082  1.00  0.00     0.056 C 
HETATM   15  C   UNL     1     -40.481 -53.150  15.195  1.00  0.00     0.011 C 
ENDBRANCH   8  14
ENDBRANCH   1   7
BRANCH   4  16
HETATM   16  C   UNL     1     -40.913 -48.827  11.295  1.00  0.00     0.127 C 
BRANCH  16  17
HETATM   17  C   UNL     1     -41.686 -47.969  10.288  1.00  0.00     0.051 C 
BRANCH  17  18
HETATM   18  C   UNL     1     -42.864 -47.258  10.977  1.00  0.00     0.123 C 
HETATM   19  C   UNL     1     -44.243 -47.847  10.663  1.00  0.00     0.032 C 
HETATM   20  C   UNL     1     -44.756 -47.482   9.275  1.00  0.00     0.004 C 
HETATM   21  C   UNL     1     -44.542 -46.008   8.947  1.00  0.00     0.026 C 
HETATM   22  C   UNL     1     -43.164 -45.513   9.358  1.00  0.00     0.168 C 
HETATM   23  O   UNL     1     -42.875 -45.849  10.717  1.00  0.00    -0.386 OA
ENDBRANCH  17  18
ENDBRANCH  16  17
ENDBRANCH   4  16
TORSDOF 5
ENDMDL
MODEL 9
REMARK VINA RESULT:      -5.7      3.274      7.747
REMARK  5 active torsions:
REMARK  status: ('A' for Active; 'I' for Inactive)
REMARK    1  A    between atoms: C_2  and  C_3 
REMARK    2  A    between atoms: C_9  and  N_10 
REMARK       I    between atoms: N_10  and  C_11 
REMARK       I    between atoms: C_11  and  N_13 
REMARK    3  A    between atoms: N_13  and  C_14 
REMARK    4  A    between atoms: C_14  and  C_15 
REMARK    5  A    between atoms: C_15  and  C_16 
ROOT
HETATM    1  N   UNL     1     -40.767 -50.309  10.959  1.00  0.00    -0.306 N 
HETATM    2  C   UNL     1     -41.427 -49.120  11.203  1.00  0.00     0.320 C 
HETATM    3  O   UNL     1     -41.844 -48.726  12.286  1.00  0.00    -0.247 OA
HETATM    4  N   UNL     1     -41.579 -48.376  10.044  1.00  0.00    -0.343 N 
HETATM    5  H   UNL     1     -40.341 -50.443  10.059  1.00  0.00     0.171 HD
HETATM    6  H   UNL     1     -41.637 -48.912   9.192  1.00  0.00     0.164 HD
ENDROOT
BRANCH   1   7
HETATM    7  C   UNL     1     -40.522 -51.277  11.925  1.00  0.00     0.077 A 
HETATM    8  C   UNL     1     -39.434 -51.363  12.843  1.00  0.00     0.053 A 
HETATM    9  N   UNL     1     -39.538 -52.435  13.643  1.00  0.00    -0.301 N 
HETATM   10  N   UNL     1     -40.681 -53.022  13.243  1.00  0.00    -0.305 N 
ATOM     11  HN  UNL     1     -38.902 -52.734  14.381  1.00  0.00     0.187 HD
HETATM   12  C   UNL     1     -41.166 -54.210  13.899  1.00  0.00     0.177 C 
HETATM   13  C   UNL     1     -41.287 -52.383  12.207  1.00  0.00     0.141 A 
BRANCH   8  14
HETATM   14  C   UNL     1     -38.265 -50.449  12.998  1.00  0.00     0.056 C 
HETATM   15  C   UNL     1     -37.383 -50.417  11.760  1.00  0.00     0.011 C 
ENDBRANCH   8  14
ENDBRANCH   1   7
BRANCH   4  16
HETATM   16  C   UNL     1     -42.385 -47.162  10.092  1.00  0.00     0.127 C 
BRANCH  16  17
HETATM   17  C   UNL     1     -41.545 -45.890  10.256  1.00  0.00     0.051 C 
BRANCH  17  18
HETATM   18  C   UNL     1     -41.959 -45.131  11.529  1.00  0.00     0.123 C 
HETATM   19  C   UNL     1     -41.904 -43.605  11.413  1.00  0.00     0.032 C 
HETATM   20  C   UNL     1     -40.487 -43.045  11.467  1.00  0.00     0.004 C 
HETATM   21  C   UNL     1     -39.651 -43.686  12.569  1.00  0.00     0.026 C 
HETATM   22  C   UNL     1     -39.831 -45.194  12.634  1.00  0.00     0.168 C 
HETATM   23  O   UNL     1     -41.214 -45.551  12.678  1.00  0.00    -0.386 OA
ENDBRANCH  17  18
ENDBRANCH  16  17
ENDBRANCH   4  16
TORSDOF 5
ENDMDL
