MODEL 1
REMARK VINA RESULT:      -6.9      0.000      0.000
REMARK  3 active torsions:
REMARK  status: ('A' for Active; 'I' for Inactive)
REMARK    1  A    between atoms: N_5  and  C_6 
REMARK    2  A    between atoms: C_6  and  C_7 
REMARK       I    between atoms: C_7  and  N_9 
REMARK    3  A    between atoms: N_9  and  C_10 
ROOT
HETATM    1  C   UNL     1     -45.050 -52.562  13.115  1.00  0.00     0.122 C 
HETATM    2  C   UNL     1     -45.168 -51.489  14.231  1.00  0.00     0.046 C 
HETATM    3  C   UNL     1     -46.528 -51.380  14.927  1.00  0.00     0.004 C 
HETATM    4  C   UNL     1     -46.773 -52.355  16.074  1.00  0.00     0.000 C 
HETATM    5  C   UNL     1     -46.201 -53.761  15.938  1.00  0.00     0.000 C 
HETATM    6  C   UNL     1     -46.301 -54.371  14.544  1.00  0.00     0.004 C 
HETATM    7  C   UNL     1     -45.106 -54.015  13.652  1.00  0.00     0.046 C 
HETATM    8  C   UNL     1     -46.162 -52.390  12.131  1.00  0.00     0.091 C 
HETATM    9  N   UNL     1     -47.016 -52.263  11.353  1.00  0.00    -0.195 NA
ENDROOT
BRANCH   1  10
HETATM   10  N   UNL     1     -43.783 -52.357  12.360  1.00  0.00    -0.338 N 
HETATM   11  C   UNL     1     -42.523 -52.635  12.841  1.00  0.00     0.237 C 
HETATM   12  O   UNL     1     -42.300 -53.058  13.971  1.00  0.00    -0.272 OA
HETATM   13  H   UNL     1     -43.830 -51.769  11.526  1.00  0.00     0.164 HD
BRANCH  11  14
HETATM   14  C   UNL     1     -41.393 -52.314  11.862  1.00  0.00     0.234 C 
BRANCH  14  15
HETATM   15  N   UNL     1     -40.672 -51.103  12.249  1.00  0.00    -0.315 N 
HETATM   16  C   UNL     1     -41.146 -49.870  11.850  1.00  0.00     0.095 A 
HETATM   17  C   UNL     1     -40.541 -48.741  12.237  1.00  0.00     0.025 A 
HETATM   18  C   UNL     1     -39.385 -48.783  13.113  1.00  0.00    -0.034 A 
HETATM   19  C   UNL     1     -38.825 -47.457  13.556  1.00  0.00     0.050 C 
HETATM   20  C   UNL     1     -38.874 -49.975  13.495  1.00  0.00     0.118 A 
HETATM   21  C   UNL     1     -39.509 -51.244  13.007  1.00  0.00     0.269 A 
HETATM   22  C   UNL     1     -37.759 -50.078  14.372  1.00  0.00     0.105 C 
HETATM   23  O   UNL     1     -39.025 -52.347  13.260  1.00  0.00    -0.266 OA
HETATM   24  N   UNL     1     -36.856 -50.096  15.100  1.00  0.00    -0.191 NA
ENDBRANCH  14  15
ENDBRANCH  11  14
ENDBRANCH   1  10
TORSDOF 3
ENDMDL
MODEL 2
REMARK VINA RESULT:      -6.8      2.704      6.553
REMARK  3 active torsions:
REMARK  status: ('A' for Active; 'I' for Inactive)
REMARK    1  A    between atoms: N_5  and  C_6 
REMARK    2  A    between atoms: C_6  and  C_7 
REMARK       I    between atoms: C_7  and  N_9 
REMARK    3  A    between atoms: N_9  and  C_10 
ROOT
HETATM    1  C   UNL     1     -41.779 -48.351  11.332  1.00  0.00     0.122 C 
HETATM    2  C   UNL     1     -40.369 -47.702  11.371  1.00  0.00     0.046 C 
HETATM    3  C   UNL     1     -40.313 -46.188  11.144  1.00  0.00     0.004 C 
HETATM    4  C   UNL     1     -40.562 -45.317  12.371  1.00  0.00     0.000 C 
HETATM    5  C   UNL     1     -41.592 -45.805  13.384  1.00  0.00     0.000 C 
HETATM    6  C   UNL     1     -42.840 -46.442  12.784  1.00  0.00     0.004 C 
HETATM    7  C   UNL     1     -42.676 -47.945  12.529  1.00  0.00     0.046 C 
HETATM    8  C   UNL     1     -42.482 -47.953  10.073  1.00  0.00     0.091 C 
HETATM    9  N   UNL     1     -43.037 -47.661   9.095  1.00  0.00    -0.195 NA
ENDROOT
BRANCH   1  10
HETATM   10  N   UNL     1     -41.644 -49.833  11.289  1.00  0.00    -0.338 N 
HETATM   11  C   UNL     1     -41.273 -50.623  12.354  1.00  0.00     0.237 C 
HETATM   12  O   UNL     1     -40.980 -50.185  13.462  1.00  0.00    -0.272 OA
HETATM   13  H   UNL     1     -41.602 -50.270  10.366  1.00  0.00     0.164 HD
BRANCH  11  14
HETATM   14  C   UNL     1     -41.195 -52.116  12.031  1.00  0.00     0.234 C 
BRANCH  14  15
HETATM   15  N   UNL     1     -42.300 -52.857  12.635  1.00  0.00    -0.315 N 
HETATM   16  C   UNL     1     -43.568 -52.747  12.102  1.00  0.00     0.095 A 
HETATM   17  C   UNL     1     -44.588 -53.457  12.597  1.00  0.00     0.025 A 
HETATM   18  C   UNL     1     -44.380 -54.387  13.691  1.00  0.00    -0.034 A 
HETATM   19  C   UNL     1     -45.573 -55.199  14.124  1.00  0.00     0.050 C 
HETATM   20  C   UNL     1     -43.158 -54.495  14.259  1.00  0.00     0.118 A 
HETATM   21  C   UNL     1     -42.028 -53.649  13.751  1.00  0.00     0.269 A 
HETATM   22  C   UNL     1     -42.889 -55.408  15.317  1.00  0.00     0.105 C 
HETATM   23  O   UNL     1     -40.923 -53.654  14.295  1.00  0.00    -0.266 OA
HETATM   24  N   UNL     1     -42.730 -56.180  16.168  1.00  0.00    -0.191 NA
ENDBRANCH  14  15
ENDBRANCH  11  14
ENDBRANCH   1  10
TORSDOF 3
ENDMDL
MODEL 3
REMARK VINA RESULT:      -6.7      2.314      3.243
REMARK  3 active torsions:
REMARK  status: ('A' for Active; 'I' for Inactive)
REMARK    1  A    between atoms: N_5  and  C_6 
REMARK    2  A    between atoms: C_6  and  C_7 
REMARK       I    between atoms: C_7  and  N_9 
REMARK    3  A    between atoms: N_9  and  C_10 
ROOT
HETATM    1  C   UNL     1     -44.027 -51.755  13.307  1.00  0.00     0.122 C 
HETATM    2  C   UNL     1     -45.343 -50.955  13.105  1.00  0.00     0.046 C 
HETATM    3  C   UNL     1     -46.615 -51.585  13.682  1.00  0.00     0.004 C 
HETATM    4  C   UNL     1     -46.881 -51.323  15.161  1.00  0.00     0.000 C 
HETATM    5  C   UNL     1     -45.677 -51.270  16.095  1.00  0.00     0.000 C 
HETATM    6  C   UNL     1     -44.590 -52.299  15.810  1.00  0.00     0.004 C 
HETATM    7  C   UNL     1     -43.561 -51.809  14.784  1.00  0.00     0.046 C 
HETATM    8  C   UNL     1     -44.214 -53.160  12.830  1.00  0.00     0.091 C 
HETATM    9  N   UNL     1     -44.341 -54.253  12.455  1.00  0.00    -0.195 NA
ENDROOT
BRANCH   1  10
HETATM   10  N   UNL     1     -42.952 -51.164  12.465  1.00  0.00    -0.338 N 
HETATM   11  C   UNL     1     -41.629 -51.545  12.492  1.00  0.00     0.237 C 
HETATM   12  O   UNL     1     -41.179 -52.403  13.245  1.00  0.00    -0.272 OA
HETATM   13  H   UNL     1     -43.157 -50.275  12.005  1.00  0.00     0.164 HD
BRANCH  11  14
HETATM   14  C   UNL     1     -40.729 -50.760  11.535  1.00  0.00     0.234 C 
BRANCH  14  15
HETATM   15  N   UNL     1     -40.467 -49.410  12.027  1.00  0.00    -0.315 N 
HETATM   16  C   UNL     1     -39.814 -49.237  13.230  1.00  0.00     0.095 A 
HETATM   17  C   UNL     1     -39.508 -48.014  13.679  1.00  0.00     0.025 A 
HETATM   18  C   UNL     1     -39.829 -46.836  12.895  1.00  0.00    -0.034 A 
HETATM   19  C   UNL     1     -39.371 -45.512  13.447  1.00  0.00     0.050 C 
HETATM   20  C   UNL     1     -40.498 -46.968  11.727  1.00  0.00     0.118 A 
HETATM   21  C   UNL     1     -40.903 -48.332  11.255  1.00  0.00     0.269 A 
HETATM   22  C   UNL     1     -40.816 -45.852  10.905  1.00  0.00     0.105 C 
HETATM   23  O   UNL     1     -41.587 -48.489  10.244  1.00  0.00    -0.266 OA
HETATM   24  N   UNL     1     -41.035 -44.904  10.272  1.00  0.00    -0.191 NA
ENDBRANCH  14  15
ENDBRANCH  11  14
ENDBRANCH   1  10
TORSDOF 3
ENDMDL
MODEL 4
REMARK VINA RESULT:      -6.6      1.755      2.445
REMARK  3 active torsions:
REMARK  status: ('A' for Active; 'I' for Inactive)
REMARK    1  A    between atoms: N_5  and  C_6 
REMARK    2  A    between atoms: C_6  and  C_7 
REMARK       I    between atoms: C_7  and  N_9 
REMARK    3  A    between atoms: N_9  and  C_10 
ROOT
HETATM    1  C   UNL     1     -44.340 -52.328  13.654  1.00  0.00     0.122 C 
HETATM    2  C   UNL     1     -45.465 -51.279  13.441  1.00  0.00     0.046 C 
HETATM    3  C   UNL     1     -46.832 -51.618  14.044  1.00  0.00     0.004 C 
HETATM    4  C   UNL     1     -47.019 -51.270  15.517  1.00  0.00     0.000 C 
HETATM    5  C   UNL     1     -45.818 -51.443  16.440  1.00  0.00     0.000 C 
HETATM    6  C   UNL     1     -44.970 -52.681  16.176  1.00  0.00     0.004 C 
HETATM    7  C   UNL     1     -43.876 -52.440  15.129  1.00  0.00     0.046 C 
HETATM    8  C   UNL     1     -44.819 -53.676  13.217  1.00  0.00     0.091 C 
HETATM    9  N   UNL     1     -45.174 -54.727  12.872  1.00  0.00    -0.195 NA
ENDROOT
BRANCH   1  10
HETATM   10  N   UNL     1     -43.177 -51.993  12.788  1.00  0.00    -0.338 N 
HETATM   11  C   UNL     1     -42.010 -52.720  12.717  1.00  0.00     0.237 C 
HETATM   12  O   UNL     1     -41.785 -53.721  13.391  1.00  0.00    -0.272 OA
HETATM   13  H   UNL     1     -43.147 -51.051  12.393  1.00  0.00     0.164 HD
BRANCH  11  14
HETATM   14  C   UNL     1     -40.968 -52.144  11.758  1.00  0.00     0.234 C 
BRANCH  14  15
HETATM   15  N   UNL     1     -40.169 -51.098  12.395  1.00  0.00    -0.315 N 
HETATM   16  C   UNL     1     -39.135 -51.448  13.239  1.00  0.00     0.095 A 
HETATM   17  C   UNL     1     -38.350 -50.516  13.790  1.00  0.00     0.025 A 
HETATM   18  C   UNL     1     -38.548 -49.110  13.490  1.00  0.00    -0.034 A 
HETATM   19  C   UNL     1     -37.562 -48.145  14.096  1.00  0.00     0.050 C 
HETATM   20  C   UNL     1     -39.572 -48.730  12.694  1.00  0.00     0.118 A 
HETATM   21  C   UNL     1     -40.496 -49.768  12.129  1.00  0.00     0.269 A 
HETATM   22  C   UNL     1     -39.798 -47.370  12.345  1.00  0.00     0.105 C 
HETATM   23  O   UNL     1     -41.489 -49.459  11.471  1.00  0.00    -0.266 OA
HETATM   24  N   UNL     1     -39.923 -46.245  12.086  1.00  0.00    -0.191 NA
ENDBRANCH  14  15
ENDBRANCH  11  14
ENDBRANCH   1  10
TORSDOF 3
ENDMDL
MODEL 5
REMARK VINA RESULT:      -6.5      2.737      4.263
REMARK  3 active torsions:
REMARK  status: ('A' for Active; 'I' for Inactive)
REMARK    1  A    between atoms: N_5  and  C_6 
REMARK    2  A    between atoms: C_6  and  C_7 
REMARK       I    between atoms: C_7  and  N_9 
REMARK    3  A    between atoms: N_9  and  C_10 
ROOT
HETATM    1  C   UNL     1     -43.169 -51.484  13.068  1.00  0.00     0.122 C 
HETATM    2  C   UNL     1     -43.302 -52.931  12.521  1.00  0.00     0.046 C 
HETATM    3  C   UNL     1     -43.946 -53.956  13.460  1.00  0.00     0.004 C 
HETATM    4  C   UNL     1     -45.471 -53.998  13.461  1.00  0.00     0.000 C 
HETATM    5  C   UNL     1     -46.212 -52.675  13.303  1.00  0.00     0.000 C 
HETATM    6  C   UNL     1     -45.601 -51.496  14.051  1.00  0.00     0.004 C 
HETATM    7  C   UNL     1     -44.531 -50.763  13.234  1.00  0.00     0.046 C 
HETATM    8  C   UNL     1     -42.496 -51.511  14.404  1.00  0.00     0.091 C 
HETATM    9  N   UNL     1     -41.966 -51.515  15.437  1.00  0.00    -0.195 NA
ENDROOT
BRANCH   1  10
HETATM   10  N   UNL     1     -42.289 -50.690  12.168  1.00  0.00    -0.338 N 
HETATM   11  C   UNL     1     -40.953 -50.941  11.947  1.00  0.00     0.237 C 
HETATM   12  O   UNL     1     -40.326 -51.841  12.498  1.00  0.00    -0.272 OA
HETATM   13  H   UNL     1     -42.632 -49.774  11.872  1.00  0.00     0.164 HD
BRANCH  11  14
HETATM   14  C   UNL     1     -40.280 -49.959  10.988  1.00  0.00     0.234 C 
BRANCH  14  15
HETATM   15  N   UNL     1     -40.331 -48.589  11.495  1.00  0.00    -0.315 N 
HETATM   16  C   UNL     1     -39.476 -48.204  12.507  1.00  0.00     0.095 A 
HETATM   17  C   UNL     1     -39.459 -46.942  12.951  1.00  0.00     0.025 A 
HETATM   18  C   UNL     1     -40.321 -45.937  12.359  1.00  0.00    -0.034 A 
HETATM   19  C   UNL     1     -40.171 -44.529  12.874  1.00  0.00     0.050 C 
HETATM   20  C   UNL     1     -41.194 -46.288  11.388  1.00  0.00     0.118 A 
HETATM   21  C   UNL     1     -41.264 -47.716  10.935  1.00  0.00     0.269 A 
HETATM   22  C   UNL     1     -42.045 -45.341  10.753  1.00  0.00     0.105 C 
HETATM   23  O   UNL     1     -42.103 -48.093  10.117  1.00  0.00    -0.266 OA
HETATM   24  N   UNL     1     -42.703 -44.519  10.264  1.00  0.00    -0.191 NA
ENDBRANCH  14  15
ENDBRANCH  11  14
ENDBRANCH   1  10
TORSDOF 3
ENDMDL
MODEL 6
REMARK VINA RESULT:      -6.5      1.928      2.623
REMARK  3 active torsions:
REMARK  status: ('A' for Active; 'I' for Inactive)
REMARK    1  A    between atoms: N_5  and  C_6 
REMARK    2  A    between atoms: C_6  and  C_7 
REMARK       I    between atoms: C_7  and  N_9 
REMARK    3  A    between atoms: N_9  and  C_10 
ROOT
HETATM    1  C   UNL     1     -44.462 -53.158  14.231  1.00  0.00     0.122 C 
HETATM    2  C   UNL     1     -45.308 -51.990  13.656  1.00  0.00     0.046 C 
HETATM    3  C   UNL     1     -46.786 -51.962  14.056  1.00  0.00     0.004 C 
HETATM    4  C   UNL     1     -47.105 -51.309  15.397  1.00  0.00     0.000 C 
HETATM    5  C   UNL     1     -46.107 -51.507  16.533  1.00  0.00     0.000 C 
HETATM    6  C   UNL     1     -45.500 -52.902  16.626  1.00  0.00     0.004 C 
HETATM    7  C   UNL     1     -44.243 -53.063  15.763  1.00  0.00     0.046 C 
HETATM    8  C   UNL     1     -45.138 -54.460  13.942  1.00  0.00     0.091 C 
HETATM    9  N   UNL     1     -45.647 -55.480  13.716  1.00  0.00    -0.195 NA
ENDROOT
BRANCH   1  10
HETATM   10  N   UNL     1     -43.144 -53.205  13.541  1.00  0.00    -0.338 N 
HETATM   11  C   UNL     1     -42.133 -54.095  13.827  1.00  0.00     0.237 C 
HETATM   12  O   UNL     1     -42.197 -54.940  14.716  1.00  0.00    -0.272 OA
HETATM   13  H   UNL     1     -42.884 -52.392  12.979  1.00  0.00     0.164 HD
BRANCH  11  14
HETATM   14  C   UNL     1     -40.875 -53.913  12.978  1.00  0.00     0.234 C 
BRANCH  14  15
HETATM   15  N   UNL     1     -40.103 -52.746  13.400  1.00  0.00    -0.315 N 
HETATM   16  C   UNL     1     -39.266 -52.840  14.492  1.00  0.00     0.095 A 
HETATM   17  C   UNL     1     -38.503 -51.807  14.867  1.00  0.00     0.025 A 
HETATM   18  C   UNL     1     -38.516 -50.566  14.116  1.00  0.00    -0.034 A 
HETATM   19  C   UNL     1     -37.564 -49.491  14.570  1.00  0.00     0.050 C 
HETATM   20  C   UNL     1     -39.350 -50.428  13.061  1.00  0.00     0.118 A 
HETATM   21  C   UNL     1     -40.256 -51.561  12.679  1.00  0.00     0.269 A 
HETATM   22  C   UNL     1     -39.387 -49.245  12.272  1.00  0.00     0.105 C 
HETATM   23  O   UNL     1     -41.090 -51.446  11.781  1.00  0.00    -0.266 OA
HETATM   24  N   UNL     1     -39.361 -48.260  11.659  1.00  0.00    -0.191 NA
ENDBRANCH  14  15
ENDBRANCH  11  14
ENDBRANCH   1  10
TORSDOF 3
ENDMDL
MODEL 7
REMARK VINA RESULT:      -6.3      2.774      6.842
REMARK  3 active torsions:
REMARK  status: ('A' for Active; 'I' for Inactive)
REMARK    1  A    between atoms: N_5  and  C_6 
REMARK    2  A    between atoms: C_6  and  C_7 
REMARK       I    between atoms: C_7  and  N_9 
REMARK    3  A    between atoms: N_9  and  C_10 
ROOT
HETATM    1  C   UNL     1     -41.646 -48.580  11.641  1.00  0.00     0.122 C 
HETATM    2  C   UNL     1     -42.378 -47.886  10.460  1.00  0.00     0.046 C 
HETATM    3  C   UNL     1     -42.713 -46.403  10.648  1.00  0.00     0.004 C 
HETATM    4  C   UNL     1     -41.598 -45.417  10.315  1.00  0.00     0.000 C 
HETATM    5  C   UNL     1     -40.170 -45.829  10.652  1.00  0.00     0.000 C 
HETATM    6  C   UNL     1     -40.002 -46.564  11.977  1.00  0.00     0.004 C 
HETATM    7  C   UNL     1     -40.193 -48.080  11.843  1.00  0.00     0.046 C 
HETATM    8  C   UNL     1     -42.399 -48.339  12.911  1.00  0.00     0.091 C 
HETATM    9  N   UNL     1     -42.977 -48.169  13.904  1.00  0.00    -0.195 NA
ENDROOT
BRANCH   1  10
HETATM   10  N   UNL     1     -41.642 -50.053  11.427  1.00  0.00    -0.338 N 
HETATM   11  C   UNL     1     -41.023 -50.969  12.248  1.00  0.00     0.237 C 
HETATM   12  O   UNL     1     -40.372 -50.665  13.243  1.00  0.00    -0.272 OA
HETATM   13  H   UNL     1     -41.919 -50.390  10.502  1.00  0.00     0.164 HD
BRANCH  11  14
HETATM   14  C   UNL     1     -41.159 -52.420  11.786  1.00  0.00     0.234 C 
BRANCH  14  15
HETATM   15  N   UNL     1     -41.531 -53.305  12.889  1.00  0.00    -0.315 N 
HETATM   16  C   UNL     1     -40.549 -53.832  13.701  1.00  0.00     0.095 A 
HETATM   17  C   UNL     1     -40.862 -54.597  14.753  1.00  0.00     0.025 A 
HETATM   18  C   UNL     1     -42.248 -54.869  15.084  1.00  0.00    -0.034 A 
HETATM   19  C   UNL     1     -42.499 -55.673  16.333  1.00  0.00     0.050 C 
HETATM   20  C   UNL     1     -43.234 -54.395  14.290  1.00  0.00     0.118 A 
HETATM   21  C   UNL     1     -42.884 -53.595  13.071  1.00  0.00     0.269 A 
HETATM   22  C   UNL     1     -44.610 -54.608  14.579  1.00  0.00     0.105 C 
HETATM   23  O   UNL     1     -43.745 -53.219  12.276  1.00  0.00    -0.266 OA
HETATM   24  N   UNL     1     -45.715 -54.804  14.876  1.00  0.00    -0.191 NA
ENDBRANCH  14  15
ENDBRANCH  11  14
ENDBRANCH   1  10
TORSDOF 3
ENDMDL
MODEL 8
REMARK VINA RESULT:      -6.2      1.575      1.981
REMARK  3 active torsions:
REMARK  status: ('A' for Active; 'I' for Inactive)
REMARK    1  A    between atoms: N_5  and  C_6 
REMARK    2  A    between atoms: C_6  and  C_7 
REMARK       I    between atoms: C_7  and  N_9 
REMARK    3  A    between atoms: N_9  and  C_10 
ROOT
HETATM    1  C   UNL     1     -44.598 -53.297  14.886  1.00  0.00     0.122 C 
HETATM    2  C   UNL     1     -45.193 -52.015  14.244  1.00  0.00     0.046 C 
HETATM    3  C   UNL     1     -46.709 -51.834  14.368  1.00  0.00     0.004 C 
HETATM    4  C   UNL     1     -47.204 -51.208  15.669  1.00  0.00     0.000 C 
HETATM    5  C   UNL     1     -46.465 -51.571  16.951  1.00  0.00     0.000 C 
HETATM    6  C   UNL     1     -46.037 -53.029  17.063  1.00  0.00     0.004 C 
HETATM    7  C   UNL     1     -44.664 -53.296  16.435  1.00  0.00     0.046 C 
HETATM    8  C   UNL     1     -45.341 -54.498  14.394  1.00  0.00     0.091 C 
HETATM    9  N   UNL     1     -45.903 -55.441  14.013  1.00  0.00    -0.195 NA
ENDROOT
BRANCH   1  10
HETATM   10  N   UNL     1     -43.186 -53.466  14.446  1.00  0.00    -0.338 N 
HETATM   11  C   UNL     1     -42.780 -53.621  13.140  1.00  0.00     0.237 C 
HETATM   12  O   UNL     1     -43.549 -53.668  12.185  1.00  0.00    -0.272 OA
HETATM   13  H   UNL     1     -42.501 -53.707  15.165  1.00  0.00     0.164 HD
BRANCH  11  14
HETATM   14  C   UNL     1     -41.270 -53.792  12.968  1.00  0.00     0.234 C 
BRANCH  14  15
HETATM   15  N   UNL     1     -40.596 -52.506  12.803  1.00  0.00    -0.315 N 
HETATM   16  C   UNL     1     -41.031 -51.627  11.833  1.00  0.00     0.095 A 
HETATM   17  C   UNL     1     -40.473 -50.420  11.696  1.00  0.00     0.025 A 
HETATM   18  C   UNL     1     -39.411 -49.990  12.587  1.00  0.00    -0.034 A 
HETATM   19  C   UNL     1     -38.903 -48.583  12.403  1.00  0.00     0.050 C 
HETATM   20  C   UNL     1     -38.938 -50.838  13.527  1.00  0.00     0.118 A 
HETATM   21  C   UNL     1     -39.516 -52.218  13.638  1.00  0.00     0.269 A 
HETATM   22  C   UNL     1     -37.917 -50.463  14.444  1.00  0.00     0.105 C 
HETATM   23  O   UNL     1     -39.056 -53.049  14.421  1.00  0.00    -0.266 OA
HETATM   24  N   UNL     1     -37.093 -50.093  15.172  1.00  0.00    -0.191 NA
ENDBRANCH  14  15
ENDBRANCH  11  14
ENDBRANCH   1  10
TORSDOF 3
ENDMDL
MODEL 9
REMARK VINA RESULT:      -6.2      1.558      7.144
REMARK  3 active torsions:
REMARK  status: ('A' for Active; 'I' for Inactive)
REMARK    1  A    between atoms: N_5  and  C_6 
REMARK    2  A    between atoms: C_6  and  C_7 
REMARK       I    between atoms: C_7  and  N_9 
REMARK    3  A    between atoms: N_9  and  C_10 
ROOT
HETATM    1  C   UNL     1     -39.504 -50.446  13.586  1.00  0.00     0.122 C 
HETATM    2  C   UNL     1     -39.171 -49.522  14.788  1.00  0.00     0.046 C 
HETATM    3  C   UNL     1     -38.090 -48.463  14.551  1.00  0.00     0.004 C 
HETATM    4  C   UNL     1     -38.556 -47.164  13.899  1.00  0.00     0.000 C 
HETATM    5  C   UNL     1     -39.645 -47.260  12.837  1.00  0.00     0.000 C 
HETATM    6  C   UNL     1     -39.522 -48.447  11.888  1.00  0.00     0.004 C 
HETATM    7  C   UNL     1     -40.213 -49.708  12.421  1.00  0.00     0.046 C 
HETATM    8  C   UNL     1     -38.245 -51.051  13.052  1.00  0.00     0.091 C 
HETATM    9  N   UNL     1     -37.277 -51.536  12.631  1.00  0.00    -0.195 NA
ENDROOT
BRANCH   1  10
HETATM   10  N   UNL     1     -40.352 -51.578  14.049  1.00  0.00    -0.338 N 
HETATM   11  C   UNL     1     -40.737 -52.647  13.270  1.00  0.00     0.237 C 
HETATM   12  O   UNL     1     -40.444 -52.769  12.084  1.00  0.00    -0.272 OA
HETATM   13  H   UNL     1     -40.866 -51.448  14.923  1.00  0.00     0.164 HD
BRANCH  11  14
HETATM   14  C   UNL     1     -41.624 -53.663  13.991  1.00  0.00     0.234 C 
BRANCH  14  15
HETATM   15  N   UNL     1     -42.962 -53.130  14.239  1.00  0.00    -0.315 N 
HETATM   16  C   UNL     1     -43.279 -52.636  15.487  1.00  0.00     0.095 A 
HETATM   17  C   UNL     1     -44.476 -52.089  15.729  1.00  0.00     0.025 A 
HETATM   18  C   UNL     1     -45.464 -51.975  14.672  1.00  0.00    -0.034 A 
HETATM   19  C   UNL     1     -46.749 -51.272  15.023  1.00  0.00     0.050 C 
HETATM   20  C   UNL     1     -45.198 -52.479  13.446  1.00  0.00     0.118 A 
HETATM   21  C   UNL     1     -43.884 -53.154  13.191  1.00  0.00     0.269 A 
HETATM   22  C   UNL     1     -46.118 -52.373  12.366  1.00  0.00     0.105 C 
HETATM   23  O   UNL     1     -43.636 -53.701  12.117  1.00  0.00    -0.266 OA
HETATM   24  N   UNL     1     -46.904 -52.243  11.522  1.00  0.00    -0.191 NA
ENDBRANCH  14  15
ENDBRANCH  11  14
ENDBRANCH   1  10
TORSDOF 3
ENDMDL
