MODEL 1
REMARK VINA RESULT:      -6.2      0.000      0.000
REMARK  3 active torsions:
REMARK  status: ('A' for Active; 'I' for Inactive)
REMARK    1  A    between atoms: C_2  and  N_3 
REMARK    2  A    between atoms: C_2  and  C_14 
REMARK       I    between atoms: N_3  and  C_4 
REMARK       I    between atoms: C_4  and  N_6 
REMARK    3  A    between atoms: N_6  and  C_7 
ROOT
HETATM    1  N   UNL     1     -42.688 -52.658  12.186  1.00  0.00    -0.338 N 
HETATM    2  C   UNL     1     -41.912 -51.569  12.429  1.00  0.00     0.322 C 
HETATM    3  O   UNL     1     -41.800 -50.946  13.468  1.00  0.00    -0.247 OA
HETATM    4  N   UNL     1     -41.154 -51.208  11.286  1.00  0.00    -0.293 N 
HETATM    5  H   UNL     1     -42.851 -52.959  11.235  1.00  0.00     0.164 HD
HETATM    6  H   UNL     1     -40.945 -51.910  10.593  1.00  0.00     0.172 HD
ENDROOT
BRANCH   1   7
HETATM    7  C   UNL     1     -43.479 -53.286  13.252  1.00  0.00     0.086 C 
HETATM    8  C   UNL     1     -42.630 -54.407  13.864  1.00  0.00     0.032 C 
BRANCH   7   9
HETATM    9  C   UNL     1     -44.872 -53.792  12.755  1.00  0.00     0.012 C 
HETATM   10  C   UNL     1     -45.902 -52.667  12.515  1.00  0.00     0.033 C 
HETATM   11  C   UNL     1     -46.422 -52.068  13.823  1.00  0.00     0.168 C 
HETATM   12  O   UNL     1     -46.974 -53.081  14.659  1.00  0.00    -0.391 OA
HETATM   13  C   UNL     1     -46.022 -54.088  15.000  1.00  0.00     0.168 C 
HETATM   14  C   UNL     1     -45.538 -54.788  13.732  1.00  0.00     0.033 C 
ENDBRANCH   7   9
ENDBRANCH   1   7
BRANCH   4  15
HETATM   15  C   UNL     1     -40.353 -50.078  11.358  1.00  0.00     0.126 A 
HETATM   16  C   UNL     1     -39.036 -50.084  11.749  1.00  0.00     0.068 A 
HETATM   17  C   UNL     1     -38.681 -48.722  11.811  1.00  0.00     0.111 A 
HETATM   18  N   UNL     1     -39.662 -47.917  11.404  1.00  0.00    -0.308 N 
HETATM   19  N   UNL     1     -40.679 -48.760  11.126  1.00  0.00    -0.281 N 
ATOM     20  HN  UNL     1     -39.649 -46.900  11.321  1.00  0.00     0.186 HD
HETATM   21  C   UNL     1     -41.858 -48.241  10.473  1.00  0.00     0.179 C 
ENDBRANCH   4  15
TORSDOF 3
ENDMDL
MODEL 2
REMARK VINA RESULT:      -5.9      2.001      6.775
REMARK  3 active torsions:
REMARK  status: ('A' for Active; 'I' for Inactive)
REMARK    1  A    between atoms: C_2  and  N_3 
REMARK    2  A    between atoms: C_2  and  C_14 
REMARK       I    between atoms: N_3  and  C_4 
REMARK       I    between atoms: C_4  and  N_6 
REMARK    3  A    between atoms: N_6  and  C_7 
ROOT
HETATM    1  N   UNL     1     -41.664 -51.406  11.715  1.00  0.00    -0.338 N 
HETATM    2  C   UNL     1     -42.614 -51.849  12.581  1.00  0.00     0.322 C 
HETATM    3  O   UNL     1     -42.815 -51.481  13.723  1.00  0.00    -0.247 OA
HETATM    4  N   UNL     1     -43.443 -52.831  11.983  1.00  0.00    -0.293 N 
HETATM    5  H   UNL     1     -41.468 -51.928  10.872  1.00  0.00     0.164 HD
HETATM    6  H   UNL     1     -43.539 -52.849  10.979  1.00  0.00     0.172 HD
ENDROOT
BRANCH   1   7
HETATM    7  C   UNL     1     -40.758 -50.308  12.070  1.00  0.00     0.086 C 
HETATM    8  C   UNL     1     -40.954 -49.189  11.039  1.00  0.00     0.032 C 
BRANCH   7   9
HETATM    9  C   UNL     1     -39.267 -50.764  12.184  1.00  0.00     0.012 C 
HETATM   10  C   UNL     1     -38.948 -51.558  13.469  1.00  0.00     0.033 C 
HETATM   11  C   UNL     1     -38.923 -50.665  14.711  1.00  0.00     0.168 C 
HETATM   12  O   UNL     1     -38.000 -49.592  14.543  1.00  0.00    -0.391 OA
HETATM   13  C   UNL     1     -38.322 -48.763  13.429  1.00  0.00     0.168 C 
HETATM   14  C   UNL     1     -38.267 -49.585  12.143  1.00  0.00     0.033 C 
ENDBRANCH   7   9
ENDBRANCH   1   7
BRANCH   4  15
HETATM   15  C   UNL     1     -44.427 -53.424  12.760  1.00  0.00     0.126 A 
HETATM   16  C   UNL     1     -44.260 -54.594  13.460  1.00  0.00     0.068 A 
HETATM   17  C   UNL     1     -45.541 -54.884  13.971  1.00  0.00     0.111 A 
HETATM   18  N   UNL     1     -46.430 -53.929  13.698  1.00  0.00    -0.308 N 
HETATM   19  N   UNL     1     -45.734 -53.040  12.960  1.00  0.00    -0.281 N 
ATOM     20  HN  UNL     1     -47.409 -53.882  13.981  1.00  0.00     0.186 HD
HETATM   21  C   UNL     1     -46.342 -51.769  12.642  1.00  0.00     0.179 C 
ENDBRANCH   4  15
TORSDOF 3
ENDMDL
MODEL 3
REMARK VINA RESULT:      -5.7      4.175      6.536
REMARK  3 active torsions:
REMARK  status: ('A' for Active; 'I' for Inactive)
REMARK    1  A    between atoms: C_2  and  N_3 
REMARK    2  A    between atoms: C_2  and  C_14 
REMARK       I    between atoms: N_3  and  C_4 
REMARK       I    between atoms: C_4  and  N_6 
REMARK    3  A    between atoms: N_6  and  C_7 
ROOT
HETATM    1  N   UNL     1     -41.440 -48.685  10.451  1.00  0.00    -0.338 N 
HETATM    2  C   UNL     1     -42.643 -48.054  10.520  1.00  0.00     0.322 C 
HETATM    3  O   UNL     1     -43.158 -47.531  11.490  1.00  0.00    -0.247 OA
HETATM    4  N   UNL     1     -43.283 -48.020   9.256  1.00  0.00    -0.293 N 
HETATM    5  H   UNL     1     -41.215 -49.253   9.646  1.00  0.00     0.164 HD
HETATM    6  H   UNL     1     -42.724 -48.085   8.419  1.00  0.00     0.172 HD
ENDROOT
BRANCH   1   7
HETATM    7  C   UNL     1     -40.542 -48.747  11.610  1.00  0.00     0.086 C 
HETATM    8  C   UNL     1     -39.747 -47.435  11.655  1.00  0.00     0.032 C 
BRANCH   7   9
HETATM    9  C   UNL     1     -39.618 -50.007  11.595  1.00  0.00     0.012 C 
HETATM   10  C   UNL     1     -40.244 -51.255  12.255  1.00  0.00     0.033 C 
HETATM   11  C   UNL     1     -40.303 -51.136  13.779  1.00  0.00     0.168 C 
HETATM   12  O   UNL     1     -39.008 -50.881  14.318  1.00  0.00    -0.391 OA
HETATM   13  C   UNL     1     -38.436 -49.674  13.818  1.00  0.00     0.168 C 
HETATM   14  C   UNL     1     -38.263 -49.775  12.304  1.00  0.00     0.033 C 
ENDBRANCH   7   9
ENDBRANCH   1   7
BRANCH   4  15
HETATM   15  C   UNL     1     -44.549 -47.459   9.175  1.00  0.00     0.126 A 
HETATM   16  C   UNL     1     -45.719 -48.176   9.229  1.00  0.00     0.068 A 
HETATM   17  C   UNL     1     -46.726 -47.228   8.962  1.00  0.00     0.111 A 
HETATM   18  N   UNL     1     -46.246 -45.990   8.841  1.00  0.00    -0.308 N 
HETATM   19  N   UNL     1     -44.912 -46.146   8.977  1.00  0.00    -0.281 N 
ATOM     20  HN  UNL     1     -46.765 -45.127   8.682  1.00  0.00     0.186 HD
HETATM   21  C   UNL     1     -44.080 -44.970   9.086  1.00  0.00     0.179 C 
ENDBRANCH   4  15
TORSDOF 3
ENDMDL
MODEL 4
REMARK VINA RESULT:      -5.5      2.028      2.998
REMARK  3 active torsions:
REMARK  status: ('A' for Active; 'I' for Inactive)
REMARK    1  A    between atoms: C_2  and  N_3 
REMARK    2  A    between atoms: C_2  and  C_14 
REMARK       I    between atoms: N_3  and  C_4 
REMARK       I    between atoms: C_4  and  N_6 
REMARK    3  A    between atoms: N_6  and  C_7 
ROOT
HETATM    1  N   UNL     1     -41.792 -50.934  11.794  1.00  0.00    -0.338 N 
HETATM    2  C   UNL     1     -42.016 -49.596  11.885  1.00  0.00     0.322 C 
HETATM    3  O   UNL     1     -42.316 -48.953  12.873  1.00  0.00    -0.247 OA
HETATM    4  N   UNL     1     -41.821 -48.952  10.637  1.00  0.00    -0.293 N 
HETATM    5  H   UNL     1     -41.751 -51.377  10.887  1.00  0.00     0.164 HD
HETATM    6  H   UNL     1     -41.219 -49.380   9.951  1.00  0.00     0.172 HD
ENDROOT
BRANCH   1   7
HETATM    7  C   UNL     1     -41.822 -51.796  12.981  1.00  0.00     0.086 C 
HETATM    8  C   UNL     1     -40.393 -51.884  13.531  1.00  0.00     0.032 C 
BRANCH   7   9
HETATM    9  C   UNL     1     -42.442 -53.202  12.693  1.00  0.00     0.012 C 
HETATM   10  C   UNL     1     -43.957 -53.174  12.400  1.00  0.00     0.033 C 
HETATM   11  C   UNL     1     -44.786 -52.904  13.657  1.00  0.00     0.168 C 
HETATM   12  O   UNL     1     -44.491 -53.859  14.673  1.00  0.00    -0.391 OA
HETATM   13  C   UNL     1     -43.117 -53.842  15.056  1.00  0.00     0.168 C 
HETATM   14  C   UNL     1     -42.243 -54.202  13.856  1.00  0.00     0.033 C 
ENDBRANCH   7   9
ENDBRANCH   1   7
BRANCH   4  15
HETATM   15  C   UNL     1     -42.070 -47.590  10.553  1.00  0.00     0.126 A 
HETATM   16  C   UNL     1     -41.118 -46.616  10.731  1.00  0.00     0.068 A 
HETATM   17  C   UNL     1     -41.841 -45.408  10.703  1.00  0.00     0.111 A 
HETATM   18  N   UNL     1     -43.134 -45.590  10.436  1.00  0.00    -0.308 N 
HETATM   19  N   UNL     1     -43.260 -46.930  10.343  1.00  0.00    -0.281 N 
ATOM     20  HN  UNL     1     -43.860 -44.881  10.328  1.00  0.00     0.186 HD
HETATM   21  C   UNL     1     -44.508 -47.483   9.871  1.00  0.00     0.179 C 
ENDBRANCH   4  15
TORSDOF 3
ENDMDL
MODEL 5
REMARK VINA RESULT:      -5.4      3.507      6.732
REMARK  3 active torsions:
REMARK  status: ('A' for Active; 'I' for Inactive)
REMARK    1  A    between atoms: C_2  and  N_3 
REMARK    2  A    between atoms: C_2  and  C_14 
REMARK       I    between atoms: N_3  and  C_4 
REMARK       I    between atoms: C_4  and  N_6 
REMARK    3  A    between atoms: N_6  and  C_7 
ROOT
HETATM    1  N   UNL     1     -41.453 -48.549  10.333  1.00  0.00    -0.338 N 
HETATM    2  C   UNL     1     -41.380 -49.423  11.372  1.00  0.00     0.322 C 
HETATM    3  O   UNL     1     -41.932 -49.347  12.453  1.00  0.00    -0.247 OA
HETATM    4  N   UNL     1     -40.569 -50.541  11.052  1.00  0.00    -0.293 N 
HETATM    5  H   UNL     1     -40.793 -48.616   9.571  1.00  0.00     0.164 HD
HETATM    6  H   UNL     1     -40.444 -50.798  10.085  1.00  0.00     0.172 HD
ENDROOT
BRANCH   1   7
HETATM    7  C   UNL     1     -42.325 -47.369  10.386  1.00  0.00     0.086 C 
HETATM    8  C   UNL     1     -43.396 -47.531   9.299  1.00  0.00     0.032 C 
BRANCH   7   9
HETATM    9  C   UNL     1     -41.536 -46.026  10.256  1.00  0.00     0.012 C 
HETATM   10  C   UNL     1     -40.133 -46.054  10.898  1.00  0.00     0.033 C 
HETATM   11  C   UNL     1     -40.194 -46.040  12.426  1.00  0.00     0.168 C 
HETATM   12  O   UNL     1     -40.934 -44.915  12.892  1.00  0.00    -0.391 OA
HETATM   13  C   UNL     1     -42.277 -44.907  12.412  1.00  0.00     0.168 C 
HETATM   14  C   UNL     1     -42.278 -44.824  10.886  1.00  0.00     0.033 C 
ENDBRANCH   7   9
ENDBRANCH   1   7
BRANCH   4  15
HETATM   15  C   UNL     1     -40.349 -51.496  12.033  1.00  0.00     0.126 A 
HETATM   16  C   UNL     1     -41.089 -52.645  12.176  1.00  0.00     0.068 A 
HETATM   17  C   UNL     1     -40.613 -53.224  13.368  1.00  0.00     0.111 A 
HETATM   18  N   UNL     1     -39.591 -52.550  13.894  1.00  0.00    -0.308 N 
HETATM   19  N   UNL     1     -39.437 -51.496  13.064  1.00  0.00    -0.281 N 
ATOM     20  HN  UNL     1     -39.050 -52.776  14.728  1.00  0.00     0.186 HD
HETATM   21  C   UNL     1     -38.284 -50.642  13.227  1.00  0.00     0.179 C 
ENDBRANCH   4  15
TORSDOF 3
ENDMDL
MODEL 6
REMARK VINA RESULT:      -5.3      1.908      6.927
REMARK  3 active torsions:
REMARK  status: ('A' for Active; 'I' for Inactive)
REMARK    1  A    between atoms: C_2  and  N_3 
REMARK    2  A    between atoms: C_2  and  C_14 
REMARK       I    between atoms: N_3  and  C_4 
REMARK       I    between atoms: C_4  and  N_6 
REMARK    3  A    between atoms: N_6  and  C_7 
ROOT
HETATM    1  N   UNL     1     -41.833 -50.291  11.582  1.00  0.00    -0.338 N 
HETATM    2  C   UNL     1     -42.440 -51.114  12.478  1.00  0.00     0.322 C 
HETATM    3  O   UNL     1     -42.826 -50.844  13.600  1.00  0.00    -0.247 OA
HETATM    4  N   UNL     1     -42.636 -52.411  11.940  1.00  0.00    -0.293 N 
HETATM    5  H   UNL     1     -41.379 -50.680  10.768  1.00  0.00     0.164 HD
HETATM    6  H   UNL     1     -42.686 -52.527  10.940  1.00  0.00     0.172 HD
ENDROOT
BRANCH   1   7
HETATM    7  C   UNL     1     -41.626 -48.867  11.871  1.00  0.00     0.086 C 
HETATM    8  C   UNL     1     -42.800 -48.092  11.259  1.00  0.00     0.032 C 
BRANCH   7   9
HETATM    9  C   UNL     1     -40.239 -48.343  11.377  1.00  0.00     0.012 C 
HETATM   10  C   UNL     1     -39.037 -49.164  11.891  1.00  0.00     0.033 C 
HETATM   11  C   UNL     1     -38.763 -48.922  13.377  1.00  0.00     0.168 C 
HETATM   12  O   UNL     1     -38.570 -47.534  13.636  1.00  0.00    -0.391 OA
HETATM   13  C   UNL     1     -39.704 -46.748  13.278  1.00  0.00     0.168 C 
HETATM   14  C   UNL     1     -39.967 -46.875  11.779  1.00  0.00     0.033 C 
ENDBRANCH   7   9
ENDBRANCH   1   7
BRANCH   4  15
HETATM   15  C   UNL     1     -43.193 -53.385  12.756  1.00  0.00     0.126 A 
HETATM   16  C   UNL     1     -44.505 -53.786  12.699  1.00  0.00     0.068 A 
HETATM   17  C   UNL     1     -44.653 -54.666  13.788  1.00  0.00     0.111 A 
HETATM   18  N   UNL     1     -43.505 -54.882  14.432  1.00  0.00    -0.308 N 
HETATM   19  N   UNL     1     -42.619 -54.094  13.788  1.00  0.00    -0.281 N 
ATOM     20  HN  UNL     1     -43.336 -55.498  15.227  1.00  0.00     0.186 HD
HETATM   21  C   UNL     1     -41.216 -54.218  14.105  1.00  0.00     0.179 C 
ENDBRANCH   4  15
TORSDOF 3
ENDMDL
MODEL 7
REMARK VINA RESULT:      -5.2      3.604      5.583
REMARK  3 active torsions:
REMARK  status: ('A' for Active; 'I' for Inactive)
REMARK    1  A    between atoms: C_2  and  N_3 
REMARK    2  A    between atoms: C_2  and  C_14 
REMARK       I    between atoms: N_3  and  C_4 
REMARK       I    between atoms: C_4  and  N_6 
REMARK    3  A    between atoms: N_6  and  C_7 
ROOT
HETATM    1  N   UNL     1     -39.673 -48.469  11.583  1.00  0.00    -0.338 N 
HETATM    2  C   UNL     1     -40.930 -47.974  11.429  1.00  0.00     0.322 C 
HETATM    3  O   UNL     1     -41.888 -48.125  12.163  1.00  0.00    -0.247 OA
HETATM    4  N   UNL     1     -41.032 -47.172  10.264  1.00  0.00    -0.293 N 
HETATM    5  H   UNL     1     -39.024 -48.446  10.808  1.00  0.00     0.164 HD
HETATM    6  H   UNL     1     -40.203 -46.737   9.893  1.00  0.00     0.172 HD
ENDROOT
BRANCH   1   7
HETATM    7  C   UNL     1     -39.294 -49.237  12.775  1.00  0.00     0.086 C 
HETATM    8  C   UNL     1     -37.980 -48.652  13.308  1.00  0.00     0.032 C 
BRANCH   7   9
HETATM    9  C   UNL     1     -39.201 -50.773  12.503  1.00  0.00     0.012 C 
HETATM   10  C   UNL     1     -40.566 -51.457  12.277  1.00  0.00     0.033 C 
HETATM   11  C   UNL     1     -41.370 -51.587  13.572  1.00  0.00     0.168 C 
HETATM   12  O   UNL     1     -40.620 -52.282  14.566  1.00  0.00    -0.391 OA
HETATM   13  C   UNL     1     -39.397 -51.623  14.888  1.00  0.00     0.168 C 
HETATM   14  C   UNL     1     -38.509 -51.550  13.647  1.00  0.00     0.033 C 
ENDBRANCH   7   9
ENDBRANCH   1   7
BRANCH   4  15
HETATM   15  C   UNL     1     -42.272 -46.642   9.938  1.00  0.00     0.126 A 
HETATM   16  C   UNL     1     -43.215 -47.289   9.176  1.00  0.00     0.068 A 
HETATM   17  C   UNL     1     -44.230 -46.331   8.985  1.00  0.00     0.111 A 
HETATM   18  N   UNL     1     -43.997 -45.198   9.647  1.00  0.00    -0.308 N 
HETATM   19  N   UNL     1     -42.797 -45.403  10.229  1.00  0.00    -0.281 N 
ATOM     20  HN  UNL     1     -44.588 -44.368   9.701  1.00  0.00     0.186 HD
HETATM   21  C   UNL     1     -42.313 -44.440  11.190  1.00  0.00     0.179 C 
ENDBRANCH   4  15
TORSDOF 3
ENDMDL
MODEL 8
REMARK VINA RESULT:      -5.2      2.635      6.757
REMARK  3 active torsions:
REMARK  status: ('A' for Active; 'I' for Inactive)
REMARK    1  A    between atoms: C_2  and  N_3 
REMARK    2  A    between atoms: C_2  and  C_14 
REMARK       I    between atoms: N_3  and  C_4 
REMARK       I    between atoms: C_4  and  N_6 
REMARK    3  A    between atoms: N_6  and  C_7 
ROOT
HETATM    1  N   UNL     1     -41.017 -52.088  14.283  1.00  0.00    -0.338 N 
HETATM    2  C   UNL     1     -42.148 -52.153  13.531  1.00  0.00     0.322 C 
HETATM    3  O   UNL     1     -42.241 -52.151  12.318  1.00  0.00    -0.247 OA
HETATM    4  N   UNL     1     -43.304 -52.269  14.344  1.00  0.00    -0.293 N 
HETATM    5  H   UNL     1     -41.080 -51.893  15.272  1.00  0.00     0.164 HD
HETATM    6  H   UNL     1     -43.217 -52.655  15.271  1.00  0.00     0.172 HD
ENDROOT
BRANCH   1   7
HETATM    7  C   UNL     1     -39.686 -52.078  13.663  1.00  0.00     0.086 C 
HETATM    8  C   UNL     1     -38.923 -53.306  14.175  1.00  0.00     0.032 C 
BRANCH   7   9
HETATM    9  C   UNL     1     -38.911 -50.744  13.912  1.00  0.00     0.012 C 
HETATM   10  C   UNL     1     -39.562 -49.506  13.258  1.00  0.00     0.033 C 
HETATM   11  C   UNL     1     -39.388 -49.494  11.738  1.00  0.00     0.168 C 
HETATM   12  O   UNL     1     -38.009 -49.579  11.387  1.00  0.00    -0.391 OA
HETATM   13  C   UNL     1     -37.392 -50.767  11.877  1.00  0.00     0.168 C 
HETATM   14  C   UNL     1     -37.452 -50.786  13.403  1.00  0.00     0.033 C 
ENDBRANCH   7   9
ENDBRANCH   1   7
BRANCH   4  15
HETATM   15  C   UNL     1     -44.544 -52.287  13.724  1.00  0.00     0.126 A 
HETATM   16  C   UNL     1     -45.206 -51.167  13.281  1.00  0.00     0.068 A 
HETATM   17  C   UNL     1     -46.464 -51.643  12.865  1.00  0.00     0.111 A 
HETATM   18  N   UNL     1     -46.563 -52.970  12.946  1.00  0.00    -0.308 N 
HETATM   19  N   UNL     1     -45.380 -53.352  13.470  1.00  0.00    -0.281 N 
ATOM     20  HN  UNL     1     -47.351 -53.560  12.677  1.00  0.00     0.186 HD
HETATM   21  C   UNL     1     -45.062 -54.759  13.525  1.00  0.00     0.179 C 
ENDBRANCH   4  15
TORSDOF 3
ENDMDL
MODEL 9
REMARK VINA RESULT:      -5.1      2.246      7.042
REMARK  3 active torsions:
REMARK  status: ('A' for Active; 'I' for Inactive)
REMARK    1  A    between atoms: C_2  and  N_3 
REMARK    2  A    between atoms: C_2  and  C_14 
REMARK       I    between atoms: N_3  and  C_4 
REMARK       I    between atoms: C_4  and  N_6 
REMARK    3  A    between atoms: N_6  and  C_7 
ROOT
HETATM    1  N   UNL     1     -43.295 -49.409  12.197  1.00  0.00    -0.338 N 
HETATM    2  C   UNL     1     -43.833 -50.228  13.140  1.00  0.00     0.322 C 
HETATM    3  O   UNL     1     -43.470 -50.383  14.290  1.00  0.00    -0.247 OA
HETATM    4  N   UNL     1     -44.967 -50.916  12.641  1.00  0.00    -0.293 N 
HETATM    5  H   UNL     1     -43.554 -49.519  11.227  1.00  0.00     0.164 HD
HETATM    6  H   UNL     1     -45.485 -50.519  11.873  1.00  0.00     0.172 HD
ENDROOT
BRANCH   1   7
HETATM    7  C   UNL     1     -42.179 -48.508  12.513  1.00  0.00     0.086 C 
HETATM    8  C   UNL     1     -42.758 -47.101  12.710  1.00  0.00     0.032 C 
BRANCH   7   9
HETATM    9  C   UNL     1     -41.046 -48.546  11.438  1.00  0.00     0.012 C 
HETATM   10  C   UNL     1     -40.410 -49.940  11.243  1.00  0.00     0.033 C 
HETATM   11  C   UNL     1     -39.512 -50.337  12.415  1.00  0.00     0.168 C 
HETATM   12  O   UNL     1     -38.504 -49.354  12.637  1.00  0.00    -0.391 OA
HETATM   13  C   UNL     1     -39.049 -48.070  12.933  1.00  0.00     0.168 C 
HETATM   14  C   UNL     1     -39.881 -47.578  11.750  1.00  0.00     0.033 C 
ENDBRANCH   7   9
ENDBRANCH   1   7
BRANCH   4  15
HETATM   15  C   UNL     1     -45.594 -51.836  13.468  1.00  0.00     0.126 A 
HETATM   16  C   UNL     1     -46.665 -51.546  14.278  1.00  0.00     0.068 A 
HETATM   17  C   UNL     1     -46.867 -52.721  15.029  1.00  0.00     0.111 A 
HETATM   18  N   UNL     1     -46.052 -53.710  14.662  1.00  0.00    -0.308 N 
HETATM   19  N   UNL     1     -45.281 -53.156  13.704  1.00  0.00    -0.281 N 
ATOM     20  HN  UNL     1     -46.019 -54.664  15.023  1.00  0.00     0.186 HD
HETATM   21  C   UNL     1     -44.397 -54.006  12.941  1.00  0.00     0.179 C 
ENDBRANCH   4  15
TORSDOF 3
ENDMDL
