MODEL 1
REMARK VINA RESULT:      -5.8      0.000      0.000
REMARK  4 active torsions:
REMARK  status: ('A' for Active; 'I' for Inactive)
REMARK    1  A    between atoms: C_6  and  N_7 
REMARK    2  A    between atoms: N_7  and  S_8 
REMARK    3  A    between atoms: S_8  and  C_11 
REMARK    4  A    between atoms: C_11  and  C_12 
ROOT
HETATM    1  N   UNL     1     -41.127 -47.456  10.311  1.00  0.00    -0.215 NA
HETATM    2  H   UNL     1     -41.236 -48.395   9.920  1.00  0.00     0.140 HD
ENDROOT
BRANCH   1   3
HETATM    3  C   UNL     1     -40.654 -47.579  11.746  1.00  0.00     0.075 C 
HETATM    4  C   UNL     1     -39.884 -46.323  12.186  1.00  0.00     0.021 C 
HETATM    5  C   UNL     1     -39.322 -46.425  13.599  1.00  0.00     0.002 C 
HETATM    6  C   UNL     1     -38.477 -47.675  13.785  1.00  0.00     0.005 C 
HETATM    7  C   UNL     1     -39.228 -48.953  13.384  1.00  0.00    -0.013 C 
HETATM    8  C   UNL     1     -40.329 -49.277  14.407  1.00  0.00     0.010 C 
HETATM    9  C   UNL     1     -39.748 -48.832  11.919  1.00  0.00     0.004 C 
HETATM   10  C   UNL     1     -40.414 -50.140  11.474  1.00  0.00     0.012 C 
ENDBRANCH   1   3
BRANCH   1  11
HETATM   11  S   UNL     1     -42.626 -46.633  10.128  1.00  0.00     0.215 S 
HETATM   12  O   UNL     1     -43.344 -46.858  11.364  1.00  0.00    -0.211 OA
HETATM   13  O   UNL     1     -42.331 -45.298   9.654  1.00  0.00    -0.211 OA
BRANCH  11  14
HETATM   14  C   UNL     1     -43.433 -47.527   8.793  1.00  0.00     0.216 C 
BRANCH  14  15
HETATM   15  C   UNL     1     -44.904 -47.307   8.858  1.00  0.00     0.049 A 
HETATM   16  C   UNL     1     -45.941 -48.267   8.965  1.00  0.00     0.054 A 
HETATM   17  C   UNL     1     -47.094 -47.527   8.932  1.00  0.00     0.169 A 
HETATM   18  O   UNL     1     -46.783 -46.212   8.852  1.00  0.00    -0.250 OA
HETATM   19  N   UNL     1     -45.406 -46.064   8.821  1.00  0.00    -0.265 N 
ATOM     20  HN  UNL     1     -44.882 -45.190   8.778  1.00  0.00     0.194 HD
ENDBRANCH  14  15
ENDBRANCH  11  14
ENDBRANCH   1  11
TORSDOF 4
ENDMDL
MODEL 2
REMARK VINA RESULT:      -5.7      4.571      6.646
REMARK  4 active torsions:
REMARK  status: ('A' for Active; 'I' for Inactive)
REMARK    1  A    between atoms: C_6  and  N_7 
REMARK    2  A    between atoms: N_7  and  S_8 
REMARK    3  A    between atoms: S_8  and  C_11 
REMARK    4  A    between atoms: C_11  and  C_12 
ROOT
HETATM    1  N   UNL     1     -42.066 -51.701  12.214  1.00  0.00    -0.215 NA
HETATM    2  H   UNL     1     -42.090 -50.697  12.017  1.00  0.00     0.140 HD
ENDROOT
BRANCH   1   3
HETATM    3  C   UNL     1     -43.290 -52.064  13.031  1.00  0.00     0.075 C 
HETATM    4  C   UNL     1     -44.096 -53.186  12.356  1.00  0.00     0.021 C 
HETATM    5  C   UNL     1     -45.377 -53.540  13.100  1.00  0.00     0.002 C 
HETATM    6  C   UNL     1     -46.246 -52.317  13.347  1.00  0.00     0.005 C 
HETATM    7  C   UNL     1     -45.479 -51.188  14.051  1.00  0.00    -0.013 C 
HETATM    8  C   UNL     1     -45.197 -51.557  15.516  1.00  0.00     0.010 C 
HETATM    9  C   UNL     1     -44.201 -50.821  13.238  1.00  0.00     0.004 C 
HETATM   10  C   UNL     1     -43.480 -49.628  13.879  1.00  0.00     0.012 C 
ENDBRANCH   1   3
BRANCH   1  11
HETATM   11  S   UNL     1     -40.569 -52.050  12.986  1.00  0.00     0.215 S 
HETATM   12  O   UNL     1     -40.745 -51.655  14.367  1.00  0.00    -0.211 OA
HETATM   13  O   UNL     1     -40.201 -53.401  12.624  1.00  0.00    -0.211 OA
BRANCH  11  14
HETATM   14  C   UNL     1     -39.415 -50.929  12.184  1.00  0.00     0.216 C 
BRANCH  14  15
HETATM   15  C   UNL     1     -40.153 -49.759  11.632  1.00  0.00     0.049 A 
HETATM   16  C   UNL     1     -40.392 -48.498  12.233  1.00  0.00     0.054 A 
HETATM   17  C   UNL     1     -41.156 -47.825  11.317  1.00  0.00     0.169 A 
HETATM   18  O   UNL     1     -41.335 -48.601  10.223  1.00  0.00    -0.250 OA
HETATM   19  N   UNL     1     -40.693 -49.815  10.407  1.00  0.00    -0.265 N 
ATOM     20  HN  UNL     1     -40.642 -50.590   9.746  1.00  0.00     0.194 HD
ENDBRANCH  14  15
ENDBRANCH  11  14
ENDBRANCH   1  11
TORSDOF 4
ENDMDL
MODEL 3
REMARK VINA RESULT:      -5.6      4.798      6.669
REMARK  4 active torsions:
REMARK  status: ('A' for Active; 'I' for Inactive)
REMARK    1  A    between atoms: C_6  and  N_7 
REMARK    2  A    between atoms: N_7  and  S_8 
REMARK    3  A    between atoms: S_8  and  C_11 
REMARK    4  A    between atoms: C_11  and  C_12 
ROOT
HETATM    1  N   UNL     1     -43.235 -51.808  12.310  1.00  0.00    -0.215 NA
HETATM    2  H   UNL     1     -43.917 -51.436  11.645  1.00  0.00     0.140 HD
ENDROOT
BRANCH   1   3
HETATM    3  C   UNL     1     -43.963 -52.670  13.322  1.00  0.00     0.075 C 
HETATM    4  C   UNL     1     -43.303 -54.053  13.452  1.00  0.00     0.021 C 
HETATM    5  C   UNL     1     -44.040 -54.985  14.404  1.00  0.00     0.002 C 
HETATM    6  C   UNL     1     -45.511 -55.117  14.044  1.00  0.00     0.005 C 
HETATM    7  C   UNL     1     -46.210 -53.754  13.938  1.00  0.00    -0.013 C 
HETATM    8  C   UNL     1     -46.379 -53.122  15.329  1.00  0.00     0.010 C 
HETATM    9  C   UNL     1     -45.457 -52.843  12.922  1.00  0.00     0.004 C 
HETATM   10  C   UNL     1     -46.202 -51.515  12.734  1.00  0.00     0.012 C 
ENDBRANCH   1   3
BRANCH   1  11
HETATM   11  S   UNL     1     -42.386 -50.477  12.994  1.00  0.00     0.215 S 
HETATM   12  O   UNL     1     -43.320 -49.372  12.976  1.00  0.00    -0.211 OA
HETATM   13  O   UNL     1     -41.778 -50.938  14.224  1.00  0.00    -0.211 OA
BRANCH  11  14
HETATM   14  C   UNL     1     -41.070 -50.170  11.809  1.00  0.00     0.216 C 
BRANCH  14  15
HETATM   15  C   UNL     1     -41.223 -48.807  11.230  1.00  0.00     0.049 A 
HETATM   16  C   UNL     1     -40.463 -47.640  11.492  1.00  0.00     0.054 A 
HETATM   17  C   UNL     1     -41.060 -46.667  10.735  1.00  0.00     0.169 A 
HETATM   18  O   UNL     1     -42.082 -47.208  10.032  1.00  0.00    -0.250 OA
HETATM   19  N   UNL     1     -42.182 -48.559  10.326  1.00  0.00    -0.265 N 
ATOM     20  HN  UNL     1     -42.847 -49.226   9.935  1.00  0.00     0.194 HD
ENDBRANCH  14  15
ENDBRANCH  11  14
ENDBRANCH   1  11
TORSDOF 4
ENDMDL
MODEL 4
REMARK VINA RESULT:      -5.6      5.202      6.182
REMARK  4 active torsions:
REMARK  status: ('A' for Active; 'I' for Inactive)
REMARK    1  A    between atoms: C_6  and  N_7 
REMARK    2  A    between atoms: N_7  and  S_8 
REMARK    3  A    between atoms: S_8  and  C_11 
REMARK    4  A    between atoms: C_11  and  C_12 
ROOT
HETATM    1  N   UNL     1     -40.133 -52.184  11.975  1.00  0.00    -0.215 NA
HETATM    2  H   UNL     1     -39.240 -52.453  11.554  1.00  0.00     0.140 HD
ENDROOT
BRANCH   1   3
HETATM    3  C   UNL     1     -40.068 -50.717  12.353  1.00  0.00     0.075 C 
HETATM    4  C   UNL     1     -41.257 -49.939  11.765  1.00  0.00     0.021 C 
HETATM    5  C   UNL     1     -41.202 -48.445  12.054  1.00  0.00     0.002 C 
HETATM    6  C   UNL     1     -39.881 -47.831  11.619  1.00  0.00     0.005 C 
HETATM    7  C   UNL     1     -38.672 -48.565  12.216  1.00  0.00    -0.013 C 
HETATM    8  C   UNL     1     -38.558 -48.286  13.723  1.00  0.00     0.010 C 
HETATM    9  C   UNL     1     -38.737 -50.082  11.861  1.00  0.00     0.004 C 
HETATM   10  C   UNL     1     -37.483 -50.807  12.367  1.00  0.00     0.012 C 
ENDBRANCH   1   3
BRANCH   1  11
HETATM   11  S   UNL     1     -40.434 -53.243  13.296  1.00  0.00     0.215 S 
HETATM   12  O   UNL     1     -40.792 -54.512  12.701  1.00  0.00    -0.211 OA
HETATM   13  O   UNL     1     -39.320 -53.121  14.211  1.00  0.00    -0.211 OA
BRANCH  11  14
HETATM   14  C   UNL     1     -41.878 -52.521  14.087  1.00  0.00     0.216 C 
BRANCH  14  15
HETATM   15  C   UNL     1     -43.114 -53.159  13.555  1.00  0.00     0.049 A 
HETATM   16  C   UNL     1     -44.064 -53.960  14.237  1.00  0.00     0.054 A 
HETATM   17  C   UNL     1     -44.962 -54.322  13.269  1.00  0.00     0.169 A 
HETATM   18  O   UNL     1     -44.609 -53.753  12.092  1.00  0.00    -0.250 OA
HETATM   19  N   UNL     1     -43.455 -53.007  12.268  1.00  0.00    -0.265 N 
ATOM     20  HN  UNL     1     -42.966 -52.455  11.563  1.00  0.00     0.194 HD
ENDBRANCH  14  15
ENDBRANCH  11  14
ENDBRANCH   1  11
TORSDOF 4
ENDMDL
MODEL 5
REMARK VINA RESULT:      -5.6      5.103      7.523
REMARK  4 active torsions:
REMARK  status: ('A' for Active; 'I' for Inactive)
REMARK    1  A    between atoms: C_6  and  N_7 
REMARK    2  A    between atoms: N_7  and  S_8 
REMARK    3  A    between atoms: S_8  and  C_11 
REMARK    4  A    between atoms: C_11  and  C_12 
ROOT
HETATM    1  N   UNL     1     -43.212 -51.674  12.387  1.00  0.00    -0.215 NA
HETATM    2  H   UNL     1     -43.907 -51.290  11.743  1.00  0.00     0.140 HD
ENDROOT
BRANCH   1   3
HETATM    3  C   UNL     1     -43.911 -52.602  13.360  1.00  0.00     0.075 C 
HETATM    4  C   UNL     1     -43.178 -53.949  13.469  1.00  0.00     0.021 C 
HETATM    5  C   UNL     1     -43.880 -54.947  14.381  1.00  0.00     0.002 C 
HETATM    6  C   UNL     1     -45.335 -55.149  13.986  1.00  0.00     0.005 C 
HETATM    7  C   UNL     1     -46.106 -53.824  13.901  1.00  0.00    -0.013 C 
HETATM    8  C   UNL     1     -46.337 -53.240  15.304  1.00  0.00     0.010 C 
HETATM    9  C   UNL     1     -45.384 -52.846  12.924  1.00  0.00     0.004 C 
HETATM   10  C   UNL     1     -46.198 -51.556  12.755  1.00  0.00     0.012 C 
ENDBRANCH   1   3
BRANCH   1  11
HETATM   11  S   UNL     1     -42.395 -50.355  13.129  1.00  0.00     0.215 S 
HETATM   12  O   UNL     1     -43.438 -49.461  13.583  1.00  0.00    -0.211 OA
HETATM   13  O   UNL     1     -41.418 -50.908  14.041  1.00  0.00    -0.211 OA
BRANCH  11  14
HETATM   14  C   UNL     1     -41.505 -49.595  11.763  1.00  0.00     0.216 C 
BRANCH  14  15
HETATM   15  C   UNL     1     -40.049 -49.873  11.897  1.00  0.00     0.049 A 
HETATM   16  C   UNL     1     -38.979 -48.954  12.035  1.00  0.00     0.054 A 
HETATM   17  C   UNL     1     -37.857 -49.739  12.065  1.00  0.00     0.169 A 
HETATM   18  O   UNL     1     -38.217 -51.042  11.991  1.00  0.00    -0.250 OA
HETATM   19  N   UNL     1     -39.597 -51.135  11.900  1.00  0.00    -0.265 N 
ATOM     20  HN  UNL     1     -40.153 -51.988  11.848  1.00  0.00     0.194 HD
ENDBRANCH  14  15
ENDBRANCH  11  14
ENDBRANCH   1  11
TORSDOF 4
ENDMDL
MODEL 6
REMARK VINA RESULT:      -5.6      6.547      9.085
REMARK  4 active torsions:
REMARK  status: ('A' for Active; 'I' for Inactive)
REMARK    1  A    between atoms: C_6  and  N_7 
REMARK    2  A    between atoms: N_7  and  S_8 
REMARK    3  A    between atoms: S_8  and  C_11 
REMARK    4  A    between atoms: C_11  and  C_12 
ROOT
HETATM    1  N   UNL     1     -42.564 -52.073  14.196  1.00  0.00    -0.215 NA
HETATM    2  H   UNL     1     -42.202 -52.315  15.122  1.00  0.00     0.140 HD
ENDROOT
BRANCH   1   3
HETATM    3  C   UNL     1     -44.043 -52.403  14.152  1.00  0.00     0.075 C 
HETATM    4  C   UNL     1     -44.862 -51.217  13.615  1.00  0.00     0.021 C 
HETATM    5  C   UNL     1     -46.363 -51.471  13.618  1.00  0.00     0.002 C 
HETATM    6  C   UNL     1     -46.863 -51.902  14.988  1.00  0.00     0.005 C 
HETATM    7  C   UNL     1     -46.087 -53.106  15.540  1.00  0.00    -0.013 C 
HETATM    8  C   UNL     1     -46.445 -54.384  14.764  1.00  0.00     0.010 C 
HETATM    9  C   UNL     1     -44.560 -52.794  15.566  1.00  0.00     0.004 C 
HETATM   10  C   UNL     1     -43.784 -53.952  16.207  1.00  0.00     0.012 C 
ENDBRANCH   1   3
BRANCH   1  11
HETATM   11  S   UNL     1     -41.618 -52.904  13.025  1.00  0.00     0.215 S 
HETATM   12  O   UNL     1     -41.952 -54.303  13.180  1.00  0.00    -0.211 OA
HETATM   13  O   UNL     1     -41.790 -52.218  11.763  1.00  0.00    -0.211 OA
BRANCH  11  14
HETATM   14  C   UNL     1     -39.930 -52.625  13.579  1.00  0.00     0.216 C 
BRANCH  14  15
HETATM   15  C   UNL     1     -39.474 -53.778  14.402  1.00  0.00     0.049 A 
HETATM   16  C   UNL     1     -39.529 -53.941  15.809  1.00  0.00     0.054 A 
HETATM   17  C   UNL     1     -38.933 -55.154  16.035  1.00  0.00     0.169 A 
HETATM   18  O   UNL     1     -38.578 -55.708  14.852  1.00  0.00    -0.250 OA
HETATM   19  N   UNL     1     -38.930 -54.855  13.818  1.00  0.00    -0.265 N 
ATOM     20  HN  UNL     1     -38.801 -55.014  12.819  1.00  0.00     0.194 HD
ENDBRANCH  14  15
ENDBRANCH  11  14
ENDBRANCH   1  11
TORSDOF 4
ENDMDL
MODEL 7
REMARK VINA RESULT:      -5.5      7.209      9.272
REMARK  4 active torsions:
REMARK  status: ('A' for Active; 'I' for Inactive)
REMARK    1  A    between atoms: C_6  and  N_7 
REMARK    2  A    between atoms: N_7  and  S_8 
REMARK    3  A    between atoms: S_8  and  C_11 
REMARK    4  A    between atoms: C_11  and  C_12 
ROOT
HETATM    1  N   UNL     1     -45.970 -54.336  15.119  1.00  0.00    -0.215 NA
HETATM    2  H   UNL     1     -46.733 -54.074  14.490  1.00  0.00     0.140 HD
ENDROOT
BRANCH   1   3
HETATM    3  C   UNL     1     -45.817 -53.256  16.172  1.00  0.00     0.075 C 
HETATM    4  C   UNL     1     -45.969 -53.836  17.588  1.00  0.00     0.021 C 
HETATM    5  C   UNL     1     -45.896 -52.779  18.683  1.00  0.00     0.002 C 
HETATM    6  C   UNL     1     -46.885 -51.649  18.448  1.00  0.00     0.005 C 
HETATM    7  C   UNL     1     -46.738 -51.026  17.052  1.00  0.00    -0.013 C 
HETATM    8  C   UNL     1     -45.442 -50.205  16.959  1.00  0.00     0.010 C 
HETATM    9  C   UNL     1     -46.865 -52.127  15.957  1.00  0.00     0.004 C 
HETATM   10  C   UNL     1     -46.818 -51.502  14.556  1.00  0.00     0.012 C 
ENDBRANCH   1   3
BRANCH   1  11
HETATM   11  S   UNL     1     -44.564 -54.598  14.164  1.00  0.00     0.215 S 
HETATM   12  O   UNL     1     -43.897 -55.734  14.761  1.00  0.00    -0.211 OA
HETATM   13  O   UNL     1     -44.978 -54.603  12.777  1.00  0.00    -0.211 OA
BRANCH  11  14
HETATM   14  C   UNL     1     -43.588 -53.114  14.443  1.00  0.00     0.216 C 
BRANCH  14  15
HETATM   15  C   UNL     1     -42.200 -53.325  13.949  1.00  0.00     0.049 A 
HETATM   16  C   UNL     1     -40.983 -52.827  14.479  1.00  0.00     0.054 A 
HETATM   17  C   UNL     1     -40.024 -53.281  13.614  1.00  0.00     0.169 A 
HETATM   18  O   UNL     1     -40.605 -54.034  12.651  1.00  0.00    -0.250 OA
HETATM   19  N   UNL     1     -41.974 -54.080  12.864  1.00  0.00    -0.265 N 
ATOM     20  HN  UNL     1     -42.666 -54.584  12.310  1.00  0.00     0.194 HD
ENDBRANCH  14  15
ENDBRANCH  11  14
ENDBRANCH   1  11
TORSDOF 4
ENDMDL
MODEL 8
REMARK VINA RESULT:      -5.4      5.342      7.805
REMARK  4 active torsions:
REMARK  status: ('A' for Active; 'I' for Inactive)
REMARK    1  A    between atoms: C_6  and  N_7 
REMARK    2  A    between atoms: N_7  and  S_8 
REMARK    3  A    between atoms: S_8  and  C_11 
REMARK    4  A    between atoms: C_11  and  C_12 
ROOT
HETATM    1  N   UNL     1     -42.893 -52.644  12.097  1.00  0.00    -0.215 NA
HETATM    2  H   UNL     1     -43.123 -51.876  11.461  1.00  0.00     0.140 HD
ENDROOT
BRANCH   1   3
HETATM    3  C   UNL     1     -43.916 -52.672  13.216  1.00  0.00     0.075 C 
HETATM    4  C   UNL     1     -44.798 -53.928  13.131  1.00  0.00     0.021 C 
HETATM    5  C   UNL     1     -45.892 -53.969  14.191  1.00  0.00     0.002 C 
HETATM    6  C   UNL     1     -46.740 -52.707  14.180  1.00  0.00     0.005 C 
HETATM    7  C   UNL     1     -45.890 -51.433  14.296  1.00  0.00    -0.013 C 
HETATM    8  C   UNL     1     -45.309 -51.296  15.713  1.00  0.00     0.010 C 
HETATM    9  C   UNL     1     -44.813 -51.402  13.170  1.00  0.00     0.004 C 
HETATM   10  C   UNL     1     -44.024 -50.087  13.215  1.00  0.00     0.012 C 
ENDBRANCH   1   3
BRANCH   1  11
HETATM   11  S   UNL     1     -41.271 -52.423  12.626  1.00  0.00     0.215 S 
HETATM   12  O   UNL     1     -41.358 -52.191  14.051  1.00  0.00    -0.211 OA
HETATM   13  O   UNL     1     -40.486 -53.509  12.079  1.00  0.00    -0.211 OA
BRANCH  11  14
HETATM   14  C   UNL     1     -40.767 -50.908  11.800  1.00  0.00     0.216 C 
BRANCH  14  15
HETATM   15  C   UNL     1     -39.524 -50.382  12.430  1.00  0.00     0.049 A 
HETATM   16  C   UNL     1     -39.044 -49.049  12.468  1.00  0.00     0.054 A 
HETATM   17  C   UNL     1     -37.844 -49.139  13.123  1.00  0.00     0.169 A 
HETATM   18  O   UNL     1     -37.627 -50.423  13.492  1.00  0.00    -0.250 OA
HETATM   19  N   UNL     1     -38.688 -51.210  13.073  1.00  0.00    -0.265 N 
ATOM     20  HN  UNL     1     -38.808 -52.211  13.223  1.00  0.00     0.194 HD
ENDBRANCH  14  15
ENDBRANCH  11  14
ENDBRANCH   1  11
TORSDOF 4
ENDMDL
MODEL 9
REMARK VINA RESULT:      -5.3      5.110      6.874
REMARK  4 active torsions:
REMARK  status: ('A' for Active; 'I' for Inactive)
REMARK    1  A    between atoms: C_6  and  N_7 
REMARK    2  A    between atoms: N_7  and  S_8 
REMARK    3  A    between atoms: S_8  and  C_11 
REMARK    4  A    between atoms: C_11  and  C_12 
ROOT
HETATM    1  N   UNL     1     -41.611 -52.231  14.190  1.00  0.00    -0.215 NA
HETATM    2  H   UNL     1     -41.239 -52.842  14.922  1.00  0.00     0.140 HD
ENDROOT
BRANCH   1   3
HETATM    3  C   UNL     1     -43.092 -52.511  14.029  1.00  0.00     0.075 C 
HETATM    4  C   UNL     1     -43.918 -51.220  14.152  1.00  0.00     0.021 C 
HETATM    5  C   UNL     1     -45.420 -51.456  14.069  1.00  0.00     0.002 C 
HETATM    6  C   UNL     1     -45.887 -52.498  15.073  1.00  0.00     0.005 C 
HETATM    7  C   UNL     1     -45.103 -53.813  14.955  1.00  0.00    -0.013 C 
HETATM    8  C   UNL     1     -45.488 -54.560  13.668  1.00  0.00     0.010 C 
HETATM    9  C   UNL     1     -43.574 -53.540  15.090  1.00  0.00     0.004 C 
HETATM   10  C   UNL     1     -42.788 -54.858  15.073  1.00  0.00     0.012 C 
ENDBRANCH   1   3
BRANCH   1  11
HETATM   11  S   UNL     1     -40.682 -52.490  12.765  1.00  0.00     0.215 S 
HETATM   12  O   UNL     1     -39.811 -53.604  13.069  1.00  0.00    -0.211 OA
HETATM   13  O   UNL     1     -41.603 -52.528  11.650  1.00  0.00    -0.211 OA
BRANCH  11  14
HETATM   14  C   UNL     1     -39.707 -50.986  12.625  1.00  0.00     0.216 C 
BRANCH  14  15
HETATM   15  C   UNL     1     -40.506 -49.932  11.942  1.00  0.00     0.049 A 
HETATM   16  C   UNL     1     -41.352 -48.948  12.514  1.00  0.00     0.054 A 
HETATM   17  C   UNL     1     -41.872 -48.280  11.438  1.00  0.00     0.169 A 
HETATM   18  O   UNL     1     -41.352 -48.789  10.297  1.00  0.00    -0.250 OA
HETATM   19  N   UNL     1     -40.479 -49.819  10.606  1.00  0.00    -0.265 N 
ATOM     20  HN  UNL     1     -39.929 -50.377   9.953  1.00  0.00     0.194 HD
ENDBRANCH  14  15
ENDBRANCH  11  14
ENDBRANCH   1  11
TORSDOF 4
ENDMDL
