MODEL 1
REMARK VINA RESULT:      -6.4      0.000      0.000
REMARK  4 active torsions:
REMARK  status: ('A' for Active; 'I' for Inactive)
REMARK    1  A    between atoms: C_2  and  C_3 
REMARK    2  A    between atoms: C_3  and  N_4 
REMARK    3  A    between atoms: C_6  and  N_7 
REMARK       I    between atoms: N_7  and  C_8 
REMARK       I    between atoms: C_8  and  N_10 
REMARK    4  A    between atoms: N_10  and  C_11 
ROOT
HETATM    1  N   UNL     1     -41.742 -47.462   9.918  1.00  0.00    -0.306 N 
HETATM    2  C   UNL     1     -41.388 -47.799  11.203  1.00  0.00     0.321 C 
HETATM    3  O   UNL     1     -42.138 -47.777  12.175  1.00  0.00    -0.247 OA
HETATM    4  N   UNL     1     -40.053 -48.157  11.336  1.00  0.00    -0.335 N 
HETATM    5  H   UNL     1     -41.058 -47.529   9.180  1.00  0.00     0.171 HD
HETATM    6  H   UNL     1     -39.666 -48.657  10.548  1.00  0.00     0.164 HD
ENDROOT
BRANCH   1   7
HETATM    7  C   UNL     1     -42.999 -46.968   9.588  1.00  0.00     0.070 A 
HETATM    8  C   UNL     1     -44.186 -47.658   9.546  1.00  0.00     0.141 A 
HETATM    9  N   UNL     1     -45.155 -46.766   9.195  1.00  0.00    -0.301 N 
HETATM   10  N   UNL     1     -44.681 -45.519   9.009  1.00  0.00    -0.308 N 
HETATM   11  C   UNL     1     -43.369 -45.648   9.240  1.00  0.00     0.138 A 
ATOM     12  HN  UNL     1     -45.199 -44.677   8.754  1.00  0.00     0.186 HD
BRANCH   9  13
HETATM   13  C   UNL     1     -46.564 -47.068   9.042  1.00  0.00     0.148 C 
BRANCH  13  14
HETATM   14  C   UNL     1     -46.872 -48.561   8.934  1.00  0.00     0.017 C 
HETATM   15  C   UNL     1     -46.545 -49.145   7.568  1.00  0.00     0.007 C 
ENDBRANCH  13  14
ENDBRANCH   9  13
ENDBRANCH   1   7
BRANCH   4  16
HETATM   16  C   UNL     1     -39.645 -48.579  12.665  1.00  0.00     0.122 C 
HETATM   17  C   UNL     1     -38.863 -47.516  13.432  1.00  0.00     0.065 C 
HETATM   18  C   UNL     1     -38.256 -48.319  14.584  1.00  0.00     0.057 C 
HETATM   19  C   UNL     1     -36.818 -47.903  14.885  1.00  0.00     0.045 C 
HETATM   20  C   UNL     1     -39.106 -48.178  15.850  1.00  0.00     0.045 C 
HETATM   21  O   UNL     1     -38.252 -49.708  14.171  1.00  0.00    -0.369 OA
HETATM   22  C   UNL     1     -38.708 -49.787  12.797  1.00  0.00     0.075 C 
HETATM   23  C   UNL     1     -39.445 -51.109  12.593  1.00  0.00     0.048 C 
HETATM   24  C   UNL     1     -37.469 -49.756  11.893  1.00  0.00     0.048 C 
ENDBRANCH   4  16
TORSDOF 4
ENDMDL
MODEL 2
REMARK VINA RESULT:      -6.3      4.659      6.737
REMARK  4 active torsions:
REMARK  status: ('A' for Active; 'I' for Inactive)
REMARK    1  A    between atoms: C_2  and  C_3 
REMARK    2  A    between atoms: C_3  and  N_4 
REMARK    3  A    between atoms: C_6  and  N_7 
REMARK       I    between atoms: N_7  and  C_8 
REMARK       I    between atoms: C_8  and  N_10 
REMARK    4  A    between atoms: N_10  and  C_11 
ROOT
HETATM    1  N   UNL     1     -43.347 -48.798  11.902  1.00  0.00    -0.306 N 
HETATM    2  C   UNL     1     -43.185 -49.883  12.731  1.00  0.00     0.321 C 
HETATM    3  O   UNL     1     -42.160 -50.160  13.347  1.00  0.00    -0.247 OA
HETATM    4  N   UNL     1     -44.308 -50.697  12.807  1.00  0.00    -0.335 N 
HETATM    5  H   UNL     1     -44.236 -48.645  11.452  1.00  0.00     0.171 HD
HETATM    6  H   UNL     1     -45.191 -50.209  12.765  1.00  0.00     0.164 HD
ENDROOT
BRANCH   1   7
HETATM    7  C   UNL     1     -42.312 -47.921  11.599  1.00  0.00     0.070 A 
HETATM    8  C   UNL     1     -41.955 -46.781  12.277  1.00  0.00     0.141 A 
HETATM    9  N   UNL     1     -40.874 -46.255  11.633  1.00  0.00    -0.301 N 
HETATM   10  N   UNL     1     -40.485 -46.987  10.570  1.00  0.00    -0.308 N 
HETATM   11  C   UNL     1     -41.368 -47.994  10.549  1.00  0.00     0.138 A 
ATOM     12  HN  UNL     1     -39.706 -46.815   9.935  1.00  0.00     0.186 HD
BRANCH   9  13
HETATM   13  C   UNL     1     -40.166 -45.051  12.019  1.00  0.00     0.148 C 
BRANCH  13  14
HETATM   14  C   UNL     1     -40.181 -43.953  10.957  1.00  0.00     0.017 C 
HETATM   15  C   UNL     1     -40.895 -42.687  11.410  1.00  0.00     0.007 C 
ENDBRANCH  13  14
ENDBRANCH   9  13
ENDBRANCH   1   7
BRANCH   4  16
HETATM   16  C   UNL     1     -44.206 -51.825  13.718  1.00  0.00     0.122 C 
HETATM   17  C   UNL     1     -44.283 -53.182  13.024  1.00  0.00     0.065 C 
HETATM   18  C   UNL     1     -44.528 -54.138  14.192  1.00  0.00     0.057 C 
HETATM   19  C   UNL     1     -45.540 -55.228  13.847  1.00  0.00     0.045 C 
HETATM   20  C   UNL     1     -43.216 -54.782  14.650  1.00  0.00     0.045 C 
HETATM   21  O   UNL     1     -45.067 -53.344  15.279  1.00  0.00    -0.369 OA
HETATM   22  C   UNL     1     -45.276 -51.988  14.805  1.00  0.00     0.075 C 
HETATM   23  C   UNL     1     -45.066 -51.018  15.967  1.00  0.00     0.048 C 
HETATM   24  C   UNL     1     -46.727 -51.884  14.318  1.00  0.00     0.048 C 
ENDBRANCH   4  16
TORSDOF 4
ENDMDL
MODEL 3
REMARK VINA RESULT:      -6.0      2.133      3.287
REMARK  4 active torsions:
REMARK  status: ('A' for Active; 'I' for Inactive)
REMARK    1  A    between atoms: C_2  and  C_3 
REMARK    2  A    between atoms: C_3  and  N_4 
REMARK    3  A    between atoms: C_6  and  N_7 
REMARK       I    between atoms: N_7  and  C_8 
REMARK       I    between atoms: C_8  and  N_10 
REMARK    4  A    between atoms: N_10  and  C_11 
ROOT
HETATM    1  N   UNL     1     -41.296 -47.960  12.331  1.00  0.00    -0.306 N 
HETATM    2  C   UNL     1     -40.831 -49.251  12.241  1.00  0.00     0.321 C 
HETATM    3  O   UNL     1     -40.805 -49.926  11.216  1.00  0.00    -0.247 OA
HETATM    4  N   UNL     1     -40.396 -49.770  13.453  1.00  0.00    -0.335 N 
HETATM    5  H   UNL     1     -41.261 -47.479  13.216  1.00  0.00     0.171 HD
HETATM    6  H   UNL     1     -39.949 -49.103  14.066  1.00  0.00     0.164 HD
ENDROOT
BRANCH   1   7
HETATM    7  C   UNL     1     -41.880 -47.294  11.259  1.00  0.00     0.070 A 
HETATM    8  C   UNL     1     -43.162 -47.432  10.784  1.00  0.00     0.141 A 
HETATM    9  N   UNL     1     -43.297 -46.568   9.738  1.00  0.00    -0.301 N 
HETATM   10  N   UNL     1     -42.179 -45.856   9.495  1.00  0.00    -0.308 N 
HETATM   11  C   UNL     1     -41.318 -46.307  10.416  1.00  0.00     0.138 A 
ATOM     12  HN  UNL     1     -42.026 -45.144   8.781  1.00  0.00     0.186 HD
BRANCH   9  13
HETATM   13  C   UNL     1     -44.497 -46.381   8.948  1.00  0.00     0.148 C 
BRANCH  13  14
HETATM   14  C   UNL     1     -45.410 -47.604   8.904  1.00  0.00     0.017 C 
HETATM   15  C   UNL     1     -46.880 -47.266   9.111  1.00  0.00     0.007 C 
ENDBRANCH  13  14
ENDBRANCH   9  13
ENDBRANCH   1   7
BRANCH   4  16
HETATM   16  C   UNL     1     -39.839 -51.111  13.398  1.00  0.00     0.122 C 
HETATM   17  C   UNL     1     -40.390 -52.048  14.470  1.00  0.00     0.065 C 
HETATM   18  C   UNL     1     -39.402 -53.215  14.429  1.00  0.00     0.057 C 
HETATM   19  C   UNL     1     -39.064 -53.737  15.824  1.00  0.00     0.045 C 
HETATM   20  C   UNL     1     -39.951 -54.360  13.572  1.00  0.00     0.045 C 
HETATM   21  O   UNL     1     -38.185 -52.713  13.823  1.00  0.00    -0.369 OA
HETATM   22  C   UNL     1     -38.329 -51.287  13.601  1.00  0.00     0.075 C 
HETATM   23  C   UNL     1     -37.533 -50.895  12.357  1.00  0.00     0.048 C 
HETATM   24  C   UNL     1     -37.743 -50.565  14.821  1.00  0.00     0.048 C 
ENDBRANCH   4  16
TORSDOF 4
ENDMDL
MODEL 4
REMARK VINA RESULT:      -5.9      3.887      5.943
REMARK  4 active torsions:
REMARK  status: ('A' for Active; 'I' for Inactive)
REMARK    1  A    between atoms: C_2  and  C_3 
REMARK    2  A    between atoms: C_3  and  N_4 
REMARK    3  A    between atoms: C_6  and  N_7 
REMARK       I    between atoms: N_7  and  C_8 
REMARK       I    between atoms: C_8  and  N_10 
REMARK    4  A    between atoms: N_10  and  C_11 
ROOT
HETATM    1  N   UNL     1     -41.775 -49.361  10.996  1.00  0.00    -0.306 N 
HETATM    2  C   UNL     1     -42.265 -49.809  12.201  1.00  0.00     0.321 C 
HETATM    3  O   UNL     1     -42.627 -49.093  13.131  1.00  0.00    -0.247 OA
HETATM    4  N   UNL     1     -42.299 -51.193  12.306  1.00  0.00    -0.335 N 
HETATM    5  H   UNL     1     -41.520 -50.028  10.285  1.00  0.00     0.171 HD
HETATM    6  H   UNL     1     -42.518 -51.680  11.449  1.00  0.00     0.164 HD
ENDROOT
BRANCH   1   7
HETATM    7  C   UNL     1     -41.553 -48.015  10.728  1.00  0.00     0.070 A 
HETATM    8  C   UNL     1     -40.469 -47.255  11.095  1.00  0.00     0.141 A 
HETATM    9  N   UNL     1     -40.672 -46.002  10.598  1.00  0.00    -0.301 N 
HETATM   10  N   UNL     1     -41.827 -45.887   9.913  1.00  0.00    -0.308 N 
HETATM   11  C   UNL     1     -42.363 -47.111  10.003  1.00  0.00     0.138 A 
ATOM     12  HN  UNL     1     -42.202 -45.065   9.440  1.00  0.00     0.186 HD
BRANCH   9  13
HETATM   13  C   UNL     1     -39.767 -44.880  10.744  1.00  0.00     0.148 C 
BRANCH  13  14
HETATM   14  C   UNL     1     -39.397 -44.563  12.192  1.00  0.00     0.017 C 
HETATM   15  C   UNL     1     -39.910 -43.208  12.660  1.00  0.00     0.007 C 
ENDBRANCH  13  14
ENDBRANCH   9  13
ENDBRANCH   1   7
BRANCH   4  16
HETATM   16  C   UNL     1     -42.865 -51.716  13.539  1.00  0.00     0.122 C 
HETATM   17  C   UNL     1     -42.025 -52.817  14.180  1.00  0.00     0.065 C 
HETATM   18  C   UNL     1     -42.994 -53.423  15.197  1.00  0.00     0.057 C 
HETATM   19  C   UNL     1     -42.896 -54.945  15.255  1.00  0.00     0.045 C 
HETATM   20  C   UNL     1     -42.751 -52.839  16.592  1.00  0.00     0.045 C 
HETATM   21  O   UNL     1     -44.332 -53.069  14.764  1.00  0.00    -0.369 OA
HETATM   22  C   UNL     1     -44.243 -52.388  13.486  1.00  0.00     0.075 C 
HETATM   23  C   UNL     1     -45.376 -51.368  13.387  1.00  0.00     0.048 C 
HETATM   24  C   UNL     1     -44.416 -53.442  12.385  1.00  0.00     0.048 C 
ENDBRANCH   4  16
TORSDOF 4
ENDMDL
MODEL 5
REMARK VINA RESULT:      -5.3      3.687      4.921
REMARK  4 active torsions:
REMARK  status: ('A' for Active; 'I' for Inactive)
REMARK    1  A    between atoms: C_2  and  C_3 
REMARK    2  A    between atoms: C_3  and  N_4 
REMARK    3  A    between atoms: C_6  and  N_7 
REMARK       I    between atoms: N_7  and  C_8 
REMARK       I    between atoms: C_8  and  N_10 
REMARK    4  A    between atoms: N_10  and  C_11 
ROOT
HETATM    1  N   UNL     1     -41.556 -49.502  13.059  1.00  0.00    -0.306 N 
HETATM    2  C   UNL     1     -41.691 -50.855  13.270  1.00  0.00     0.321 C 
HETATM    3  O   UNL     1     -42.089 -51.667  12.440  1.00  0.00    -0.247 OA
HETATM    4  N   UNL     1     -41.353 -51.252  14.557  1.00  0.00    -0.335 N 
HETATM    5  H   UNL     1     -41.202 -48.917  13.799  1.00  0.00     0.171 HD
HETATM    6  H   UNL     1     -40.589 -50.740  14.974  1.00  0.00     0.164 HD
ENDROOT
BRANCH   1   7
HETATM    7  C   UNL     1     -41.946 -48.882  11.877  1.00  0.00     0.070 A 
HETATM    8  C   UNL     1     -43.122 -48.216  11.629  1.00  0.00     0.141 A 
HETATM    9  N   UNL     1     -43.060 -47.757  10.347  1.00  0.00    -0.301 N 
HETATM   10  N   UNL     1     -41.904 -48.072   9.730  1.00  0.00    -0.308 N 
HETATM   11  C   UNL     1     -41.234 -48.764  10.661  1.00  0.00     0.138 A 
ATOM     12  HN  UNL     1     -41.609 -47.839   8.782  1.00  0.00     0.186 HD
BRANCH   9  13
HETATM   13  C   UNL     1     -44.088 -46.990   9.675  1.00  0.00     0.148 C 
BRANCH  13  14
HETATM   14  C   UNL     1     -44.814 -47.755   8.570  1.00  0.00     0.017 C 
HETATM   15  C   UNL     1     -46.272 -48.043   8.896  1.00  0.00     0.007 C 
ENDBRANCH  13  14
ENDBRANCH   9  13
ENDBRANCH   1   7
BRANCH   4  16
HETATM   16  C   UNL     1     -41.423 -52.681  14.811  1.00  0.00     0.122 C 
HETATM   17  C   UNL     1     -42.388 -53.058  15.932  1.00  0.00     0.065 C 
HETATM   18  C   UNL     1     -41.995 -54.505  16.235  1.00  0.00     0.057 C 
HETATM   19  C   UNL     1     -42.002 -54.806  17.732  1.00  0.00     0.045 C 
HETATM   20  C   UNL     1     -42.927 -55.482  15.511  1.00  0.00     0.045 C 
HETATM   21  O   UNL     1     -40.645 -54.686  15.740  1.00  0.00    -0.369 OA
HETATM   22  C   UNL     1     -40.150 -53.409  15.262  1.00  0.00     0.075 C 
HETATM   23  C   UNL     1     -39.186 -53.652  14.101  1.00  0.00     0.048 C 
HETATM   24  C   UNL     1     -39.389 -52.744  16.417  1.00  0.00     0.048 C 
ENDBRANCH   4  16
TORSDOF 4
ENDMDL
MODEL 6
REMARK VINA RESULT:      -5.3      4.824      6.042
REMARK  4 active torsions:
REMARK  status: ('A' for Active; 'I' for Inactive)
REMARK    1  A    between atoms: C_2  and  C_3 
REMARK    2  A    between atoms: C_3  and  N_4 
REMARK    3  A    between atoms: C_6  and  N_7 
REMARK       I    between atoms: N_7  and  C_8 
REMARK       I    between atoms: C_8  and  N_10 
REMARK    4  A    between atoms: N_10  and  C_11 
ROOT
HETATM    1  N   UNL     1     -42.161 -49.811  13.219  1.00  0.00    -0.306 N 
HETATM    2  C   UNL     1     -42.933 -50.939  13.377  1.00  0.00     0.321 C 
HETATM    3  O   UNL     1     -43.602 -51.470  12.496  1.00  0.00    -0.247 OA
HETATM    4  N   UNL     1     -42.920 -51.443  14.671  1.00  0.00    -0.335 N 
HETATM    5  H   UNL     1     -41.631 -49.459  14.000  1.00  0.00     0.171 HD
HETATM    6  H   UNL     1     -42.039 -51.350  15.155  1.00  0.00     0.164 HD
ENDROOT
BRANCH   1   7
HETATM    7  C   UNL     1     -42.123 -49.085  12.033  1.00  0.00     0.070 A 
HETATM    8  C   UNL     1     -43.101 -48.268  11.520  1.00  0.00     0.141 A 
HETATM    9  N   UNL     1     -42.619 -47.751  10.354  1.00  0.00    -0.301 N 
HETATM   10  N   UNL     1     -41.372 -48.172  10.067  1.00  0.00    -0.308 N 
HETATM   11  C   UNL     1     -41.078 -48.990  11.086  1.00  0.00     0.138 A 
ATOM     12  HN  UNL     1     -40.790 -47.926   9.265  1.00  0.00     0.186 HD
BRANCH   9  13
HETATM   13  C   UNL     1     -43.322 -46.828   9.486  1.00  0.00     0.148 C 
BRANCH  13  14
HETATM   14  C   UNL     1     -44.421 -47.477   8.647  1.00  0.00     0.017 C 
HETATM   15  C   UNL     1     -45.822 -47.033   9.044  1.00  0.00     0.007 C 
ENDBRANCH  13  14
ENDBRANCH   9  13
ENDBRANCH   1   7
BRANCH   4  16
HETATM   16  C   UNL     1     -43.673 -52.669  14.874  1.00  0.00     0.122 C 
HETATM   17  C   UNL     1     -44.942 -52.479  15.700  1.00  0.00     0.065 C 
HETATM   18  C   UNL     1     -45.316 -53.916  16.069  1.00  0.00     0.057 C 
HETATM   19  C   UNL     1     -45.813 -54.034  17.508  1.00  0.00     0.045 C 
HETATM   20  C   UNL     1     -46.379 -54.463  15.112  1.00  0.00     0.045 C 
HETATM   21  O   UNL     1     -44.110 -54.710  15.937  1.00  0.00    -0.369 OA
HETATM   22  C   UNL     1     -43.003 -53.826  15.626  1.00  0.00     0.075 C 
HETATM   23  C   UNL     1     -42.000 -54.575  14.750  1.00  0.00     0.048 C 
HETATM   24  C   UNL     1     -42.327 -53.443  16.949  1.00  0.00     0.048 C 
ENDBRANCH   4  16
TORSDOF 4
ENDMDL
MODEL 7
REMARK VINA RESULT:      -5.3      4.495      5.326
REMARK  4 active torsions:
REMARK  status: ('A' for Active; 'I' for Inactive)
REMARK    1  A    between atoms: C_2  and  C_3 
REMARK    2  A    between atoms: C_3  and  N_4 
REMARK    3  A    between atoms: C_6  and  N_7 
REMARK       I    between atoms: N_7  and  C_8 
REMARK       I    between atoms: C_8  and  N_10 
REMARK    4  A    between atoms: N_10  and  C_11 
ROOT
HETATM    1  N   UNL     1     -42.468 -51.918  12.429  1.00  0.00    -0.306 N 
HETATM    2  C   UNL     1     -41.555 -51.358  13.292  1.00  0.00     0.321 C 
HETATM    3  O   UNL     1     -41.597 -51.433  14.517  1.00  0.00    -0.247 OA
HETATM    4  N   UNL     1     -40.549 -50.647  12.651  1.00  0.00    -0.335 N 
HETATM    5  H   UNL     1     -42.338 -51.817  11.435  1.00  0.00     0.171 HD
HETATM    6  H   UNL     1     -40.251 -51.033  11.767  1.00  0.00     0.164 HD
ENDROOT
BRANCH   1   7
HETATM    7  C   UNL     1     -43.612 -52.575  12.867  1.00  0.00     0.070 A 
HETATM    8  C   UNL     1     -44.682 -52.037  13.541  1.00  0.00     0.141 A 
HETATM    9  N   UNL     1     -45.576 -53.046  13.744  1.00  0.00    -0.301 N 
HETATM   10  N   UNL     1     -45.166 -54.224  13.235  1.00  0.00    -0.308 N 
HETATM   11  C   UNL     1     -43.968 -53.935  12.711  1.00  0.00     0.138 A 
ATOM     12  HN  UNL     1     -45.651 -55.121  13.246  1.00  0.00     0.186 HD
BRANCH   9  13
HETATM   13  C   UNL     1     -46.855 -52.917  14.413  1.00  0.00     0.148 C 
BRANCH  13  14
HETATM   14  C   UNL     1     -47.114 -51.530  14.998  1.00  0.00     0.017 C 
HETATM   15  C   UNL     1     -47.421 -51.554  16.489  1.00  0.00     0.007 C 
ENDBRANCH  13  14
ENDBRANCH   9  13
ENDBRANCH   1   7
BRANCH   4  16
HETATM   16  C   UNL     1     -39.527 -50.086  13.518  1.00  0.00     0.122 C 
HETATM   17  C   UNL     1     -39.828 -48.663  13.981  1.00  0.00     0.065 C 
HETATM   18  C   UNL     1     -38.479 -48.201  14.533  1.00  0.00     0.057 C 
HETATM   19  C   UNL     1     -38.168 -46.752  14.165  1.00  0.00     0.045 C 
HETATM   20  C   UNL     1     -38.430 -48.366  16.055  1.00  0.00     0.045 C 
HETATM   21  O   UNL     1     -37.468 -49.050  13.934  1.00  0.00    -0.369 OA
HETATM   22  C   UNL     1     -38.106 -49.921  12.965  1.00  0.00     0.075 C 
HETATM   23  C   UNL     1     -37.350 -51.248  12.916  1.00  0.00     0.048 C 
HETATM   24  C   UNL     1     -38.012 -49.237  11.594  1.00  0.00     0.048 C 
ENDBRANCH   4  16
TORSDOF 4
ENDMDL
MODEL 8
REMARK VINA RESULT:      -5.2      4.768      6.706
REMARK  4 active torsions:
REMARK  status: ('A' for Active; 'I' for Inactive)
REMARK    1  A    between atoms: C_2  and  C_3 
REMARK    2  A    between atoms: C_3  and  N_4 
REMARK    3  A    between atoms: C_6  and  N_7 
REMARK       I    between atoms: N_7  and  C_8 
REMARK       I    between atoms: C_8  and  N_10 
REMARK    4  A    between atoms: N_10  and  C_11 
ROOT
HETATM    1  N   UNL     1     -41.288 -49.806  13.112  1.00  0.00    -0.306 N 
HETATM    2  C   UNL     1     -42.583 -50.229  13.295  1.00  0.00     0.321 C 
HETATM    3  O   UNL     1     -43.578 -49.705  12.801  1.00  0.00    -0.247 OA
HETATM    4  N   UNL     1     -42.696 -51.326  14.139  1.00  0.00    -0.335 N 
HETATM    5  H   UNL     1     -40.533 -50.313  13.548  1.00  0.00     0.171 HD
HETATM    6  H   UNL     1     -41.941 -51.994  14.071  1.00  0.00     0.164 HD
ENDROOT
BRANCH   1   7
HETATM    7  C   UNL     1     -40.964 -48.658  12.396  1.00  0.00     0.070 A 
HETATM    8  C   UNL     1     -40.555 -47.446  12.897  1.00  0.00     0.141 A 
HETATM    9  N   UNL     1     -40.332 -46.628  11.830  1.00  0.00    -0.301 N 
HETATM   10  N   UNL     1     -40.561 -47.230  10.646  1.00  0.00    -0.308 N 
HETATM   11  C   UNL     1     -40.954 -48.461  10.996  1.00  0.00     0.138 A 
ATOM     12  HN  UNL     1     -40.459 -46.841   9.709  1.00  0.00     0.186 HD
BRANCH   9  13
HETATM   13  C   UNL     1     -39.877 -45.254  11.901  1.00  0.00     0.148 C 
BRANCH  13  14
HETATM   14  C   UNL     1     -40.786 -44.259  11.182  1.00  0.00     0.017 C 
HETATM   15  C   UNL     1     -40.509 -42.810  11.558  1.00  0.00     0.007 C 
ENDBRANCH  13  14
ENDBRANCH   9  13
ENDBRANCH   1   7
BRANCH   4  16
HETATM   16  C   UNL     1     -44.040 -51.848  14.316  1.00  0.00     0.122 C 
HETATM   17  C   UNL     1     -44.560 -51.730  15.746  1.00  0.00     0.065 C 
HETATM   18  C   UNL     1     -45.777 -52.656  15.733  1.00  0.00     0.057 C 
HETATM   19  C   UNL     1     -45.894 -53.477  17.015  1.00  0.00     0.045 C 
HETATM   20  C   UNL     1     -47.065 -51.855  15.518  1.00  0.00     0.045 C 
HETATM   21  O   UNL     1     -45.598 -53.569  14.622  1.00  0.00    -0.369 OA
HETATM   22  C   UNL     1     -44.295 -53.333  14.031  1.00  0.00     0.075 C 
HETATM   23  C   UNL     1     -44.367 -53.627  12.533  1.00  0.00     0.048 C 
HETATM   24  C   UNL     1     -43.305 -54.305  14.687  1.00  0.00     0.048 C 
ENDBRANCH   4  16
TORSDOF 4
ENDMDL
MODEL 9
REMARK VINA RESULT:      -5.2      3.994      6.411
REMARK  4 active torsions:
REMARK  status: ('A' for Active; 'I' for Inactive)
REMARK    1  A    between atoms: C_2  and  C_3 
REMARK    2  A    between atoms: C_3  and  N_4 
REMARK    3  A    between atoms: C_6  and  N_7 
REMARK       I    between atoms: N_7  and  C_8 
REMARK       I    between atoms: C_8  and  N_10 
REMARK    4  A    between atoms: N_10  and  C_11 
ROOT
HETATM    1  N   UNL     1     -40.722 -50.951  13.732  1.00  0.00    -0.306 N 
HETATM    2  C   UNL     1     -41.214 -49.826  13.113  1.00  0.00     0.321 C 
HETATM    3  O   UNL     1     -42.266 -49.765  12.483  1.00  0.00    -0.247 OA
HETATM    4  N   UNL     1     -40.386 -48.718  13.235  1.00  0.00    -0.335 N 
HETATM    5  H   UNL     1     -39.854 -50.899  14.242  1.00  0.00     0.171 HD
HETATM    6  H   UNL     1     -39.895 -48.649  14.115  1.00  0.00     0.164 HD
ENDROOT
BRANCH   1   7
HETATM    7  C   UNL     1     -41.339 -52.194  13.636  1.00  0.00     0.070 A 
HETATM    8  C   UNL     1     -42.332 -52.700  14.440  1.00  0.00     0.141 A 
HETATM    9  N   UNL     1     -42.641 -53.939  13.961  1.00  0.00    -0.301 N 
HETATM   10  N   UNL     1     -41.916 -54.282  12.879  1.00  0.00    -0.308 N 
HETATM   11  C   UNL     1     -41.120 -53.222  12.690  1.00  0.00     0.138 A 
ATOM     12  HN  UNL     1     -41.962 -55.143  12.333  1.00  0.00     0.186 HD
BRANCH   9  13
HETATM   13  C   UNL     1     -43.647 -54.827  14.507  1.00  0.00     0.148 C 
BRANCH  13  14
HETATM   14  C   UNL     1     -44.963 -54.827  13.733  1.00  0.00     0.017 C 
HETATM   15  C   UNL     1     -46.178 -54.562  14.611  1.00  0.00     0.007 C 
ENDBRANCH  13  14
ENDBRANCH   9  13
ENDBRANCH   1   7
BRANCH   4  16
HETATM   16  C   UNL     1     -40.891 -47.489  12.649  1.00  0.00     0.122 C 
HETATM   17  C   UNL     1     -40.377 -47.227  11.236  1.00  0.00     0.065 C 
HETATM   18  C   UNL     1     -40.737 -45.756  11.019  1.00  0.00     0.057 C 
HETATM   19  C   UNL     1     -39.635 -44.991  10.290  1.00  0.00     0.045 C 
HETATM   20  C   UNL     1     -42.051 -45.629  10.242  1.00  0.00     0.045 C 
HETATM   21  O   UNL     1     -40.908 -45.168  12.333  1.00  0.00    -0.369 OA
HETATM   22  C   UNL     1     -40.559 -46.158  13.335  1.00  0.00     0.075 C 
HETATM   23  C   UNL     1     -41.412 -45.925  14.581  1.00  0.00     0.048 C 
HETATM   24  C   UNL     1     -39.080 -45.956  13.692  1.00  0.00     0.048 C 
ENDBRANCH   4  16
TORSDOF 4
ENDMDL
