MODEL 1
REMARK VINA RESULT:      -6.3      0.000      0.000
REMARK  7 active torsions:
REMARK  status: ('A' for Active; 'I' for Inactive)
REMARK    1  A    between atoms: N_2  and  C_14 
REMARK    2  A    between atoms: C_6  and  N_8 
REMARK    3  A    between atoms: N_8  and  C_15 
REMARK    4  A    between atoms: N_13  and  C_24 
REMARK    5  A    between atoms: C_14  and  C_18 
REMARK    6  A    between atoms: C_15  and  C_16 
REMARK    7  A    between atoms: C_18  and  O_22 
ROOT
HETATM    1  C   UNL     1     -42.023 -50.778  13.820  1.00  0.00     0.117 A 
HETATM    2  N   UNL     1     -41.507 -48.703  13.332  1.00  0.00    -0.324 N 
HETATM    3  C   UNL     1     -40.960 -49.959  13.464  1.00  0.00     0.140 A 
HETATM    4  N   UNL     1     -43.167 -50.017  14.004  1.00  0.00    -0.346 N 
ATOM      5  HN  UNL     1     -44.093 -50.347  14.274  1.00  0.00     0.167 HD
HETATM    6  C   UNL     1     -41.770 -52.178  13.913  1.00  0.00     0.114 C 
HETATM    7  C   UNL     1     -42.803 -48.779  13.755  1.00  0.00     0.185 A 
HETATM    8  N   UNL     1     -39.684 -50.316  13.259  1.00  0.00    -0.336 N 
ATOM      9  HN  UNL     1     -38.938 -49.681  12.973  1.00  0.00     0.168 HD
HETATM   10  N   UNL     1     -40.467 -52.562  13.802  1.00  0.00    -0.341 N 
ATOM     11  HN  UNL     1     -40.202 -53.536  13.954  1.00  0.00     0.167 HD
HETATM   12  C   UNL     1     -39.530 -51.641  13.488  1.00  0.00     0.183 C 
ENDROOT
BRANCH   6  13
HETATM   13  N   UNL     1     -42.797 -53.122  14.092  1.00  0.00    -0.269 NA
HETATM   14  C   UNL     1     -42.395 -54.213  14.979  1.00  0.00     0.118 C 
BRANCH  13  15
HETATM   15  C   UNL     1     -43.539 -53.573  12.898  1.00  0.00     0.132 C 
BRANCH  15  16
HETATM   16  C   UNL     1     -45.079 -53.711  13.040  1.00  0.00     0.236 C 
HETATM   17  N   UNL     1     -45.737 -52.604  13.764  1.00  0.00     0.093 N 
HETATM   18  C   UNL     1     -46.817 -53.171  14.564  1.00  0.00     0.273 C 
HETATM   19  C   UNL     1     -46.218 -54.494  15.008  1.00  0.00     0.032 C 
HETATM   20  C   UNL     1     -45.548 -54.992  13.739  1.00  0.00     0.038 C 
BRANCH  17  21
HETATM   21  C   UNL     1     -46.083 -51.494  12.884  1.00  0.00     0.268 C 
HETATM   22  C   UNL     1     -46.956 -51.886  11.700  1.00  0.00     0.037 C 
ENDBRANCH  17  21
ENDBRANCH  15  16
ENDBRANCH  13  15
ENDBRANCH   6  13
BRANCH   2  23
HETATM   23  C   UNL     1     -40.838 -47.504  12.858  1.00  0.00     0.169 C 
BRANCH  23  24
HETATM   24  C   UNL     1     -40.520 -47.487  11.334  1.00  0.00     0.078 C 
HETATM   25  C   UNL     1     -40.067 -46.077  10.897  1.00  0.00     0.066 C 
HETATM   26  C   UNL     1     -41.228 -45.105  10.752  1.00  0.00     0.170 C 
HETATM   27  O   UNL     1     -42.193 -45.614   9.839  1.00  0.00    -0.391 OA
HETATM   28  C   UNL     1     -42.759 -46.849  10.267  1.00  0.00     0.170 C 
HETATM   29  C   UNL     1     -41.688 -47.923  10.426  1.00  0.00     0.066 C 
BRANCH  24  30
HETATM   30  O   UNL     1     -39.399 -48.346  11.056  1.00  0.00    -0.388 OA
HETATM   31  H   UNL     1     -39.528 -49.223  11.467  1.00  0.00     0.210 HD
ENDBRANCH  24  30
ENDBRANCH  23  24
ENDBRANCH   2  23
TORSDOF 7
ENDMDL
MODEL 2
REMARK VINA RESULT:      -6.1      3.035      7.091
REMARK  7 active torsions:
REMARK  status: ('A' for Active; 'I' for Inactive)
REMARK    1  A    between atoms: N_2  and  C_14 
REMARK    2  A    between atoms: C_6  and  N_8 
REMARK    3  A    between atoms: N_8  and  C_15 
REMARK    4  A    between atoms: N_13  and  C_24 
REMARK    5  A    between atoms: C_14  and  C_18 
REMARK    6  A    between atoms: C_15  and  C_16 
REMARK    7  A    between atoms: C_18  and  O_22 
ROOT
HETATM    1  C   UNL     1     -40.116 -51.560  12.518  1.00  0.00     0.117 A 
HETATM    2  N   UNL     1     -41.469 -53.200  13.059  1.00  0.00    -0.324 N 
HETATM    3  C   UNL     1     -40.481 -52.390  13.570  1.00  0.00     0.140 A 
HETATM    4  N   UNL     1     -40.793 -51.930  11.367  1.00  0.00    -0.346 N 
ATOM      5  HN  UNL     1     -40.720 -51.505  10.442  1.00  0.00     0.167 HD
HETATM    6  C   UNL     1     -39.177 -50.524  12.795  1.00  0.00     0.114 C 
HETATM    7  C   UNL     1     -41.549 -52.946  11.720  1.00  0.00     0.185 A 
HETATM    8  N   UNL     1     -40.001 -52.384  14.822  1.00  0.00    -0.336 N 
ATOM      9  HN  UNL     1     -40.317 -52.998  15.573  1.00  0.00     0.168 HD
HETATM   10  N   UNL     1     -38.602 -50.548  14.031  1.00  0.00    -0.341 N 
ATOM     11  HN  UNL     1     -37.852 -49.896  14.263  1.00  0.00     0.167 HD
HETATM   12  C   UNL     1     -39.034 -51.444  14.945  1.00  0.00     0.183 C 
ENDROOT
BRANCH   6  13
HETATM   13  N   UNL     1     -38.864 -49.518  11.864  1.00  0.00    -0.269 NA
HETATM   14  C   UNL     1     -37.510 -49.660  11.332  1.00  0.00     0.118 C 
BRANCH  13  15
HETATM   15  C   UNL     1     -39.225 -48.126  12.200  1.00  0.00     0.132 C 
BRANCH  15  16
HETATM   16  C   UNL     1     -40.258 -47.426  11.276  1.00  0.00     0.236 C 
HETATM   17  N   UNL     1     -40.883 -46.217  11.847  1.00  0.00     0.093 N 
HETATM   18  C   UNL     1     -42.276 -46.187  11.420  1.00  0.00     0.273 C 
HETATM   19  C   UNL     1     -42.644 -47.661  11.447  1.00  0.00     0.032 C 
HETATM   20  C   UNL     1     -41.423 -48.314  10.825  1.00  0.00     0.038 C 
BRANCH  17  21
HETATM   21  C   UNL     1     -40.093 -45.015  11.601  1.00  0.00     0.268 C 
HETATM   22  C   UNL     1     -39.597 -44.879  10.168  1.00  0.00     0.037 C 
ENDBRANCH  17  21
ENDBRANCH  15  16
ENDBRANCH  13  15
ENDBRANCH   6  13
BRANCH   2  23
HETATM   23  C   UNL     1     -42.270 -54.168  13.788  1.00  0.00     0.169 C 
BRANCH  23  24
HETATM   24  C   UNL     1     -43.468 -53.568  14.581  1.00  0.00     0.078 C 
HETATM   25  C   UNL     1     -44.497 -54.670  14.914  1.00  0.00     0.066 C 
HETATM   26  C   UNL     1     -45.363 -55.044  13.721  1.00  0.00     0.170 C 
HETATM   27  O   UNL     1     -46.026 -53.895  13.207  1.00  0.00    -0.391 OA
HETATM   28  C   UNL     1     -45.121 -52.897  12.744  1.00  0.00     0.170 C 
HETATM   29  C   UNL     1     -44.204 -52.418  13.866  1.00  0.00     0.066 C 
BRANCH  24  30
HETATM   30  O   UNL     1     -43.016 -53.077  15.857  1.00  0.00    -0.388 OA
HETATM   31  H   UNL     1     -43.622 -52.390  16.195  1.00  0.00     0.210 HD
ENDBRANCH  24  30
ENDBRANCH  23  24
ENDBRANCH   2  23
TORSDOF 7
ENDMDL
MODEL 3
REMARK VINA RESULT:      -6.1      1.627      2.621
REMARK  7 active torsions:
REMARK  status: ('A' for Active; 'I' for Inactive)
REMARK    1  A    between atoms: N_2  and  C_14 
REMARK    2  A    between atoms: C_6  and  N_8 
REMARK    3  A    between atoms: N_8  and  C_15 
REMARK    4  A    between atoms: N_13  and  C_24 
REMARK    5  A    between atoms: C_14  and  C_18 
REMARK    6  A    between atoms: C_15  and  C_16 
REMARK    7  A    between atoms: C_18  and  O_22 
ROOT
HETATM    1  C   UNL     1     -40.593 -49.248  13.019  1.00  0.00     0.117 A 
HETATM    2  N   UNL     1     -40.244 -47.093  12.800  1.00  0.00    -0.324 N 
HETATM    3  C   UNL     1     -39.759 -48.320  12.410  1.00  0.00     0.140 A 
HETATM    4  N   UNL     1     -41.498 -48.599  13.845  1.00  0.00    -0.346 N 
ATOM      5  HN  UNL     1     -42.224 -49.025  14.421  1.00  0.00     0.167 HD
HETATM    6  C   UNL     1     -40.396 -50.621  12.693  1.00  0.00     0.114 C 
HETATM    7  C   UNL     1     -41.221 -47.320  13.727  1.00  0.00     0.185 A 
HETATM    8  N   UNL     1     -38.725 -48.562  11.591  1.00  0.00    -0.336 N 
ATOM      9  HN  UNL     1     -38.152 -47.846  11.144  1.00  0.00     0.168 HD
HETATM   10  N   UNL     1     -39.297 -50.909  11.938  1.00  0.00    -0.341 N 
ATOM     11  HN  UNL     1     -39.041 -51.878  11.749  1.00  0.00     0.167 HD
HETATM   12  C   UNL     1     -38.551 -49.897  11.443  1.00  0.00     0.183 C 
ENDROOT
BRANCH   6  13
HETATM   13  N   UNL     1     -41.282 -51.632  13.106  1.00  0.00    -0.269 NA
HETATM   14  C   UNL     1     -40.650 -52.950  13.120  1.00  0.00     0.118 C 
BRANCH  13  15
HETATM   15  C   UNL     1     -42.644 -51.634  12.534  1.00  0.00     0.132 C 
BRANCH  15  16
HETATM   16  C   UNL     1     -43.796 -52.094  13.468  1.00  0.00     0.236 C 
HETATM   17  N   UNL     1     -44.674 -53.138  12.902  1.00  0.00     0.093 N 
HETATM   18  C   UNL     1     -46.037 -52.864  13.342  1.00  0.00     0.273 C 
HETATM   19  C   UNL     1     -46.076 -51.345  13.316  1.00  0.00     0.032 C 
HETATM   20  C   UNL     1     -44.737 -50.975  13.927  1.00  0.00     0.038 C 
BRANCH  17  21
HETATM   21  C   UNL     1     -44.163 -54.483  13.143  1.00  0.00     0.268 C 
HETATM   22  C   UNL     1     -43.706 -54.729  14.574  1.00  0.00     0.037 C 
ENDBRANCH  17  21
ENDBRANCH  15  16
ENDBRANCH  13  15
ENDBRANCH   6  13
BRANCH   2  23
HETATM   23  C   UNL     1     -39.795 -45.789  12.343  1.00  0.00     0.169 C 
BRANCH  23  24
HETATM   24  C   UNL     1     -40.184 -45.437  10.876  1.00  0.00     0.078 C 
HETATM   25  C   UNL     1     -40.104 -43.912  10.652  1.00  0.00     0.066 C 
HETATM   26  C   UNL     1     -41.296 -43.169  11.237  1.00  0.00     0.170 C 
HETATM   27  O   UNL     1     -42.512 -43.679  10.701  1.00  0.00    -0.391 OA
HETATM   28  C   UNL     1     -42.713 -45.056  11.006  1.00  0.00     0.170 C 
HETATM   29  C   UNL     1     -41.584 -45.917  10.447  1.00  0.00     0.066 C 
BRANCH  24  30
HETATM   30  O   UNL     1     -39.224 -46.003   9.965  1.00  0.00    -0.388 OA
HETATM   31  H   UNL     1     -39.041 -46.935  10.193  1.00  0.00     0.210 HD
ENDBRANCH  24  30
ENDBRANCH  23  24
ENDBRANCH   2  23
TORSDOF 7
ENDMDL
MODEL 4
REMARK VINA RESULT:      -6.0      2.941      7.570
REMARK  7 active torsions:
REMARK  status: ('A' for Active; 'I' for Inactive)
REMARK    1  A    between atoms: N_2  and  C_14 
REMARK    2  A    between atoms: C_6  and  N_8 
REMARK    3  A    between atoms: N_8  and  C_15 
REMARK    4  A    between atoms: N_13  and  C_24 
REMARK    5  A    between atoms: C_14  and  C_18 
REMARK    6  A    between atoms: C_15  and  C_16 
REMARK    7  A    between atoms: C_18  and  O_22 
ROOT
HETATM    1  C   UNL     1     -42.379 -49.385  12.000  1.00  0.00     0.117 A 
HETATM    2  N   UNL     1     -42.522 -51.100  13.360  1.00  0.00    -0.324 N 
HETATM    3  C   UNL     1     -41.661 -50.466  12.494  1.00  0.00     0.140 A 
HETATM    4  N   UNL     1     -43.681 -49.425  12.475  1.00  0.00    -0.346 N 
ATOM      5  HN  UNL     1     -44.433 -48.767  12.274  1.00  0.00     0.167 HD
HETATM    6  C   UNL     1     -41.687 -48.468  11.156  1.00  0.00     0.114 C 
HETATM    7  C   UNL     1     -43.739 -50.493  13.238  1.00  0.00     0.185 A 
HETATM    8  N   UNL     1     -40.393 -50.801  12.217  1.00  0.00    -0.336 N 
ATOM      9  HN  UNL     1     -39.895 -51.593  12.624  1.00  0.00     0.168 HD
HETATM   10  N   UNL     1     -40.427 -48.829  10.781  1.00  0.00    -0.341 N 
ATOM     11  HN  UNL     1     -39.911 -48.269  10.102  1.00  0.00     0.167 HD
HETATM   12  C   UNL     1     -39.868 -49.936  11.318  1.00  0.00     0.183 C 
ENDROOT
BRANCH   6  13
HETATM   13  N   UNL     1     -42.252 -47.250  10.738  1.00  0.00    -0.269 NA
HETATM   14  C   UNL     1     -42.897 -47.359   9.431  1.00  0.00     0.118 C 
BRANCH  13  15
HETATM   15  C   UNL     1     -41.448 -46.022  10.901  1.00  0.00     0.132 C 
BRANCH  15  16
HETATM   16  C   UNL     1     -41.020 -45.650  12.346  1.00  0.00     0.236 C 
HETATM   17  N   UNL     1     -41.395 -44.286  12.772  1.00  0.00     0.093 N 
HETATM   18  C   UNL     1     -40.316 -43.763  13.601  1.00  0.00     0.273 C 
HETATM   19  C   UNL     1     -39.087 -44.339  12.918  1.00  0.00     0.032 C 
HETATM   20  C   UNL     1     -39.517 -45.764  12.622  1.00  0.00     0.038 C 
BRANCH  17  21
HETATM   21  C   UNL     1     -42.741 -44.230  13.332  1.00  0.00     0.268 C 
HETATM   22  C   UNL     1     -43.134 -45.463  14.135  1.00  0.00     0.037 C 
ENDBRANCH  17  21
ENDBRANCH  15  16
ENDBRANCH  13  15
ENDBRANCH   6  13
BRANCH   2  23
HETATM   23  C   UNL     1     -42.218 -52.225  14.228  1.00  0.00     0.169 C 
BRANCH  23  24
HETATM   24  C   UNL     1     -42.260 -53.620  13.537  1.00  0.00     0.078 C 
HETATM   25  C   UNL     1     -43.659 -53.878  12.936  1.00  0.00     0.066 C 
HETATM   26  C   UNL     1     -44.686 -54.271  13.987  1.00  0.00     0.170 C 
HETATM   27  O   UNL     1     -44.247 -55.415  14.710  1.00  0.00    -0.391 OA
HETATM   28  C   UNL     1     -43.028 -55.188  15.411  1.00  0.00     0.170 C 
HETATM   29  C   UNL     1     -41.902 -54.806  14.455  1.00  0.00     0.066 C 
BRANCH  24  30
HETATM   30  O   UNL     1     -41.358 -53.641  12.416  1.00  0.00    -0.388 OA
HETATM   31  H   UNL     1     -40.433 -53.556  12.718  1.00  0.00     0.210 HD
ENDBRANCH  24  30
ENDBRANCH  23  24
ENDBRANCH   2  23
TORSDOF 7
ENDMDL
MODEL 5
REMARK VINA RESULT:      -6.0      3.263      6.726
REMARK  7 active torsions:
REMARK  status: ('A' for Active; 'I' for Inactive)
REMARK    1  A    between atoms: N_2  and  C_14 
REMARK    2  A    between atoms: C_6  and  N_8 
REMARK    3  A    between atoms: N_8  and  C_15 
REMARK    4  A    between atoms: N_13  and  C_24 
REMARK    5  A    between atoms: C_14  and  C_18 
REMARK    6  A    between atoms: C_15  and  C_16 
REMARK    7  A    between atoms: C_18  and  O_22 
ROOT
HETATM    1  C   UNL     1     -39.392 -48.560  12.582  1.00  0.00     0.117 A 
HETATM    2  N   UNL     1     -39.378 -50.733  12.886  1.00  0.00    -0.324 N 
HETATM    3  C   UNL     1     -39.648 -49.545  13.527  1.00  0.00     0.140 A 
HETATM    4  N   UNL     1     -38.876 -49.132  11.430  1.00  0.00    -0.346 N 
ATOM      5  HN  UNL     1     -38.590 -48.653  10.576  1.00  0.00     0.167 HD
HETATM    6  C   UNL     1     -39.701 -47.215  12.937  1.00  0.00     0.114 C 
HETATM    7  C   UNL     1     -38.834 -50.423  11.672  1.00  0.00     0.185 A 
HETATM    8  N   UNL     1     -40.095 -49.381  14.780  1.00  0.00    -0.336 N 
ATOM      9  HN  UNL     1     -40.295 -50.139  15.434  1.00  0.00     0.168 HD
HETATM   10  N   UNL     1     -40.069 -47.003  14.233  1.00  0.00    -0.341 N 
ATOM     11  HN  UNL     1     -40.211 -46.055  14.580  1.00  0.00     0.167 HD
HETATM   12  C   UNL     1     -40.243 -48.063  15.052  1.00  0.00     0.183 C 
ENDROOT
BRANCH   6  13
HETATM   13  N   UNL     1     -39.651 -46.157  12.011  1.00  0.00    -0.269 NA
HETATM   14  C   UNL     1     -39.759 -44.851  12.658  1.00  0.00     0.118 C 
BRANCH  13  15
HETATM   15  C   UNL     1     -40.457 -46.277  10.779  1.00  0.00     0.132 C 
BRANCH  15  16
HETATM   16  C   UNL     1     -41.998 -46.350  10.954  1.00  0.00     0.236 C 
HETATM   17  N   UNL     1     -42.630 -47.560  10.390  1.00  0.00     0.093 N 
HETATM   18  C   UNL     1     -43.916 -47.173   9.823  1.00  0.00     0.273 C 
HETATM   19  C   UNL     1     -43.606 -45.799   9.253  1.00  0.00     0.032 C 
HETATM   20  C   UNL     1     -42.770 -45.170  10.353  1.00  0.00     0.038 C 
BRANCH  17  21
HETATM   21  C   UNL     1     -42.635 -48.673  11.334  1.00  0.00     0.268 C 
HETATM   22  C   UNL     1     -43.164 -48.316  12.716  1.00  0.00     0.037 C 
ENDBRANCH  17  21
ENDBRANCH  15  16
ENDBRANCH  13  15
ENDBRANCH   6  13
BRANCH   2  23
HETATM   23  C   UNL     1     -39.600 -52.073  13.399  1.00  0.00     0.169 C 
BRANCH  23  24
HETATM   24  C   UNL     1     -40.784 -52.843  12.742  1.00  0.00     0.078 C 
HETATM   25  C   UNL     1     -42.038 -51.944  12.679  1.00  0.00     0.066 C 
HETATM   26  C   UNL     1     -42.745 -51.829  14.021  1.00  0.00     0.170 C 
HETATM   27  O   UNL     1     -43.092 -53.118  14.514  1.00  0.00    -0.391 OA
HETATM   28  C   UNL     1     -41.954 -53.947  14.734  1.00  0.00     0.170 C 
HETATM   29  C   UNL     1     -41.167 -54.160  13.445  1.00  0.00     0.066 C 
BRANCH  24  30
HETATM   30  O   UNL     1     -40.470 -53.148  11.371  1.00  0.00    -0.388 OA
HETATM   31  H   UNL     1     -40.422 -54.115  11.236  1.00  0.00     0.210 HD
ENDBRANCH  24  30
ENDBRANCH  23  24
ENDBRANCH   2  23
TORSDOF 7
ENDMDL
MODEL 6
REMARK VINA RESULT:      -5.9      1.620      1.926
REMARK  7 active torsions:
REMARK  status: ('A' for Active; 'I' for Inactive)
REMARK    1  A    between atoms: N_2  and  C_14 
REMARK    2  A    between atoms: C_6  and  N_8 
REMARK    3  A    between atoms: N_8  and  C_15 
REMARK    4  A    between atoms: N_13  and  C_24 
REMARK    5  A    between atoms: C_14  and  C_18 
REMARK    6  A    between atoms: C_15  and  C_16 
REMARK    7  A    between atoms: C_18  and  O_22 
ROOT
HETATM    1  C   UNL     1     -40.900 -51.306  13.801  1.00  0.00     0.117 A 
HETATM    2  N   UNL     1     -40.330 -49.448  12.785  1.00  0.00    -0.324 N 
HETATM    3  C   UNL     1     -40.675 -50.758  12.545  1.00  0.00     0.140 A 
HETATM    4  N   UNL     1     -40.596 -50.378  14.784  1.00  0.00    -0.346 N 
ATOM      5  HN  UNL     1     -40.658 -50.504  15.794  1.00  0.00     0.167 HD
HETATM    6  C   UNL     1     -41.392 -52.643  13.855  1.00  0.00     0.114 C 
HETATM    7  C   UNL     1     -40.209 -49.301  14.137  1.00  0.00     0.185 A 
HETATM    8  N   UNL     1     -40.798 -51.362  11.355  1.00  0.00    -0.336 N 
ATOM      9  HN  UNL     1     -40.646 -50.911  10.452  1.00  0.00     0.168 HD
HETATM   10  N   UNL     1     -41.440 -53.314  12.669  1.00  0.00    -0.341 N 
ATOM     11  HN  UNL     1     -41.690 -54.303  12.646  1.00  0.00     0.167 HD
HETATM   12  C   UNL     1     -41.154 -52.657  11.524  1.00  0.00     0.183 C 
ENDROOT
BRANCH   6  13
HETATM   13  N   UNL     1     -41.822 -53.244  15.051  1.00  0.00    -0.269 NA
HETATM   14  C   UNL     1     -40.704 -53.733  15.857  1.00  0.00     0.118 C 
BRANCH  13  15
HETATM   15  C   UNL     1     -42.959 -54.183  14.985  1.00  0.00     0.132 C 
BRANCH  15  16
HETATM   16  C   UNL     1     -44.254 -53.670  14.298  1.00  0.00     0.236 C 
HETATM   17  N   UNL     1     -45.158 -52.899  15.175  1.00  0.00     0.093 N 
HETATM   18  C   UNL     1     -46.530 -53.233  14.809  1.00  0.00     0.273 C 
HETATM   19  C   UNL     1     -46.414 -54.711  14.474  1.00  0.00     0.032 C 
HETATM   20  C   UNL     1     -45.126 -54.764  13.672  1.00  0.00     0.038 C 
BRANCH  17  21
HETATM   21  C   UNL     1     -44.815 -51.482  15.217  1.00  0.00     0.268 C 
HETATM   22  C   UNL     1     -44.587 -50.855  13.848  1.00  0.00     0.037 C 
ENDBRANCH  17  21
ENDBRANCH  15  16
ENDBRANCH  13  15
ENDBRANCH   6  13
BRANCH   2  23
HETATM   23  C   UNL     1     -40.108 -48.407  11.796  1.00  0.00     0.169 C 
BRANCH  23  24
HETATM   24  C   UNL     1     -41.385 -47.935  11.040  1.00  0.00     0.078 C 
HETATM   25  C   UNL     1     -41.233 -46.463  10.599  1.00  0.00     0.066 C 
HETATM   26  C   UNL     1     -41.444 -45.483  11.743  1.00  0.00     0.170 C 
HETATM   27  O   UNL     1     -42.718 -45.684  12.343  1.00  0.00    -0.391 OA
HETATM   28  C   UNL     1     -42.863 -46.986  12.903  1.00  0.00     0.170 C 
HETATM   29  C   UNL     1     -42.696 -48.068  11.841  1.00  0.00     0.066 C 
BRANCH  24  30
HETATM   30  O   UNL     1     -41.537 -48.681   9.818  1.00  0.00    -0.388 OA
HETATM   31  H   UNL     1     -40.665 -48.948   9.468  1.00  0.00     0.210 HD
ENDBRANCH  24  30
ENDBRANCH  23  24
ENDBRANCH   2  23
TORSDOF 7
ENDMDL
MODEL 7
REMARK VINA RESULT:      -5.9      2.783      6.984
REMARK  7 active torsions:
REMARK  status: ('A' for Active; 'I' for Inactive)
REMARK    1  A    between atoms: N_2  and  C_14 
REMARK    2  A    between atoms: C_6  and  N_8 
REMARK    3  A    between atoms: N_8  and  C_15 
REMARK    4  A    between atoms: N_13  and  C_24 
REMARK    5  A    between atoms: C_14  and  C_18 
REMARK    6  A    between atoms: C_15  and  C_16 
REMARK    7  A    between atoms: C_18  and  O_22 
ROOT
HETATM    1  C   UNL     1     -41.599 -49.312  13.987  1.00  0.00     0.117 A 
HETATM    2  N   UNL     1     -43.252 -50.743  13.810  1.00  0.00    -0.324 N 
HETATM    3  C   UNL     1     -42.383 -49.986  13.059  1.00  0.00     0.140 A 
HETATM    4  N   UNL     1     -42.054 -49.575  15.270  1.00  0.00    -0.346 N 
ATOM      5  HN  UNL     1     -41.677 -49.212  16.146  1.00  0.00     0.167 HD
HETATM    6  C   UNL     1     -40.518 -48.529  13.487  1.00  0.00     0.114 C 
HETATM    7  C   UNL     1     -43.074 -50.389  15.116  1.00  0.00     0.185 A 
HETATM    8  N   UNL     1     -42.292 -49.937  11.722  1.00  0.00    -0.336 N 
ATOM      9  HN  UNL     1     -42.875 -50.471  11.077  1.00  0.00     0.168 HD
HETATM   10  N   UNL     1     -40.455 -48.385  12.133  1.00  0.00    -0.341 N 
ATOM     11  HN  UNL     1     -39.766 -47.761  11.713  1.00  0.00     0.167 HD
HETATM   12  C   UNL     1     -41.314 -49.077  11.353  1.00  0.00     0.183 C 
ENDROOT
BRANCH   6  13
HETATM   13  N   UNL     1     -39.554 -47.946  14.329  1.00  0.00    -0.269 NA
HETATM   14  C   UNL     1     -39.781 -46.515  14.521  1.00  0.00     0.118 C 
BRANCH  13  15
HETATM   15  C   UNL     1     -38.137 -48.296  14.105  1.00  0.00     0.132 C 
BRANCH  15  16
HETATM   16  C   UNL     1     -37.709 -49.748  14.451  1.00  0.00     0.236 C 
HETATM   17  N   UNL     1     -38.146 -50.771  13.480  1.00  0.00     0.093 N 
HETATM   18  C   UNL     1     -38.497 -51.975  14.224  1.00  0.00     0.273 C 
HETATM   19  C   UNL     1     -39.128 -51.395  15.479  1.00  0.00     0.032 C 
HETATM   20  C   UNL     1     -38.188 -50.251  15.817  1.00  0.00     0.038 C 
BRANCH  17  21
HETATM   21  C   UNL     1     -37.201 -50.931  12.379  1.00  0.00     0.268 C 
HETATM   22  C   UNL     1     -37.452 -49.997  11.203  1.00  0.00     0.037 C 
ENDBRANCH  17  21
ENDBRANCH  15  16
ENDBRANCH  13  15
ENDBRANCH   6  13
BRANCH   2  23
HETATM   23  C   UNL     1     -44.206 -51.723  13.319  1.00  0.00     0.169 C 
BRANCH  23  24
HETATM   24  C   UNL     1     -43.583 -53.069  12.847  1.00  0.00     0.078 C 
HETATM   25  C   UNL     1     -44.689 -54.123  12.626  1.00  0.00     0.066 C 
HETATM   26  C   UNL     1     -45.203 -54.719  13.928  1.00  0.00     0.170 C 
HETATM   27  O   UNL     1     -44.131 -55.284  14.674  1.00  0.00    -0.391 OA
HETATM   28  C   UNL     1     -43.146 -54.322  15.037  1.00  0.00     0.170 C 
HETATM   29  C   UNL     1     -42.532 -53.665  13.805  1.00  0.00     0.066 C 
BRANCH  24  30
HETATM   30  O   UNL     1     -42.962 -52.899  11.560  1.00  0.00    -0.388 OA
HETATM   31  H   UNL     1     -42.174 -52.325  11.632  1.00  0.00     0.210 HD
ENDBRANCH  24  30
ENDBRANCH  23  24
ENDBRANCH   2  23
TORSDOF 7
ENDMDL
MODEL 8
REMARK VINA RESULT:      -5.8      3.638      6.075
REMARK  7 active torsions:
REMARK  status: ('A' for Active; 'I' for Inactive)
REMARK    1  A    between atoms: N_2  and  C_14 
REMARK    2  A    between atoms: C_6  and  N_8 
REMARK    3  A    between atoms: N_8  and  C_15 
REMARK    4  A    between atoms: N_13  and  C_24 
REMARK    5  A    between atoms: C_14  and  C_18 
REMARK    6  A    between atoms: C_15  and  C_16 
REMARK    7  A    between atoms: C_18  and  O_22 
ROOT
HETATM    1  C   UNL     1     -40.250 -48.596  11.409  1.00  0.00     0.117 A 
HETATM    2  N   UNL     1     -42.112 -47.530  10.947  1.00  0.00    -0.324 N 
HETATM    3  C   UNL     1     -41.625 -48.765  11.313  1.00  0.00     0.140 A 
HETATM    4  N   UNL     1     -39.902 -47.315  11.007  1.00  0.00    -0.346 N 
ATOM      5  HN  UNL     1     -38.966 -46.913  10.967  1.00  0.00     0.167 HD
HETATM    6  C   UNL     1     -39.486 -49.697  11.891  1.00  0.00     0.114 C 
HETATM    7  C   UNL     1     -41.036 -46.731  10.689  1.00  0.00     0.185 A 
HETATM    8  N   UNL     1     -42.332 -49.878  11.555  1.00  0.00    -0.336 N 
ATOM      9  HN  UNL     1     -43.348 -49.951  11.496  1.00  0.00     0.168 HD
HETATM   10  N   UNL     1     -40.160 -50.870  12.059  1.00  0.00    -0.341 N 
ATOM     11  HN  UNL     1     -39.658 -51.723  12.308  1.00  0.00     0.167 HD
HETATM   12  C   UNL     1     -41.501 -50.893  11.891  1.00  0.00     0.183 C 
ENDROOT
BRANCH   6  13
HETATM   13  N   UNL     1     -38.117 -49.593  12.197  1.00  0.00    -0.269 NA
HETATM   14  C   UNL     1     -37.268 -49.987  11.074  1.00  0.00     0.118 C 
BRANCH  13  15
HETATM   15  C   UNL     1     -37.657 -50.115  13.499  1.00  0.00     0.132 C 
BRANCH  15  16
HETATM   16  C   UNL     1     -37.762 -49.157  14.716  1.00  0.00     0.236 C 
HETATM   17  N   UNL     1     -39.088 -49.121  15.366  1.00  0.00     0.093 N 
HETATM   18  C   UNL     1     -39.344 -47.749  15.787  1.00  0.00     0.273 C 
HETATM   19  C   UNL     1     -38.717 -46.951  14.657  1.00  0.00     0.032 C 
HETATM   20  C   UNL     1     -37.415 -47.695  14.415  1.00  0.00     0.038 C 
BRANCH  17  21
HETATM   21  C   UNL     1     -39.238 -50.160  16.379  1.00  0.00     0.268 C 
HETATM   22  C   UNL     1     -40.683 -50.525  16.688  1.00  0.00     0.037 C 
ENDBRANCH  17  21
ENDBRANCH  15  16
ENDBRANCH  13  15
ENDBRANCH   6  13
BRANCH   2  23
HETATM   23  C   UNL     1     -43.506 -47.141  10.828  1.00  0.00     0.169 C 
BRANCH  23  24
HETATM   24  C   UNL     1     -43.876 -46.416   9.500  1.00  0.00     0.078 C 
HETATM   25  C   UNL     1     -45.372 -46.616   9.179  1.00  0.00     0.066 C 
HETATM   26  C   UNL     1     -45.672 -47.994   8.610  1.00  0.00     0.170 C 
HETATM   27  O   UNL     1     -44.887 -48.235   7.448  1.00  0.00    -0.391 OA
HETATM   28  C   UNL     1     -43.488 -48.210   7.715  1.00  0.00     0.170 C 
HETATM   29  C   UNL     1     -43.054 -46.859   8.273  1.00  0.00     0.066 C 
BRANCH  24  30
HETATM   30  O   UNL     1     -43.709 -44.994   9.654  1.00  0.00    -0.388 OA
HETATM   31  H   UNL     1     -43.621 -44.562   8.783  1.00  0.00     0.210 HD
ENDBRANCH  24  30
ENDBRANCH  23  24
ENDBRANCH   2  23
TORSDOF 7
ENDMDL
MODEL 9
REMARK VINA RESULT:      -5.8      1.912      2.484
REMARK  7 active torsions:
REMARK  status: ('A' for Active; 'I' for Inactive)
REMARK    1  A    between atoms: N_2  and  C_14 
REMARK    2  A    between atoms: C_6  and  N_8 
REMARK    3  A    between atoms: N_8  and  C_15 
REMARK    4  A    between atoms: N_13  and  C_24 
REMARK    5  A    between atoms: C_14  and  C_18 
REMARK    6  A    between atoms: C_15  and  C_16 
REMARK    7  A    between atoms: C_18  and  O_22 
ROOT
HETATM    1  C   UNL     1     -42.034 -49.298  12.756  1.00  0.00     0.117 A 
HETATM    2  N   UNL     1     -41.978 -47.161  12.266  1.00  0.00    -0.324 N 
HETATM    3  C   UNL     1     -41.508 -48.386  11.851  1.00  0.00     0.140 A 
HETATM    4  N   UNL     1     -42.720 -48.629  13.758  1.00  0.00    -0.346 N 
ATOM      5  HN  UNL     1     -43.202 -49.039  14.558  1.00  0.00     0.167 HD
HETATM    6  C   UNL     1     -41.805 -50.682  12.501  1.00  0.00     0.114 C 
HETATM    7  C   UNL     1     -42.616 -47.353  13.457  1.00  0.00     0.185 A 
HETATM    8  N   UNL     1     -40.738 -48.643  10.784  1.00  0.00    -0.336 N 
ATOM      9  HN  UNL     1     -40.393 -47.941  10.129  1.00  0.00     0.168 HD
HETATM   10  N   UNL     1     -40.950 -50.972  11.480  1.00  0.00    -0.341 N 
ATOM     11  HN  UNL     1     -40.666 -51.935  11.304  1.00  0.00     0.167 HD
HETATM   12  C   UNL     1     -40.484 -49.970  10.703  1.00  0.00     0.183 C 
ENDROOT
BRANCH   6  13
HETATM   13  N   UNL     1     -42.430 -51.701  13.242  1.00  0.00    -0.269 NA
HETATM   14  C   UNL     1     -41.572 -52.214  14.309  1.00  0.00     0.118 C 
BRANCH  13  15
HETATM   15  C   UNL     1     -43.146 -52.757  12.499  1.00  0.00     0.132 C 
BRANCH  15  16
HETATM   16  C   UNL     1     -44.492 -53.247  13.098  1.00  0.00     0.236 C 
HETATM   17  N   UNL     1     -45.151 -52.289  14.009  1.00  0.00     0.093 N 
HETATM   18  C   UNL     1     -45.772 -53.050  15.087  1.00  0.00     0.273 C 
HETATM   19  C   UNL     1     -44.766 -54.169  15.302  1.00  0.00     0.032 C 
HETATM   20  C   UNL     1     -44.407 -54.562  13.880  1.00  0.00     0.038 C 
BRANCH  17  21
HETATM   21  C   UNL     1     -46.001 -51.341  13.297  1.00  0.00     0.268 C 
HETATM   22  C   UNL     1     -46.731 -51.936  12.100  1.00  0.00     0.037 C 
ENDBRANCH  17  21
ENDBRANCH  15  16
ENDBRANCH  13  15
ENDBRANCH   6  13
BRANCH   2  23
HETATM   23  C   UNL     1     -41.812 -45.886  11.588  1.00  0.00     0.169 C 
BRANCH  23  24
HETATM   24  C   UNL     1     -40.338 -45.402  11.449  1.00  0.00     0.078 C 
HETATM   25  C   UNL     1     -39.521 -45.807  12.695  1.00  0.00     0.066 C 
HETATM   26  C   UNL     1     -39.793 -44.911  13.893  1.00  0.00     0.170 C 
HETATM   27  O   UNL     1     -39.540 -43.550  13.565  1.00  0.00    -0.391 OA
HETATM   28  C   UNL     1     -40.375 -43.073  12.514  1.00  0.00     0.170 C 
HETATM   29  C   UNL     1     -40.175 -43.883  11.237  1.00  0.00     0.066 C 
BRANCH  24  30
HETATM   30  O   UNL     1     -39.703 -46.073  10.346  1.00  0.00    -0.388 OA
HETATM   31  H   UNL     1     -40.364 -46.342   9.680  1.00  0.00     0.210 HD
ENDBRANCH  24  30
ENDBRANCH  23  24
ENDBRANCH   2  23
TORSDOF 7
ENDMDL
