MODEL 1
REMARK VINA RESULT:      -5.4      0.000      0.000
REMARK  5 active torsions:
REMARK  status: ('A' for Active; 'I' for Inactive)
REMARK    1  A    between atoms: C_2  and  C_4 
REMARK    2  A    between atoms: C_4  and  C_5 
REMARK    3  A    between atoms: C_5  and  N_6 
REMARK       I    between atoms: N_6  and  C_7 
REMARK    4  A    between atoms: C_7  and  C_9 
REMARK    5  A    between atoms: C_9  and  N_10 
ROOT
HETATM    1  C   UNL     1     -41.626 -50.123  13.122  1.00  0.00     0.235 C 
ENDROOT
BRANCH   1   2
HETATM    2  C   UNL     1     -41.990 -48.816  12.428  1.00  0.00     0.235 C 
HETATM    3  N   UNL     1     -42.188 -48.925  11.068  1.00  0.00    -0.360 N 
HETATM    4  H   UNL     1     -42.154 -49.848  10.641  1.00  0.00     0.162 HD
HETATM    5  O   UNL     1     -42.148 -47.771  13.055  1.00  0.00    -0.272 OA
BRANCH   3   6
HETATM    6  C   UNL     1     -42.552 -47.789  10.246  1.00  0.00     0.123 C 
BRANCH   6   7
HETATM    7  C   UNL     1     -44.054 -47.494  10.291  1.00  0.00     0.023 C 
BRANCH   7   8
HETATM    8  C   UNL     1     -44.679 -47.127   8.931  1.00  0.00    -0.021 C 
HETATM    9  C   UNL     1     -44.229 -48.066   7.811  1.00  0.00     0.009 C 
HETATM   10  C   UNL     1     -46.207 -47.146   9.031  1.00  0.00     0.009 C 
ENDBRANCH   7   8
ENDBRANCH   6   7
ENDBRANCH   3   6
ENDBRANCH   1   2
BRANCH   1  11
HETATM   11  N   UNL     1     -42.665 -51.128  12.917  1.00  0.00    -0.301 N 
HETATM   12  C   UNL     1     -43.932 -50.917  13.423  1.00  0.00     0.102 A 
HETATM   13  C   UNL     1     -44.898 -51.830  13.305  1.00  0.00     0.092 A 
HETATM   14  C   UNL     1     -44.595 -53.098  12.621  1.00  0.00     0.250 A 
HETATM   15  O   UNL     1     -45.422 -53.999  12.562  1.00  0.00    -0.268 OA
HETATM   16  N   UNL     1     -43.347 -53.193  12.073  1.00  0.00    -0.275 N 
HETATM   17  C   UNL     1     -42.349 -52.262  12.183  1.00  0.00     0.329 A 
HETATM   18  H   UNL     1     -43.127 -54.047  11.585  1.00  0.00     0.173 HD
HETATM   19  O   UNL     1     -41.250 -52.446  11.658  1.00  0.00    -0.246 OA
ENDBRANCH   1  11
TORSDOF 5
ENDMDL
MODEL 2
REMARK VINA RESULT:      -5.4      2.432      3.962
REMARK  5 active torsions:
REMARK  status: ('A' for Active; 'I' for Inactive)
REMARK    1  A    between atoms: C_2  and  C_4 
REMARK    2  A    between atoms: C_4  and  C_5 
REMARK    3  A    between atoms: C_5  and  N_6 
REMARK       I    between atoms: N_6  and  C_7 
REMARK    4  A    between atoms: C_7  and  C_9 
REMARK    5  A    between atoms: C_9  and  N_10 
ROOT
HETATM    1  C   UNL     1     -42.507 -49.320  12.392  1.00  0.00     0.235 C 
ENDROOT
BRANCH   1   2
HETATM    2  C   UNL     1     -42.984 -48.090  11.628  1.00  0.00     0.235 C 
HETATM    3  N   UNL     1     -43.016 -48.242  10.258  1.00  0.00    -0.360 N 
HETATM    4  H   UNL     1     -42.800 -49.154   9.862  1.00  0.00     0.162 HD
HETATM    5  O   UNL     1     -43.363 -47.074  12.207  1.00  0.00    -0.272 OA
BRANCH   3   6
HETATM    6  C   UNL     1     -43.455 -47.184   9.372  1.00  0.00     0.123 C 
BRANCH   6   7
HETATM    7  C   UNL     1     -44.441 -47.681   8.311  1.00  0.00     0.023 C 
BRANCH   7   8
HETATM    8  C   UNL     1     -45.836 -48.052   8.853  1.00  0.00    -0.021 C 
HETATM    9  C   UNL     1     -46.713 -46.821   9.088  1.00  0.00     0.009 C 
HETATM   10  C   UNL     1     -46.540 -49.004   7.883  1.00  0.00     0.009 C 
ENDBRANCH   7   8
ENDBRANCH   6   7
ENDBRANCH   3   6
ENDBRANCH   1   2
BRANCH   1  11
HETATM   11  N   UNL     1     -41.076 -49.532  12.197  1.00  0.00    -0.301 N 
HETATM   12  C   UNL     1     -40.199 -48.479  12.365  1.00  0.00     0.102 A 
HETATM   13  C   UNL     1     -38.889 -48.613  12.147  1.00  0.00     0.092 A 
HETATM   14  C   UNL     1     -38.373 -49.921  11.710  1.00  0.00     0.250 A 
HETATM   15  O   UNL     1     -37.194 -50.071  11.417  1.00  0.00    -0.268 OA
HETATM   16  N   UNL     1     -39.292 -50.931  11.653  1.00  0.00    -0.275 N 
HETATM   17  C   UNL     1     -40.637 -50.808  11.878  1.00  0.00     0.329 A 
HETATM   18  H   UNL     1     -38.954 -51.839  11.371  1.00  0.00     0.173 HD
HETATM   19  O   UNL     1     -41.385 -51.782  11.791  1.00  0.00    -0.246 OA
ENDBRANCH   1  11
TORSDOF 5
ENDMDL
MODEL 3
REMARK VINA RESULT:      -5.4      2.004      5.490
REMARK  5 active torsions:
REMARK  status: ('A' for Active; 'I' for Inactive)
REMARK    1  A    between atoms: C_2  and  C_4 
REMARK    2  A    between atoms: C_4  and  C_5 
REMARK    3  A    between atoms: C_5  and  N_6 
REMARK       I    between atoms: N_6  and  C_7 
REMARK    4  A    between atoms: C_7  and  C_9 
REMARK    5  A    between atoms: C_9  and  N_10 
ROOT
HETATM    1  C   UNL     1     -41.885 -48.948  12.765  1.00  0.00     0.235 C 
ENDROOT
BRANCH   1   2
HETATM    2  C   UNL     1     -42.015 -50.419  12.386  1.00  0.00     0.235 C 
HETATM    3  N   UNL     1     -43.169 -51.027  12.835  1.00  0.00    -0.360 N 
HETATM    4  H   UNL     1     -43.869 -50.460  13.308  1.00  0.00     0.162 HD
HETATM    5  O   UNL     1     -41.179 -50.985  11.685  1.00  0.00    -0.272 OA
BRANCH   3   6
HETATM    6  C   UNL     1     -43.468 -52.417  12.559  1.00  0.00     0.123 C 
BRANCH   6   7
HETATM    7  C   UNL     1     -44.919 -52.779  12.889  1.00  0.00     0.023 C 
BRANCH   7   8
HETATM    8  C   UNL     1     -45.896 -51.586  12.889  1.00  0.00    -0.021 C 
HETATM    9  C   UNL     1     -46.955 -51.702  11.792  1.00  0.00     0.009 C 
HETATM   10  C   UNL     1     -46.582 -51.467  14.253  1.00  0.00     0.009 C 
ENDBRANCH   7   8
ENDBRANCH   6   7
ENDBRANCH   3   6
ENDBRANCH   1   2
BRANCH   1  11
HETATM   11  N   UNL     1     -42.239 -48.088  11.640  1.00  0.00    -0.301 N 
HETATM   12  C   UNL     1     -43.559 -47.972  11.255  1.00  0.00     0.102 A 
HETATM   13  C   UNL     1     -43.923 -47.238  10.201  1.00  0.00     0.092 A 
HETATM   14  C   UNL     1     -42.881 -46.541   9.429  1.00  0.00     0.250 A 
HETATM   15  O   UNL     1     -43.155 -45.926   8.406  1.00  0.00    -0.268 OA
HETATM   16  N   UNL     1     -41.612 -46.636   9.926  1.00  0.00    -0.275 N 
HETATM   17  C   UNL     1     -41.226 -47.381  11.008  1.00  0.00     0.329 A 
HETATM   18  H   UNL     1     -40.887 -46.151   9.421  1.00  0.00     0.173 HD
HETATM   19  O   UNL     1     -40.051 -47.407  11.373  1.00  0.00    -0.246 OA
ENDBRANCH   1  11
TORSDOF 5
ENDMDL
MODEL 4
REMARK VINA RESULT:      -5.3      4.308      6.689
REMARK  5 active torsions:
REMARK  status: ('A' for Active; 'I' for Inactive)
REMARK    1  A    between atoms: C_2  and  C_4 
REMARK    2  A    between atoms: C_4  and  C_5 
REMARK    3  A    between atoms: C_5  and  N_6 
REMARK       I    between atoms: N_6  and  C_7 
REMARK    4  A    between atoms: C_7  and  C_9 
REMARK    5  A    between atoms: C_9  and  N_10 
ROOT
HETATM    1  C   UNL     1     -45.380 -54.976  14.056  1.00  0.00     0.235 C 
ENDROOT
BRANCH   1   2
HETATM    2  C   UNL     1     -45.980 -54.166  15.200  1.00  0.00     0.235 C 
HETATM    3  N   UNL     1     -46.698 -53.058  14.803  1.00  0.00    -0.360 N 
HETATM    4  H   UNL     1     -46.841 -52.898  13.808  1.00  0.00     0.162 HD
HETATM    5  O   UNL     1     -45.873 -54.521  16.372  1.00  0.00    -0.272 OA
BRANCH   3   6
HETATM    6  C   UNL     1     -47.350 -52.178  15.751  1.00  0.00     0.123 C 
BRANCH   6   7
HETATM    7  C   UNL     1     -46.457 -51.008  16.171  1.00  0.00     0.023 C 
BRANCH   7   8
HETATM    8  C   UNL     1     -46.580 -50.603  17.653  1.00  0.00    -0.021 C 
HETATM    9  C   UNL     1     -48.005 -50.191  18.026  1.00  0.00     0.009 C 
HETATM   10  C   UNL     1     -46.128 -51.757  18.553  1.00  0.00     0.009 C 
ENDBRANCH   7   8
ENDBRANCH   6   7
ENDBRANCH   3   6
ENDBRANCH   1   2
BRANCH   1  11
HETATM   11  N   UNL     1     -44.182 -54.328  13.532  1.00  0.00    -0.301 N 
HETATM   12  C   UNL     1     -42.947 -54.639  14.063  1.00  0.00     0.102 A 
HETATM   13  C   UNL     1     -41.830 -54.034  13.651  1.00  0.00     0.092 A 
HETATM   14  C   UNL     1     -41.928 -53.003  12.605  1.00  0.00     0.250 A 
HETATM   15  O   UNL     1     -40.946 -52.361  12.255  1.00  0.00    -0.268 OA
HETATM   16  N   UNL     1     -43.172 -52.817  12.070  1.00  0.00    -0.275 N 
HETATM   17  C   UNL     1     -44.324 -53.434  12.481  1.00  0.00     0.329 A 
HETATM   18  H   UNL     1     -43.256 -52.126  11.340  1.00  0.00     0.173 HD
HETATM   19  O   UNL     1     -45.401 -53.189  11.938  1.00  0.00    -0.246 OA
ENDBRANCH   1  11
TORSDOF 5
ENDMDL
MODEL 5
REMARK VINA RESULT:      -5.2      4.548      6.315
REMARK  5 active torsions:
REMARK  status: ('A' for Active; 'I' for Inactive)
REMARK    1  A    between atoms: C_2  and  C_4 
REMARK    2  A    between atoms: C_4  and  C_5 
REMARK    3  A    between atoms: C_5  and  N_6 
REMARK       I    between atoms: N_6  and  C_7 
REMARK    4  A    between atoms: C_7  and  C_9 
REMARK    5  A    between atoms: C_9  and  N_10 
ROOT
HETATM    1  C   UNL     1     -41.948 -52.860  14.540  1.00  0.00     0.235 C 
ENDROOT
BRANCH   1   2
HETATM    2  C   UNL     1     -43.146 -53.630  13.995  1.00  0.00     0.235 C 
HETATM    3  N   UNL     1     -44.176 -53.802  14.897  1.00  0.00    -0.360 N 
HETATM    4  H   UNL     1     -44.106 -53.357  15.809  1.00  0.00     0.162 HD
HETATM    5  O   UNL     1     -43.198 -54.007  12.826  1.00  0.00    -0.272 OA
BRANCH   3   6
HETATM    6  C   UNL     1     -45.398 -54.497  14.551  1.00  0.00     0.123 C 
BRANCH   6   7
HETATM    7  C   UNL     1     -46.633 -53.598  14.664  1.00  0.00     0.023 C 
BRANCH   7   8
HETATM    8  C   UNL     1     -46.340 -52.087  14.577  1.00  0.00    -0.021 C 
HETATM    9  C   UNL     1     -46.568 -51.531  13.171  1.00  0.00     0.009 C 
HETATM   10  C   UNL     1     -47.212 -51.324  15.577  1.00  0.00     0.009 C 
ENDBRANCH   7   8
ENDBRANCH   6   7
ENDBRANCH   3   6
ENDBRANCH   1   2
BRANCH   1  11
HETATM   11  N   UNL     1     -40.851 -53.767  14.867  1.00  0.00    -0.301 N 
HETATM   12  C   UNL     1     -40.900 -54.511  16.028  1.00  0.00     0.102 A 
HETATM   13  C   UNL     1     -39.897 -55.313  16.393  1.00  0.00     0.092 A 
HETATM   14  C   UNL     1     -38.707 -55.395  15.531  1.00  0.00     0.250 A 
HETATM   15  O   UNL     1     -37.728 -56.050  15.865  1.00  0.00    -0.268 OA
HETATM   16  N   UNL     1     -38.774 -54.697  14.359  1.00  0.00    -0.275 N 
HETATM   17  C   UNL     1     -39.798 -53.875  13.970  1.00  0.00     0.329 A 
HETATM   18  H   UNL     1     -37.975 -54.755  13.747  1.00  0.00     0.173 HD
HETATM   19  O   UNL     1     -39.759 -53.280  12.894  1.00  0.00    -0.246 OA
ENDBRANCH   1  11
TORSDOF 5
ENDMDL
MODEL 6
REMARK VINA RESULT:      -5.2      2.713      4.444
REMARK  5 active torsions:
REMARK  status: ('A' for Active; 'I' for Inactive)
REMARK    1  A    between atoms: C_2  and  C_4 
REMARK    2  A    between atoms: C_4  and  C_5 
REMARK    3  A    between atoms: C_5  and  N_6 
REMARK       I    between atoms: N_6  and  C_7 
REMARK    4  A    between atoms: C_7  and  C_9 
REMARK    5  A    between atoms: C_9  and  N_10 
ROOT
HETATM    1  C   UNL     1     -44.190 -53.738  12.449  1.00  0.00     0.235 C 
ENDROOT
BRANCH   1   2
HETATM    2  C   UNL     1     -42.833 -53.122  12.765  1.00  0.00     0.235 C 
HETATM    3  N   UNL     1     -42.350 -52.269  11.795  1.00  0.00    -0.360 N 
HETATM    4  H   UNL     1     -42.940 -52.054  10.994  1.00  0.00     0.162 HD
HETATM    5  O   UNL     1     -42.257 -53.332  13.831  1.00  0.00    -0.272 OA
BRANCH   3   6
HETATM    6  C   UNL     1     -41.082 -51.583  11.930  1.00  0.00     0.123 C 
BRANCH   6   7
HETATM    7  C   UNL     1     -41.247 -50.144  12.429  1.00  0.00     0.023 C 
BRANCH   7   8
HETATM    8  C   UNL     1     -42.709 -49.686  12.600  1.00  0.00    -0.021 C 
HETATM    9  C   UNL     1     -43.081 -49.469  14.068  1.00  0.00     0.009 C 
HETATM   10  C   UNL     1     -42.950 -48.395  11.814  1.00  0.00     0.009 C 
ENDBRANCH   7   8
ENDBRANCH   6   7
ENDBRANCH   3   6
ENDBRANCH   1   2
BRANCH   1  11
HETATM   11  N   UNL     1     -45.206 -53.271  13.389  1.00  0.00    -0.301 N 
HETATM   12  C   UNL     1     -45.669 -51.974  13.308  1.00  0.00     0.102 A 
HETATM   13  C   UNL     1     -46.558 -51.489  14.178  1.00  0.00     0.092 A 
HETATM   14  C   UNL     1     -47.047 -52.366  15.254  1.00  0.00     0.250 A 
HETATM   15  O   UNL     1     -47.797 -51.943  16.125  1.00  0.00    -0.268 OA
HETATM   16  N   UNL     1     -46.607 -53.659  15.212  1.00  0.00    -0.275 N 
HETATM   17  C   UNL     1     -45.700 -54.170  14.323  1.00  0.00     0.329 A 
HETATM   18  H   UNL     1     -46.945 -54.280  15.931  1.00  0.00     0.173 HD
HETATM   19  O   UNL     1     -45.359 -55.352  14.374  1.00  0.00    -0.246 OA
ENDBRANCH   1  11
TORSDOF 5
ENDMDL
MODEL 7
REMARK VINA RESULT:      -5.2      4.703      7.021
REMARK  5 active torsions:
REMARK  status: ('A' for Active; 'I' for Inactive)
REMARK    1  A    between atoms: C_2  and  C_4 
REMARK    2  A    between atoms: C_4  and  C_5 
REMARK    3  A    between atoms: C_5  and  N_6 
REMARK       I    between atoms: N_6  and  C_7 
REMARK    4  A    between atoms: C_7  and  C_9 
REMARK    5  A    between atoms: C_9  and  N_10 
ROOT
HETATM    1  C   UNL     1     -41.094 -46.312  11.234  1.00  0.00     0.235 C 
ENDROOT
BRANCH   1   2
HETATM    2  C   UNL     1     -42.516 -46.472  10.710  1.00  0.00     0.235 C 
HETATM    3  N   UNL     1     -42.686 -46.107   9.391  1.00  0.00    -0.360 N 
HETATM    4  H   UNL     1     -41.869 -45.834   8.850  1.00  0.00     0.162 HD
HETATM    5  O   UNL     1     -43.414 -46.949  11.402  1.00  0.00    -0.272 OA
BRANCH   3   6
HETATM    6  C   UNL     1     -43.965 -46.205   8.719  1.00  0.00     0.123 C 
BRANCH   6   7
HETATM    7  C   UNL     1     -44.336 -47.650   8.378  1.00  0.00     0.023 C 
BRANCH   7   8
HETATM    8  C   UNL     1     -45.747 -48.077   8.829  1.00  0.00    -0.021 C 
HETATM    9  C   UNL     1     -46.651 -46.878   9.120  1.00  0.00     0.009 C 
HETATM   10  C   UNL     1     -46.397 -48.960   7.760  1.00  0.00     0.009 C 
ENDBRANCH   7   8
ENDBRANCH   6   7
ENDBRANCH   3   6
ENDBRANCH   1   2
BRANCH   1  11
HETATM   11  N   UNL     1     -40.850 -44.938  11.664  1.00  0.00    -0.301 N 
HETATM   12  C   UNL     1     -41.173 -44.555  12.950  1.00  0.00     0.102 A 
HETATM   13  C   UNL     1     -41.016 -43.298  13.371  1.00  0.00     0.092 A 
HETATM   14  C   UNL     1     -40.489 -42.296  12.429  1.00  0.00     0.250 A 
HETATM   15  O   UNL     1     -40.407 -41.115  12.741  1.00  0.00    -0.268 OA
HETATM   16  N   UNL     1     -40.113 -42.774  11.205  1.00  0.00    -0.275 N 
HETATM   17  C   UNL     1     -40.264 -44.061  10.763  1.00  0.00     0.329 A 
HETATM   18  H   UNL     1     -39.734 -42.105  10.552  1.00  0.00     0.173 HD
HETATM   19  O   UNL     1     -39.900 -44.390   9.634  1.00  0.00    -0.246 OA
ENDBRANCH   1  11
TORSDOF 5
ENDMDL
MODEL 8
REMARK VINA RESULT:      -5.2      2.714      6.111
REMARK  5 active torsions:
REMARK  status: ('A' for Active; 'I' for Inactive)
REMARK    1  A    between atoms: C_2  and  C_4 
REMARK    2  A    between atoms: C_4  and  C_5 
REMARK    3  A    between atoms: C_5  and  N_6 
REMARK       I    between atoms: N_6  and  C_7 
REMARK    4  A    between atoms: C_7  and  C_9 
REMARK    5  A    between atoms: C_9  and  N_10 
ROOT
HETATM    1  C   UNL     1     -41.070 -49.368  11.376  1.00  0.00     0.235 C 
ENDROOT
BRANCH   1   2
HETATM    2  C   UNL     1     -41.945 -49.582  12.606  1.00  0.00     0.235 C 
HETATM    3  N   UNL     1     -43.181 -50.134  12.342  1.00  0.00    -0.360 N 
HETATM    4  H   UNL     1     -43.394 -50.423  11.390  1.00  0.00     0.162 HD
HETATM    5  O   UNL     1     -41.542 -49.332  13.740  1.00  0.00    -0.272 OA
BRANCH   3   6
HETATM    6  C   UNL     1     -44.140 -50.421  13.388  1.00  0.00     0.123 C 
BRANCH   6   7
HETATM    7  C   UNL     1     -44.568 -51.891  13.401  1.00  0.00     0.023 C 
BRANCH   7   8
HETATM    8  C   UNL     1     -46.093 -52.116  13.443  1.00  0.00    -0.021 C 
HETATM    9  C   UNL     1     -46.754 -51.399  14.620  1.00  0.00     0.009 C 
HETATM   10  C   UNL     1     -46.730 -51.646  12.133  1.00  0.00     0.009 C 
ENDBRANCH   7   8
ENDBRANCH   6   7
ENDBRANCH   3   6
ENDBRANCH   1   2
BRANCH   1  11
HETATM   11  N   UNL     1     -40.961 -47.947  11.055  1.00  0.00    -0.301 N 
HETATM   12  C   UNL     1     -39.883 -47.221  11.519  1.00  0.00     0.102 A 
HETATM   13  C   UNL     1     -39.769 -45.910  11.294  1.00  0.00     0.092 A 
HETATM   14  C   UNL     1     -40.829 -45.226  10.536  1.00  0.00     0.250 A 
HETATM   15  O   UNL     1     -40.812 -44.012  10.377  1.00  0.00    -0.268 OA
HETATM   16  N   UNL     1     -41.815 -46.031  10.037  1.00  0.00    -0.275 N 
HETATM   17  C   UNL     1     -41.942 -47.377  10.257  1.00  0.00     0.329 A 
HETATM   18  H   UNL     1     -42.541 -45.583   9.501  1.00  0.00     0.173 HD
HETATM   19  O   UNL     1     -42.876 -48.013   9.769  1.00  0.00    -0.246 OA
ENDBRANCH   1  11
TORSDOF 5
ENDMDL
MODEL 9
REMARK VINA RESULT:      -5.1      2.290      6.270
REMARK  5 active torsions:
REMARK  status: ('A' for Active; 'I' for Inactive)
REMARK    1  A    between atoms: C_2  and  C_4 
REMARK    2  A    between atoms: C_4  and  C_5 
REMARK    3  A    between atoms: C_5  and  N_6 
REMARK       I    between atoms: N_6  and  C_7 
REMARK    4  A    between atoms: C_7  and  C_9 
REMARK    5  A    between atoms: C_9  and  N_10 
ROOT
HETATM    1  C   UNL     1     -41.691 -48.812  12.614  1.00  0.00     0.235 C 
ENDROOT
BRANCH   1   2
HETATM    2  C   UNL     1     -41.454 -50.234  12.121  1.00  0.00     0.235 C 
HETATM    3  N   UNL     1     -42.426 -51.139  12.493  1.00  0.00    -0.360 N 
HETATM    4  H   UNL     1     -43.246 -50.800  12.989  1.00  0.00     0.162 HD
HETATM    5  O   UNL     1     -40.500 -50.521  11.400  1.00  0.00    -0.272 OA
BRANCH   3   6
HETATM    6  C   UNL     1     -42.374 -52.533  12.103  1.00  0.00     0.123 C 
BRANCH   6   7
HETATM    7  C   UNL     1     -42.125 -53.463  13.294  1.00  0.00     0.023 C 
BRANCH   7   8
HETATM    8  C   UNL     1     -43.398 -53.897  14.049  1.00  0.00    -0.021 C 
HETATM    9  C   UNL     1     -44.542 -54.257  13.100  1.00  0.00     0.009 C 
HETATM   10  C   UNL     1     -43.090 -55.090  14.957  1.00  0.00     0.009 C 
ENDBRANCH   7   8
ENDBRANCH   6   7
ENDBRANCH   3   6
ENDBRANCH   1   2
BRANCH   1  11
HETATM   11  N   UNL     1     -42.129 -47.948  11.522  1.00  0.00    -0.301 N 
HETATM   12  C   UNL     1     -43.457 -47.936  11.149  1.00  0.00     0.102 A 
HETATM   13  C   UNL     1     -43.893 -47.201  10.122  1.00  0.00     0.092 A 
HETATM   14  C   UNL     1     -42.923 -46.390   9.369  1.00  0.00     0.250 A 
HETATM   15  O   UNL     1     -43.259 -45.767   8.370  1.00  0.00    -0.268 OA
HETATM   16  N   UNL     1     -41.646 -46.388   9.856  1.00  0.00    -0.275 N 
HETATM   17  C   UNL     1     -41.187 -47.133  10.910  1.00  0.00     0.329 A 
HETATM   18  H   UNL     1     -40.971 -45.825   9.363  1.00  0.00     0.173 HD
HETATM   19  O   UNL     1     -40.011 -47.068  11.266  1.00  0.00    -0.246 OA
ENDBRANCH   1  11
TORSDOF 5
ENDMDL
