MODEL 1
REMARK VINA RESULT:      -5.9      0.000      0.000
REMARK  8 active torsions:
REMARK  status: ('A' for Active; 'I' for Inactive)
REMARK    1  A    between atoms: C_2  and  N_3 
REMARK    2  A    between atoms: C_2  and  C_14 
REMARK    3  A    between atoms: N_3  and  C_4 
REMARK    4  A    between atoms: C_4  and  C_5 
REMARK    5  A    between atoms: C_5  and  O_6 
REMARK    6  A    between atoms: C_5  and  C_7 
REMARK    7  A    between atoms: C_7  and  N_8 
REMARK    8  A    between atoms: C_14  and  N_16 
ROOT
HETATM    1  N   UNL     1     -42.211 -51.097  11.830  1.00  0.00     0.092 N 
HETATM    2  H   UNL     1     -43.160 -51.026  11.457  1.00  0.00     0.316 HD
ENDROOT
BRANCH   1   3
HETATM    3  C   UNL     1     -42.085 -52.184  12.818  1.00  0.00     0.240 C 
HETATM    4  C   UNL     1     -40.745 -52.914  12.635  1.00  0.00     0.045 C 
BRANCH   3   5
HETATM    5  C   UNL     1     -43.311 -53.154  12.845  1.00  0.00     0.136 C 
HETATM    6  C   UNL     1     -43.157 -54.283  13.868  1.00  0.00     0.036 C 
BRANCH   5   7
HETATM    7  N   UNL     1     -44.595 -52.481  13.064  1.00  0.00    -0.297 N 
HETATM    8  C   UNL     1     -45.059 -51.880  14.207  1.00  0.00     0.112 A 
HETATM    9  C   UNL     1     -46.319 -51.412  13.912  1.00  0.00     0.037 A 
HETATM   10  C   UNL     1     -46.542 -51.800  12.582  1.00  0.00     0.108 A 
HETATM   11  N   UNL     1     -45.504 -52.461  12.062  1.00  0.00    -0.310 N 
ATOM     12  HN  UNL     1     -45.416 -52.858  11.126  1.00  0.00     0.186 HD
ENDBRANCH   5   7
ENDBRANCH   3   5
ENDBRANCH   1   3
BRANCH   1  13
HETATM   13  C   UNL     1     -41.773 -49.779  12.297  1.00  0.00     0.303 C 
BRANCH  13  14
HETATM   14  C   UNL     1     -40.697 -49.187  11.361  1.00  0.00     0.174 C 
BRANCH  14  15
HETATM   15  O   UNL     1     -40.482 -50.136  10.304  1.00  0.00    -0.392 OA
HETATM   16  H   UNL     1     -40.974 -49.827   9.526  1.00  0.00     0.210 HD
ENDBRANCH  14  15
BRANCH  14  17
HETATM   17  C   UNL     1     -41.215 -47.823  10.832  1.00  0.00     0.305 C 
BRANCH  17  18
HETATM   18  N   UNL     1     -42.572 -47.405  11.240  1.00  0.00     0.095 N 
HETATM   19  C   UNL     1     -43.490 -47.406  10.073  1.00  0.00     0.298 C 
HETATM   20  C   UNL     1     -43.240 -46.254   9.077  1.00  0.00     0.198 C 
HETATM   21  O   UNL     1     -43.224 -44.971   9.717  1.00  0.00    -0.388 OA
HETATM   22  C   UNL     1     -42.306 -44.941  10.819  1.00  0.00     0.198 C 
HETATM   23  C   UNL     1     -42.636 -46.050  11.831  1.00  0.00     0.298 C 
ENDBRANCH  17  18
ENDBRANCH  14  17
ENDBRANCH  13  14
ENDBRANCH   1  13
TORSDOF 8
ENDMDL
MODEL 2
REMARK VINA RESULT:      -5.8      2.614      6.581
REMARK  8 active torsions:
REMARK  status: ('A' for Active; 'I' for Inactive)
REMARK    1  A    between atoms: C_2  and  N_3 
REMARK    2  A    between atoms: C_2  and  C_14 
REMARK    3  A    between atoms: N_3  and  C_4 
REMARK    4  A    between atoms: C_4  and  C_5 
REMARK    5  A    between atoms: C_5  and  O_6 
REMARK    6  A    between atoms: C_5  and  C_7 
REMARK    7  A    between atoms: C_7  and  N_8 
REMARK    8  A    between atoms: C_14  and  N_16 
ROOT
HETATM    1  N   UNL     1     -41.852 -49.999  11.450  1.00  0.00     0.092 N 
HETATM    2  H   UNL     1     -42.321 -50.468  10.672  1.00  0.00     0.316 HD
ENDROOT
BRANCH   1   3
HETATM    3  C   UNL     1     -41.078 -48.827  11.002  1.00  0.00     0.240 C 
HETATM    4  C   UNL     1     -39.810 -48.670  11.858  1.00  0.00     0.045 C 
BRANCH   3   5
HETATM    5  C   UNL     1     -41.920 -47.513  10.910  1.00  0.00     0.136 C 
HETATM    6  C   UNL     1     -41.062 -46.270  10.658  1.00  0.00     0.036 C 
BRANCH   5   7
HETATM    7  N   UNL     1     -42.992 -47.565   9.911  1.00  0.00    -0.297 N 
HETATM    8  C   UNL     1     -44.338 -47.377  10.094  1.00  0.00     0.112 A 
HETATM    9  C   UNL     1     -44.923 -47.545   8.860  1.00  0.00     0.037 A 
HETATM   10  C   UNL     1     -43.859 -47.859   8.000  1.00  0.00     0.108 A 
HETATM   11  N   UNL     1     -42.682 -47.885   8.633  1.00  0.00    -0.310 N 
ATOM     12  HN  UNL     1     -41.763 -48.096   8.244  1.00  0.00     0.186 HD
ENDBRANCH   5   7
ENDBRANCH   3   5
ENDBRANCH   1   3
BRANCH   1  13
HETATM   13  C   UNL     1     -41.096 -50.984  12.227  1.00  0.00     0.303 C 
BRANCH  13  14
HETATM   14  C   UNL     1     -41.649 -52.409  12.005  1.00  0.00     0.174 C 
BRANCH  14  15
HETATM   15  O   UNL     1     -40.615 -53.174  11.366  1.00  0.00    -0.392 OA
HETATM   16  H   UNL     1     -39.836 -53.157  11.943  1.00  0.00     0.210 HD
ENDBRANCH  14  15
BRANCH  14  17
HETATM   17  C   UNL     1     -42.045 -52.994  13.387  1.00  0.00     0.305 C 
BRANCH  17  18
HETATM   18  N   UNL     1     -42.912 -54.190  13.397  1.00  0.00     0.095 N 
HETATM   19  C   UNL     1     -44.174 -53.926  12.661  1.00  0.00     0.298 C 
HETATM   20  C   UNL     1     -45.150 -52.991  13.406  1.00  0.00     0.198 C 
HETATM   21  O   UNL     1     -45.419 -53.434  14.744  1.00  0.00    -0.388 OA
HETATM   22  C   UNL     1     -44.207 -53.650  15.482  1.00  0.00     0.198 C 
HETATM   23  C   UNL     1     -43.296 -54.648  14.751  1.00  0.00     0.298 C 
ENDBRANCH  17  18
ENDBRANCH  14  17
ENDBRANCH  13  14
ENDBRANCH   1  13
TORSDOF 8
ENDMDL
MODEL 3
REMARK VINA RESULT:      -5.4      3.465      4.308
REMARK  8 active torsions:
REMARK  status: ('A' for Active; 'I' for Inactive)
REMARK    1  A    between atoms: C_2  and  N_3 
REMARK    2  A    between atoms: C_2  and  C_14 
REMARK    3  A    between atoms: N_3  and  C_4 
REMARK    4  A    between atoms: C_4  and  C_5 
REMARK    5  A    between atoms: C_5  and  O_6 
REMARK    6  A    between atoms: C_5  and  C_7 
REMARK    7  A    between atoms: C_7  and  N_8 
REMARK    8  A    between atoms: C_14  and  N_16 
ROOT
HETATM    1  N   UNL     1     -43.396 -52.928  12.069  1.00  0.00     0.092 N 
HETATM    2  H   UNL     1     -43.889 -52.736  11.193  1.00  0.00     0.316 HD
ENDROOT
BRANCH   1   3
HETATM    3  C   UNL     1     -44.313 -52.959  13.223  1.00  0.00     0.240 C 
HETATM    4  C   UNL     1     -45.019 -54.322  13.302  1.00  0.00     0.045 C 
BRANCH   3   5
HETATM    5  C   UNL     1     -45.305 -51.752  13.271  1.00  0.00     0.136 C 
HETATM    6  C   UNL     1     -46.522 -51.942  12.361  1.00  0.00     0.036 C 
BRANCH   5   7
HETATM    7  N   UNL     1     -45.767 -51.418  14.622  1.00  0.00    -0.297 N 
HETATM    8  C   UNL     1     -45.043 -50.906  15.669  1.00  0.00     0.112 A 
HETATM    9  C   UNL     1     -45.920 -50.785  16.723  1.00  0.00     0.037 A 
HETATM   10  C   UNL     1     -47.140 -51.274  16.230  1.00  0.00     0.108 A 
HETATM   11  N   UNL     1     -47.053 -51.671  14.957  1.00  0.00    -0.310 N 
ATOM     12  HN  UNL     1     -47.788 -52.072  14.372  1.00  0.00     0.186 HD
ENDBRANCH   5   7
ENDBRANCH   3   5
ENDBRANCH   1   3
BRANCH   1  13
HETATM   13  C   UNL     1     -42.263 -52.007  12.199  1.00  0.00     0.303 C 
BRANCH  13  14
HETATM   14  C   UNL     1     -40.961 -52.772  12.523  1.00  0.00     0.174 C 
BRANCH  14  15
HETATM   15  O   UNL     1     -40.557 -53.455  11.325  1.00  0.00    -0.392 OA
HETATM   16  H   UNL     1     -41.054 -53.071  10.586  1.00  0.00     0.210 HD
ENDBRANCH  14  15
BRANCH  14  17
HETATM   17  C   UNL     1     -39.902 -51.742  12.999  1.00  0.00     0.305 C 
BRANCH  17  18
HETATM   18  N   UNL     1     -40.163 -50.316  12.714  1.00  0.00     0.095 N 
HETATM   19  C   UNL     1     -39.284 -49.834  11.618  1.00  0.00     0.298 C 
HETATM   20  C   UNL     1     -37.806 -49.668  12.028  1.00  0.00     0.198 C 
HETATM   21  O   UNL     1     -37.651 -48.860  13.203  1.00  0.00    -0.388 OA
HETATM   22  C   UNL     1     -38.460 -49.342  14.285  1.00  0.00     0.198 C 
HETATM   23  C   UNL     1     -39.938 -49.417  13.867  1.00  0.00     0.298 C 
ENDBRANCH  17  18
ENDBRANCH  14  17
ENDBRANCH  13  14
ENDBRANCH   1  13
TORSDOF 8
ENDMDL
MODEL 4
REMARK VINA RESULT:      -5.4      2.584      7.080
REMARK  8 active torsions:
REMARK  status: ('A' for Active; 'I' for Inactive)
REMARK    1  A    between atoms: C_2  and  N_3 
REMARK    2  A    between atoms: C_2  and  C_14 
REMARK    3  A    between atoms: N_3  and  C_4 
REMARK    4  A    between atoms: C_4  and  C_5 
REMARK    5  A    between atoms: C_5  and  O_6 
REMARK    6  A    between atoms: C_5  and  C_7 
REMARK    7  A    between atoms: C_7  and  N_8 
REMARK    8  A    between atoms: C_14  and  N_16 
ROOT
HETATM    1  N   UNL     1     -41.559 -50.061  11.295  1.00  0.00     0.092 N 
HETATM    2  H   UNL     1     -41.545 -50.425  10.340  1.00  0.00     0.316 HD
ENDROOT
BRANCH   1   3
HETATM    3  C   UNL     1     -40.974 -48.710  11.379  1.00  0.00     0.240 C 
HETATM    4  C   UNL     1     -40.754 -48.318  12.849  1.00  0.00     0.045 C 
BRANCH   3   5
HETATM    5  C   UNL     1     -41.762 -47.631  10.569  1.00  0.00     0.136 C 
HETATM    6  C   UNL     1     -43.251 -47.585  10.926  1.00  0.00     0.036 C 
BRANCH   5   7
HETATM    7  N   UNL     1     -41.202 -46.280  10.679  1.00  0.00    -0.297 N 
HETATM    8  C   UNL     1     -41.812 -45.138  11.133  1.00  0.00     0.112 A 
HETATM    9  C   UNL     1     -40.878 -44.133  11.025  1.00  0.00     0.037 A 
HETATM   10  C   UNL     1     -39.748 -44.753  10.470  1.00  0.00     0.108 A 
HETATM   11  N   UNL     1     -39.940 -46.057  10.247  1.00  0.00    -0.310 N 
ATOM     12  HN  UNL     1     -39.286 -46.728   9.843  1.00  0.00     0.186 HD
ENDBRANCH   5   7
ENDBRANCH   3   5
ENDBRANCH   1   3
BRANCH   1  13
HETATM   13  C   UNL     1     -40.971 -51.051  12.201  1.00  0.00     0.303 C 
BRANCH  13  14
HETATM   14  C   UNL     1     -41.572 -52.453  11.957  1.00  0.00     0.174 C 
BRANCH  14  15
HETATM   15  O   UNL     1     -40.561 -53.244  11.312  1.00  0.00    -0.392 OA
HETATM   16  H   UNL     1     -39.958 -52.637  10.854  1.00  0.00     0.210 HD
ENDBRANCH  14  15
BRANCH  14  17
HETATM   17  C   UNL     1     -41.994 -53.043  13.329  1.00  0.00     0.305 C 
BRANCH  17  18
HETATM   18  N   UNL     1     -43.018 -54.108  13.326  1.00  0.00     0.095 N 
HETATM   19  C   UNL     1     -44.215 -53.677  12.560  1.00  0.00     0.298 C 
HETATM   20  C   UNL     1     -45.068 -52.610  13.279  1.00  0.00     0.198 C 
HETATM   21  O   UNL     1     -45.424 -53.001  14.612  1.00  0.00    -0.388 OA
HETATM   22  C   UNL     1     -44.270 -53.376  15.378  1.00  0.00     0.198 C 
HETATM   23  C   UNL     1     -43.490 -54.497  14.673  1.00  0.00     0.298 C 
ENDBRANCH  17  18
ENDBRANCH  14  17
ENDBRANCH  13  14
ENDBRANCH   1  13
TORSDOF 8
ENDMDL
MODEL 5
REMARK VINA RESULT:      -5.4      2.977      6.954
REMARK  8 active torsions:
REMARK  status: ('A' for Active; 'I' for Inactive)
REMARK    1  A    between atoms: C_2  and  N_3 
REMARK    2  A    between atoms: C_2  and  C_14 
REMARK    3  A    between atoms: N_3  and  C_4 
REMARK    4  A    between atoms: C_4  and  C_5 
REMARK    5  A    between atoms: C_5  and  O_6 
REMARK    6  A    between atoms: C_5  and  C_7 
REMARK    7  A    between atoms: C_7  and  N_8 
REMARK    8  A    between atoms: C_14  and  N_16 
ROOT
HETATM    1  N   UNL     1     -39.424 -51.108  11.905  1.00  0.00     0.092 N 
HETATM    2  H   UNL     1     -38.871 -51.624  12.594  1.00  0.00     0.316 HD
ENDROOT
BRANCH   1   3
HETATM    3  C   UNL     1     -38.848 -49.782  11.615  1.00  0.00     0.240 C 
HETATM    4  C   UNL     1     -37.361 -49.918  11.252  1.00  0.00     0.045 C 
BRANCH   3   5
HETATM    5  C   UNL     1     -39.110 -48.724  12.736  1.00  0.00     0.136 C 
HETATM    6  C   UNL     1     -37.909 -48.530  13.666  1.00  0.00     0.036 C 
BRANCH   5   7
HETATM    7  N   UNL     1     -39.539 -47.417  12.229  1.00  0.00    -0.297 N 
HETATM    8  C   UNL     1     -39.642 -46.230  12.909  1.00  0.00     0.112 A 
HETATM    9  C   UNL     1     -40.102 -45.304  12.001  1.00  0.00     0.037 A 
HETATM   10  C   UNL     1     -40.276 -46.027  10.811  1.00  0.00     0.108 A 
HETATM   11  N   UNL     1     -39.947 -47.315  10.943  1.00  0.00    -0.310 N 
ATOM     12  HN  UNL     1     -39.992 -48.051  10.237  1.00  0.00     0.186 HD
ENDBRANCH   5   7
ENDBRANCH   3   5
ENDBRANCH   1   3
BRANCH   1  13
HETATM   13  C   UNL     1     -40.829 -51.099  12.319  1.00  0.00     0.303 C 
BRANCH  13  14
HETATM   14  C   UNL     1     -41.520 -52.436  11.971  1.00  0.00     0.174 C 
BRANCH  14  15
HETATM   15  O   UNL     1     -40.572 -53.227  11.235  1.00  0.00    -0.392 OA
HETATM   16  H   UNL     1     -40.507 -54.091  11.670  1.00  0.00     0.210 HD
ENDBRANCH  14  15
BRANCH  14  17
HETATM   17  C   UNL     1     -41.950 -53.118  13.297  1.00  0.00     0.305 C 
BRANCH  17  18
HETATM   18  N   UNL     1     -43.029 -54.125  13.227  1.00  0.00     0.095 N 
HETATM   19  C   UNL     1     -44.242 -53.546  12.596  1.00  0.00     0.298 C 
HETATM   20  C   UNL     1     -44.994 -52.540  13.492  1.00  0.00     0.198 C 
HETATM   21  O   UNL     1     -45.295 -53.078  14.787  1.00  0.00    -0.388 OA
HETATM   22  C   UNL     1     -44.123 -53.600  15.428  1.00  0.00     0.198 C 
HETATM   23  C   UNL     1     -43.445 -54.658  14.543  1.00  0.00     0.298 C 
ENDBRANCH  17  18
ENDBRANCH  14  17
ENDBRANCH  13  14
ENDBRANCH   1  13
TORSDOF 8
ENDMDL
MODEL 6
REMARK VINA RESULT:      -5.2      3.118      6.891
REMARK  8 active torsions:
REMARK  status: ('A' for Active; 'I' for Inactive)
REMARK    1  A    between atoms: C_2  and  N_3 
REMARK    2  A    between atoms: C_2  and  C_14 
REMARK    3  A    between atoms: N_3  and  C_4 
REMARK    4  A    between atoms: C_4  and  C_5 
REMARK    5  A    between atoms: C_5  and  O_6 
REMARK    6  A    between atoms: C_5  and  C_7 
REMARK    7  A    between atoms: C_7  and  N_8 
REMARK    8  A    between atoms: C_14  and  N_16 
ROOT
HETATM    1  N   UNL     1     -41.709 -49.836  11.138  1.00  0.00     0.092 N 
HETATM    2  H   UNL     1     -41.405 -50.527  10.449  1.00  0.00     0.316 HD
ENDROOT
BRANCH   1   3
HETATM    3  C   UNL     1     -40.993 -48.555  10.991  1.00  0.00     0.240 C 
HETATM    4  C   UNL     1     -39.923 -48.417  12.086  1.00  0.00     0.045 C 
BRANCH   3   5
HETATM    5  C   UNL     1     -41.937 -47.313  10.897  1.00  0.00     0.136 C 
HETATM    6  C   UNL     1     -41.181 -46.006  10.642  1.00  0.00     0.036 C 
BRANCH   5   7
HETATM    7  N   UNL     1     -43.002 -47.452   9.899  1.00  0.00    -0.297 N 
HETATM    8  C   UNL     1     -44.360 -47.449  10.095  1.00  0.00     0.112 A 
HETATM    9  C   UNL     1     -44.929 -47.627   8.854  1.00  0.00     0.037 A 
HETATM   10  C   UNL     1     -43.841 -47.757   7.978  1.00  0.00     0.108 A 
HETATM   11  N   UNL     1     -42.665 -47.663   8.606  1.00  0.00    -0.310 N 
ATOM     12  HN  UNL     1     -41.730 -47.733   8.204  1.00  0.00     0.186 HD
ENDBRANCH   5   7
ENDBRANCH   3   5
ENDBRANCH   1   3
BRANCH   1  13
HETATM   13  C   UNL     1     -41.653 -50.429  12.477  1.00  0.00     0.303 C 
BRANCH  13  14
HETATM   14  C   UNL     1     -41.877 -51.956  12.417  1.00  0.00     0.174 C 
BRANCH  14  15
HETATM   15  O   UNL     1     -41.320 -52.421  11.177  1.00  0.00    -0.392 OA
HETATM   16  H   UNL     1     -40.362 -52.505  11.296  1.00  0.00     0.210 HD
ENDBRANCH  14  15
BRANCH  14  17
HETATM   17  C   UNL     1     -41.182 -52.595  13.650  1.00  0.00     0.305 C 
BRANCH  17  18
HETATM   18  N   UNL     1     -39.757 -52.959  13.514  1.00  0.00     0.095 N 
HETATM   19  C   UNL     1     -39.541 -54.373  13.912  1.00  0.00     0.298 C 
HETATM   20  C   UNL     1     -39.646 -54.619  15.432  1.00  0.00     0.198 C 
HETATM   21  O   UNL     1     -38.804 -53.738  16.189  1.00  0.00    -0.388 OA
HETATM   22  C   UNL     1     -39.035 -52.364  15.847  1.00  0.00     0.198 C 
HETATM   23  C   UNL     1     -38.842 -52.139  14.339  1.00  0.00     0.298 C 
ENDBRANCH  17  18
ENDBRANCH  14  17
ENDBRANCH  13  14
ENDBRANCH   1  13
TORSDOF 8
ENDMDL
MODEL 7
REMARK VINA RESULT:      -5.2      2.830      6.252
REMARK  8 active torsions:
REMARK  status: ('A' for Active; 'I' for Inactive)
REMARK    1  A    between atoms: C_2  and  N_3 
REMARK    2  A    between atoms: C_2  and  C_14 
REMARK    3  A    between atoms: N_3  and  C_4 
REMARK    4  A    between atoms: C_4  and  C_5 
REMARK    5  A    between atoms: C_5  and  O_6 
REMARK    6  A    between atoms: C_5  and  C_7 
REMARK    7  A    between atoms: C_7  and  N_8 
REMARK    8  A    between atoms: C_14  and  N_16 
ROOT
HETATM    1  N   UNL     1     -39.530 -50.524  11.386  1.00  0.00     0.092 N 
HETATM    2  H   UNL     1     -38.713 -51.040  11.049  1.00  0.00     0.316 HD
ENDROOT
BRANCH   1   3
HETATM    3  C   UNL     1     -39.179 -49.161  11.825  1.00  0.00     0.240 C 
HETATM    4  C   UNL     1     -37.888 -49.189  12.659  1.00  0.00     0.045 C 
BRANCH   3   5
HETATM    5  C   UNL     1     -40.350 -48.408  12.536  1.00  0.00     0.136 C 
HETATM    6  C   UNL     1     -39.899 -47.114  13.221  1.00  0.00     0.036 C 
BRANCH   5   7
HETATM    7  N   UNL     1     -41.485 -48.113  11.656  1.00  0.00    -0.297 N 
HETATM    8  C   UNL     1     -42.825 -48.200  11.935  1.00  0.00     0.112 A 
HETATM    9  C   UNL     1     -43.483 -47.835  10.782  1.00  0.00     0.037 A 
HETATM   10  C   UNL     1     -42.462 -47.573   9.855  1.00  0.00     0.108 A 
HETATM   11  N   UNL     1     -41.244 -47.750  10.375  1.00  0.00    -0.310 N 
ATOM     12  HN  UNL     1     -40.341 -47.638   9.912  1.00  0.00     0.186 HD
ENDBRANCH   5   7
ENDBRANCH   3   5
ENDBRANCH   1   3
BRANCH   1  13
HETATM   13  C   UNL     1     -40.240 -51.334  12.378  1.00  0.00     0.303 C 
BRANCH  13  14
HETATM   14  C   UNL     1     -41.277 -52.258  11.702  1.00  0.00     0.174 C 
BRANCH  14  15
HETATM   15  O   UNL     1     -40.657 -53.544  11.535  1.00  0.00    -0.392 OA
HETATM   16  H   UNL     1     -41.212 -54.199  11.987  1.00  0.00     0.210 HD
ENDBRANCH  14  15
BRANCH  14  17
HETATM   17  C   UNL     1     -42.532 -52.324  12.612  1.00  0.00     0.305 C 
BRANCH  17  18
HETATM   18  N   UNL     1     -42.880 -53.634  13.199  1.00  0.00     0.095 N 
HETATM   19  C   UNL     1     -44.237 -54.055  12.768  1.00  0.00     0.298 C 
HETATM   20  C   UNL     1     -45.380 -53.254  13.427  1.00  0.00     0.198 C 
HETATM   21  O   UNL     1     -45.279 -53.231  14.858  1.00  0.00    -0.388 OA
HETATM   22  C   UNL     1     -43.987 -52.782  15.289  1.00  0.00     0.198 C 
HETATM   23  C   UNL     1     -42.877 -53.653  14.679  1.00  0.00     0.298 C 
ENDBRANCH  17  18
ENDBRANCH  14  17
ENDBRANCH  13  14
ENDBRANCH   1  13
TORSDOF 8
ENDMDL
MODEL 8
REMARK VINA RESULT:      -5.1      3.011      7.463
REMARK  8 active torsions:
REMARK  status: ('A' for Active; 'I' for Inactive)
REMARK    1  A    between atoms: C_2  and  N_3 
REMARK    2  A    between atoms: C_2  and  C_14 
REMARK    3  A    between atoms: N_3  and  C_4 
REMARK    4  A    between atoms: C_4  and  C_5 
REMARK    5  A    between atoms: C_5  and  O_6 
REMARK    6  A    between atoms: C_5  and  C_7 
REMARK    7  A    between atoms: C_7  and  N_8 
REMARK    8  A    between atoms: C_14  and  N_16 
ROOT
HETATM    1  N   UNL     1     -42.164 -50.210  11.783  1.00  0.00     0.092 N 
HETATM    2  H   UNL     1     -41.318 -50.721  11.521  1.00  0.00     0.316 HD
ENDROOT
BRANCH   1   3
HETATM    3  C   UNL     1     -41.928 -48.756  11.860  1.00  0.00     0.240 C 
HETATM    4  C   UNL     1     -43.154 -47.991  11.336  1.00  0.00     0.045 C 
BRANCH   3   5
HETATM    5  C   UNL     1     -40.590 -48.299  11.193  1.00  0.00     0.136 C 
HETATM    6  C   UNL     1     -40.371 -46.785  11.268  1.00  0.00     0.036 C 
BRANCH   5   7
HETATM    7  N   UNL     1     -39.403 -48.981  11.717  1.00  0.00    -0.297 N 
HETATM    8  C   UNL     1     -38.844 -48.882  12.967  1.00  0.00     0.112 A 
HETATM    9  C   UNL     1     -37.738 -49.700  12.961  1.00  0.00     0.037 A 
HETATM   10  C   UNL     1     -37.691 -50.228  11.661  1.00  0.00     0.108 A 
HETATM   11  N   UNL     1     -38.693 -49.787  10.894  1.00  0.00    -0.310 N 
ATOM     12  HN  UNL     1     -38.880 -50.008   9.916  1.00  0.00     0.186 HD
ENDBRANCH   5   7
ENDBRANCH   3   5
ENDBRANCH   1   3
BRANCH   1  13
HETATM   13  C   UNL     1     -42.740 -50.811  12.989  1.00  0.00     0.303 C 
BRANCH  13  14
HETATM   14  C   UNL     1     -43.093 -52.296  12.754  1.00  0.00     0.174 C 
BRANCH  14  15
HETATM   15  O   UNL     1     -42.440 -52.703  11.540  1.00  0.00    -0.392 OA
HETATM   16  H   UNL     1     -41.485 -52.711  11.707  1.00  0.00     0.210 HD
ENDBRANCH  14  15
BRANCH  14  17
HETATM   17  C   UNL     1     -42.607 -53.108  13.984  1.00  0.00     0.305 C 
BRANCH  17  18
HETATM   18  N   UNL     1     -43.077 -54.503  14.108  1.00  0.00     0.095 N 
HETATM   19  C   UNL     1     -44.550 -54.574  13.938  1.00  0.00     0.298 C 
HETATM   20  C   UNL     1     -45.346 -54.009  15.133  1.00  0.00     0.198 C 
HETATM   21  O   UNL     1     -44.945 -54.590  16.382  1.00  0.00    -0.388 OA
HETATM   22  C   UNL     1     -43.528 -54.488  16.581  1.00  0.00     0.198 C 
HETATM   23  C   UNL     1     -42.767 -55.132  15.411  1.00  0.00     0.298 C 
ENDBRANCH  17  18
ENDBRANCH  14  17
ENDBRANCH  13  14
ENDBRANCH   1  13
TORSDOF 8
ENDMDL
MODEL 9
REMARK VINA RESULT:      -4.9      3.740      7.378
REMARK  8 active torsions:
REMARK  status: ('A' for Active; 'I' for Inactive)
REMARK    1  A    between atoms: C_2  and  N_3 
REMARK    2  A    between atoms: C_2  and  C_14 
REMARK    3  A    between atoms: N_3  and  C_4 
REMARK    4  A    between atoms: C_4  and  C_5 
REMARK    5  A    between atoms: C_5  and  O_6 
REMARK    6  A    between atoms: C_5  and  C_7 
REMARK    7  A    between atoms: C_7  and  N_8 
REMARK    8  A    between atoms: C_14  and  N_16 
ROOT
HETATM    1  N   UNL     1     -40.372 -51.762  12.832  1.00  0.00     0.092 N 
HETATM    2  H   UNL     1     -39.749 -52.457  13.250  1.00  0.00     0.316 HD
ENDROOT
BRANCH   1   3
HETATM    3  C   UNL     1     -39.697 -50.467  12.629  1.00  0.00     0.240 C 
HETATM    4  C   UNL     1     -40.126 -49.849  11.289  1.00  0.00     0.045 C 
BRANCH   3   5
HETATM    5  C   UNL     1     -38.145 -50.531  12.804  1.00  0.00     0.136 C 
HETATM    6  C   UNL     1     -37.385 -50.239  11.507  1.00  0.00     0.036 C 
BRANCH   5   7
HETATM    7  N   UNL     1     -37.631 -49.661  13.866  1.00  0.00    -0.297 N 
HETATM    8  C   UNL     1     -37.633 -48.290  13.922  1.00  0.00     0.112 A 
HETATM    9  C   UNL     1     -37.025 -47.951  15.109  1.00  0.00     0.037 A 
HETATM   10  C   UNL     1     -36.664 -49.177  15.689  1.00  0.00     0.108 A 
HETATM   11  N   UNL     1     -37.019 -50.222  14.935  1.00  0.00    -0.310 N 
ATOM     12  HN  UNL     1     -36.865 -51.213  15.122  1.00  0.00     0.186 HD
ENDBRANCH   5   7
ENDBRANCH   3   5
ENDBRANCH   1   3
BRANCH   1  13
HETATM   13  C   UNL     1     -41.616 -51.701  13.603  1.00  0.00     0.303 C 
BRANCH  13  14
HETATM   14  C   UNL     1     -42.818 -52.172  12.755  1.00  0.00     0.174 C 
BRANCH  14  15
HETATM   15  O   UNL     1     -42.301 -52.614  11.490  1.00  0.00    -0.392 OA
HETATM   16  H   UNL     1     -42.813 -53.391  11.217  1.00  0.00     0.210 HD
ENDBRANCH  14  15
BRANCH  14  17
HETATM   17  C   UNL     1     -43.538 -53.310  13.527  1.00  0.00     0.305 C 
BRANCH  17  18
HETATM   18  N   UNL     1     -44.749 -53.891  12.911  1.00  0.00     0.095 N 
HETATM   19  C   UNL     1     -45.741 -52.828  12.610  1.00  0.00     0.298 C 
HETATM   20  C   UNL     1     -46.436 -52.248  13.860  1.00  0.00     0.198 C 
HETATM   21  O   UNL     1     -47.010 -53.268  14.690  1.00  0.00    -0.388 OA
HETATM   22  C   UNL     1     -46.049 -54.278  15.027  1.00  0.00     0.198 C 
HETATM   23  C   UNL     1     -45.437 -54.891  13.757  1.00  0.00     0.298 C 
ENDBRANCH  17  18
ENDBRANCH  14  17
ENDBRANCH  13  14
ENDBRANCH   1  13
TORSDOF 8
ENDMDL
