MODEL 1
REMARK VINA RESULT:      -6.1      0.000      0.000
REMARK  7 active torsions:
REMARK  status: ('A' for Active; 'I' for Inactive)
REMARK    1  A    between atoms: C_2  and  N_3 
REMARK    2  A    between atoms: C_2  and  C_15 
REMARK    3  A    between atoms: N_3  and  C_4 
REMARK    4  A    between atoms: C_4  and  C_6 
REMARK       I    between atoms: C_6  and  N_8 
REMARK    5  A    between atoms: N_8  and  C_9 
REMARK    6  A    between atoms: C_9  and  C_10 
REMARK    7  A    between atoms: C_15  and  N_17 
ROOT
HETATM    1  N   UNL     1     -42.103 -49.955  11.472  1.00  0.00     0.103 N 
HETATM    2  H   UNL     1     -41.969 -49.765  10.475  1.00  0.00     0.317 HD
ENDROOT
BRANCH   1   3
HETATM    3  C   UNL     1     -42.029 -48.661  12.198  1.00  0.00     0.241 C 
HETATM    4  C   UNL     1     -42.983 -48.660  13.401  1.00  0.00     0.045 C 
BRANCH   3   5
HETATM    5  C   UNL     1     -42.111 -47.364  11.326  1.00  0.00     0.136 C 
HETATM    6  C   UNL     1     -40.745 -46.856  10.847  1.00  0.00     0.036 C 
BRANCH   5   7
HETATM    7  N   UNL     1     -43.004 -47.483  10.173  1.00  0.00    -0.297 N 
HETATM    8  C   UNL     1     -44.368 -47.340  10.127  1.00  0.00     0.112 A 
HETATM    9  C   UNL     1     -44.734 -47.530   8.816  1.00  0.00     0.037 A 
HETATM   10  C   UNL     1     -43.535 -47.836   8.153  1.00  0.00     0.108 A 
HETATM   11  N   UNL     1     -42.484 -47.839   8.976  1.00  0.00    -0.310 N 
ATOM     12  HN  UNL     1     -41.514 -48.059   8.754  1.00  0.00     0.186 HD
ENDBRANCH   5   7
ENDBRANCH   3   5
ENDBRANCH   1   3
BRANCH   1  13
HETATM   13  C   UNL     1     -41.132 -51.024  11.834  1.00  0.00     0.308 C 
HETATM   14  C   UNL     1     -39.999 -50.606  12.767  1.00  0.00     0.053 C 
BRANCH  13  15
HETATM   15  C   UNL     1     -41.891 -52.160  12.555  1.00  0.00     0.250 C 
HETATM   16  O   UNL     1     -41.532 -52.601  13.646  1.00  0.00    -0.271 OA
HETATM   17  N   UNL     1     -43.033 -52.582  11.911  1.00  0.00    -0.357 N 
HETATM   18  H   UNL     1     -43.191 -52.228  10.970  1.00  0.00     0.162 HD
BRANCH  17  19
HETATM   19  C   UNL     1     -43.923 -53.594  12.447  1.00  0.00     0.154 C 
BRANCH  19  20
HETATM   20  C   UNL     1     -45.300 -53.049  12.828  1.00  0.00     0.139 C 
HETATM   21  C   UNL     1     -45.353 -51.569  13.177  1.00  0.00     0.035 C 
HETATM   22  C   UNL     1     -46.452 -51.470  14.217  1.00  0.00     0.029 C 
HETATM   23  C   UNL     1     -46.868 -52.902  14.490  1.00  0.00     0.168 C 
HETATM   24  O   UNL     1     -45.815 -53.729  13.987  1.00  0.00    -0.384 OA
ENDBRANCH  19  20
ENDBRANCH  17  19
ENDBRANCH  13  15
ENDBRANCH   1  13
TORSDOF 7
ENDMDL
MODEL 2
REMARK VINA RESULT:      -5.9      1.828      2.945
REMARK  7 active torsions:
REMARK  status: ('A' for Active; 'I' for Inactive)
REMARK    1  A    between atoms: C_2  and  N_3 
REMARK    2  A    between atoms: C_2  and  C_15 
REMARK    3  A    between atoms: N_3  and  C_4 
REMARK    4  A    between atoms: C_4  and  C_6 
REMARK       I    between atoms: C_6  and  N_8 
REMARK    5  A    between atoms: N_8  and  C_9 
REMARK    6  A    between atoms: C_9  and  C_10 
REMARK    7  A    between atoms: C_15  and  N_17 
ROOT
HETATM    1  N   UNL     1     -42.939 -48.459  10.587  1.00  0.00     0.103 N 
HETATM    2  H   UNL     1     -42.829 -49.319  10.044  1.00  0.00     0.317 HD
ENDROOT
BRANCH   1   3
HETATM    3  C   UNL     1     -42.655 -47.311   9.688  1.00  0.00     0.241 C 
HETATM    4  C   UNL     1     -42.586 -46.002  10.488  1.00  0.00     0.045 C 
BRANCH   3   5
HETATM    5  C   UNL     1     -43.518 -47.210   8.387  1.00  0.00     0.136 C 
HETATM    6  C   UNL     1     -43.029 -48.119   7.252  1.00  0.00     0.036 C 
BRANCH   5   7
HETATM    7  N   UNL     1     -44.945 -47.450   8.605  1.00  0.00    -0.297 N 
HETATM    8  C   UNL     1     -45.834 -46.714   9.348  1.00  0.00     0.112 A 
HETATM    9  C   UNL     1     -47.052 -47.339   9.225  1.00  0.00     0.037 A 
HETATM   10  C   UNL     1     -46.793 -48.471   8.436  1.00  0.00     0.108 A 
HETATM   11  N   UNL     1     -45.511 -48.562   8.081  1.00  0.00    -0.310 N 
ATOM     12  HN  UNL     1     -45.060 -49.299   7.540  1.00  0.00     0.186 HD
ENDBRANCH   5   7
ENDBRANCH   3   5
ENDBRANCH   1   3
BRANCH   1  13
HETATM   13  C   UNL     1     -42.105 -48.620  11.811  1.00  0.00     0.308 C 
HETATM   14  C   UNL     1     -42.794 -48.291  13.132  1.00  0.00     0.053 C 
BRANCH  13  15
HETATM   15  C   UNL     1     -41.653 -50.094  11.911  1.00  0.00     0.250 C 
HETATM   16  O   UNL     1     -40.467 -50.421  11.872  1.00  0.00    -0.271 OA
HETATM   17  N   UNL     1     -42.675 -50.993  12.119  1.00  0.00    -0.357 N 
HETATM   18  H   UNL     1     -43.626 -50.639  12.037  1.00  0.00     0.162 HD
BRANCH  17  19
HETATM   19  C   UNL     1     -42.462 -52.415  12.302  1.00  0.00     0.154 C 
BRANCH  19  20
HETATM   20  C   UNL     1     -43.494 -53.068  13.222  1.00  0.00     0.139 C 
HETATM   21  C   UNL     1     -42.940 -54.022  14.269  1.00  0.00     0.035 C 
HETATM   22  C   UNL     1     -44.030 -55.062  14.443  1.00  0.00     0.029 C 
HETATM   23  C   UNL     1     -45.077 -54.714  13.403  1.00  0.00     0.168 C 
HETATM   24  O   UNL     1     -44.435 -53.848  12.462  1.00  0.00    -0.384 OA
ENDBRANCH  19  20
ENDBRANCH  17  19
ENDBRANCH  13  15
ENDBRANCH   1  13
TORSDOF 7
ENDMDL
MODEL 3
REMARK VINA RESULT:      -5.8      1.311      2.173
REMARK  7 active torsions:
REMARK  status: ('A' for Active; 'I' for Inactive)
REMARK    1  A    between atoms: C_2  and  N_3 
REMARK    2  A    between atoms: C_2  and  C_15 
REMARK    3  A    between atoms: N_3  and  C_4 
REMARK    4  A    between atoms: C_4  and  C_6 
REMARK       I    between atoms: C_6  and  N_8 
REMARK    5  A    between atoms: N_8  and  C_9 
REMARK    6  A    between atoms: C_9  and  C_10 
REMARK    7  A    between atoms: C_15  and  N_17 
ROOT
HETATM    1  N   UNL     1     -42.174 -50.068  11.701  1.00  0.00     0.103 N 
HETATM    2  H   UNL     1     -42.561 -50.203  10.763  1.00  0.00     0.317 HD
ENDROOT
BRANCH   1   3
HETATM    3  C   UNL     1     -41.743 -48.652  11.818  1.00  0.00     0.241 C 
HETATM    4  C   UNL     1     -42.336 -48.009  13.081  1.00  0.00     0.045 C 
BRANCH   3   5
HETATM    5  C   UNL     1     -41.885 -47.768  10.535  1.00  0.00     0.136 C 
HETATM    6  C   UNL     1     -43.337 -47.562  10.085  1.00  0.00     0.036 C 
BRANCH   5   7
HETATM    7  N   UNL     1     -41.232 -46.462  10.643  1.00  0.00    -0.297 N 
HETATM    8  C   UNL     1     -41.803 -45.234  10.857  1.00  0.00     0.112 A 
HETATM    9  C   UNL     1     -40.770 -44.328  10.895  1.00  0.00     0.037 A 
HETATM   10  C   UNL     1     -39.618 -45.090  10.640  1.00  0.00     0.108 A 
HETATM   11  N   UNL     1     -39.893 -46.382  10.456  1.00  0.00    -0.310 N 
ATOM     12  HN  UNL     1     -39.245 -47.136  10.228  1.00  0.00     0.186 HD
ENDBRANCH   5   7
ENDBRANCH   3   5
ENDBRANCH   1   3
BRANCH   1  13
HETATM   13  C   UNL     1     -41.153 -51.135  11.894  1.00  0.00     0.308 C 
HETATM   14  C   UNL     1     -40.138 -50.890  13.008  1.00  0.00     0.053 C 
BRANCH  13  15
HETATM   15  C   UNL     1     -41.874 -52.455  12.246  1.00  0.00     0.250 C 
HETATM   16  O   UNL     1     -41.264 -53.463  12.598  1.00  0.00    -0.271 OA
HETATM   17  N   UNL     1     -43.249 -52.384  12.200  1.00  0.00    -0.357 N 
HETATM   18  H   UNL     1     -43.655 -51.540  11.803  1.00  0.00     0.162 HD
BRANCH  17  19
HETATM   19  C   UNL     1     -44.117 -53.491  12.552  1.00  0.00     0.154 C 
BRANCH  19  20
HETATM   20  C   UNL     1     -45.506 -53.048  13.014  1.00  0.00     0.139 C 
HETATM   21  C   UNL     1     -45.679 -51.556  13.257  1.00  0.00     0.035 C 
HETATM   22  C   UNL     1     -46.694 -51.476  14.381  1.00  0.00     0.029 C 
HETATM   23  C   UNL     1     -46.941 -52.914  14.793  1.00  0.00     0.168 C 
HETATM   24  O   UNL     1     -45.855 -53.677  14.260  1.00  0.00    -0.384 OA
ENDBRANCH  19  20
ENDBRANCH  17  19
ENDBRANCH  13  15
ENDBRANCH   1  13
TORSDOF 7
ENDMDL
MODEL 4
REMARK VINA RESULT:      -5.7      2.465      3.771
REMARK  7 active torsions:
REMARK  status: ('A' for Active; 'I' for Inactive)
REMARK    1  A    between atoms: C_2  and  N_3 
REMARK    2  A    between atoms: C_2  and  C_15 
REMARK    3  A    between atoms: N_3  and  C_4 
REMARK    4  A    between atoms: C_4  and  C_6 
REMARK       I    between atoms: C_6  and  N_8 
REMARK    5  A    between atoms: N_8  and  C_9 
REMARK    6  A    between atoms: C_9  and  C_10 
REMARK    7  A    between atoms: C_15  and  N_17 
ROOT
HETATM    1  N   UNL     1     -42.233 -52.563  12.056  1.00  0.00     0.103 N 
HETATM    2  H   UNL     1     -41.952 -52.647  11.075  1.00  0.00     0.317 HD
ENDROOT
BRANCH   1   3
HETATM    3  C   UNL     1     -41.809 -51.225  12.540  1.00  0.00     0.241 C 
HETATM    4  C   UNL     1     -42.979 -50.501  13.224  1.00  0.00     0.045 C 
BRANCH   3   5
HETATM    5  C   UNL     1     -41.019 -50.331  11.527  1.00  0.00     0.136 C 
HETATM    6  C   UNL     1     -41.599 -48.920  11.369  1.00  0.00     0.036 C 
BRANCH   5   7
HETATM    7  N   UNL     1     -39.590 -50.227  11.823  1.00  0.00    -0.297 N 
HETATM    8  C   UNL     1     -38.960 -50.284  13.040  1.00  0.00     0.112 A 
HETATM    9  C   UNL     1     -37.615 -50.154  12.787  1.00  0.00     0.037 A 
HETATM   10  C   UNL     1     -37.530 -49.970  11.398  1.00  0.00     0.108 A 
HETATM   11  N   UNL     1     -38.727 -49.983  10.809  1.00  0.00    -0.310 N 
ATOM     12  HN  UNL     1     -38.943 -49.841   9.822  1.00  0.00     0.186 HD
ENDBRANCH   5   7
ENDBRANCH   3   5
ENDBRANCH   1   3
BRANCH   1  13
HETATM   13  C   UNL     1     -41.702 -53.768  12.753  1.00  0.00     0.308 C 
HETATM   14  C   UNL     1     -40.480 -53.539  13.638  1.00  0.00     0.053 C 
BRANCH  13  15
HETATM   15  C   UNL     1     -42.805 -54.335  13.673  1.00  0.00     0.250 C 
HETATM   16  O   UNL     1     -42.589 -54.642  14.845  1.00  0.00    -0.271 OA
HETATM   17  N   UNL     1     -44.054 -54.399  13.096  1.00  0.00    -0.357 N 
HETATM   18  H   UNL     1     -44.111 -54.217  12.096  1.00  0.00     0.162 HD
BRANCH  17  19
HETATM   19  C   UNL     1     -45.239 -54.843  13.804  1.00  0.00     0.154 C 
BRANCH  19  20
HETATM   20  C   UNL     1     -46.251 -53.724  14.051  1.00  0.00     0.139 C 
HETATM   21  C   UNL     1     -46.126 -52.505  13.149  1.00  0.00     0.035 C 
HETATM   22  C   UNL     1     -46.574 -51.348  14.020  1.00  0.00     0.029 C 
HETATM   23  C   UNL     1     -46.804 -51.951  15.391  1.00  0.00     0.168 C 
HETATM   24  O   UNL     1     -46.133 -53.214  15.392  1.00  0.00    -0.384 OA
ENDBRANCH  19  20
ENDBRANCH  17  19
ENDBRANCH  13  15
ENDBRANCH   1  13
TORSDOF 7
ENDMDL
MODEL 5
REMARK VINA RESULT:      -5.6      2.337      6.432
REMARK  7 active torsions:
REMARK  status: ('A' for Active; 'I' for Inactive)
REMARK    1  A    between atoms: C_2  and  N_3 
REMARK    2  A    between atoms: C_2  and  C_15 
REMARK    3  A    between atoms: N_3  and  C_4 
REMARK    4  A    between atoms: C_4  and  C_6 
REMARK       I    between atoms: C_6  and  N_8 
REMARK    5  A    between atoms: N_8  and  C_9 
REMARK    6  A    between atoms: C_9  and  C_10 
REMARK    7  A    between atoms: C_15  and  N_17 
ROOT
HETATM    1  N   UNL     1     -42.260 -51.987  11.994  1.00  0.00     0.103 N 
HETATM    2  H   UNL     1     -43.195 -51.709  11.687  1.00  0.00     0.317 HD
ENDROOT
BRANCH   1   3
HETATM    3  C   UNL     1     -42.412 -53.070  12.999  1.00  0.00     0.241 C 
HETATM    4  C   UNL     1     -41.238 -54.057  12.913  1.00  0.00     0.045 C 
BRANCH   3   5
HETATM    5  C   UNL     1     -43.813 -53.762  13.077  1.00  0.00     0.136 C 
HETATM    6  C   UNL     1     -43.925 -54.803  14.198  1.00  0.00     0.036 C 
BRANCH   5   7
HETATM    7  N   UNL     1     -44.929 -52.822  13.189  1.00  0.00    -0.297 N 
HETATM    8  C   UNL     1     -45.439 -52.228  14.316  1.00  0.00     0.112 A 
HETATM    9  C   UNL     1     -46.468 -51.419  13.895  1.00  0.00     0.037 A 
HETATM   10  C   UNL     1     -46.542 -51.628  12.509  1.00  0.00     0.108 A 
HETATM   11  N   UNL     1     -45.631 -52.502  12.077  1.00  0.00    -0.310 N 
ATOM     12  HN  UNL     1     -45.494 -52.848  11.127  1.00  0.00     0.186 HD
ENDBRANCH   5   7
ENDBRANCH   3   5
ENDBRANCH   1   3
BRANCH   1  13
HETATM   13  C   UNL     1     -41.558 -50.739  12.401  1.00  0.00     0.308 C 
HETATM   14  C   UNL     1     -40.157 -50.546  11.827  1.00  0.00     0.053 C 
BRANCH  13  15
HETATM   15  C   UNL     1     -42.391 -49.526  11.933  1.00  0.00     0.250 C 
HETATM   16  O   UNL     1     -43.351 -49.101  12.576  1.00  0.00    -0.271 OA
HETATM   17  N   UNL     1     -41.928 -48.923  10.785  1.00  0.00    -0.357 N 
HETATM   18  H   UNL     1     -41.191 -49.405  10.275  1.00  0.00     0.162 HD
BRANCH  17  19
HETATM   19  C   UNL     1     -42.528 -47.734  10.210  1.00  0.00     0.154 C 
BRANCH  19  20
HETATM   20  C   UNL     1     -41.720 -46.462  10.471  1.00  0.00     0.139 C 
HETATM   21  C   UNL     1     -40.317 -46.669  11.020  1.00  0.00     0.035 C 
HETATM   22  C   UNL     1     -40.077 -45.457  11.900  1.00  0.00     0.029 C 
HETATM   23  C   UNL     1     -41.393 -44.704  11.902  1.00  0.00     0.168 C 
HETATM   24  O   UNL     1     -42.383 -45.625  11.436  1.00  0.00    -0.384 OA
ENDBRANCH  19  20
ENDBRANCH  17  19
ENDBRANCH  13  15
ENDBRANCH   1  13
TORSDOF 7
ENDMDL
MODEL 6
REMARK VINA RESULT:      -5.6      1.433      1.784
REMARK  7 active torsions:
REMARK  status: ('A' for Active; 'I' for Inactive)
REMARK    1  A    between atoms: C_2  and  N_3 
REMARK    2  A    between atoms: C_2  and  C_15 
REMARK    3  A    between atoms: N_3  and  C_4 
REMARK    4  A    between atoms: C_4  and  C_6 
REMARK       I    between atoms: C_6  and  N_8 
REMARK    5  A    between atoms: N_8  and  C_9 
REMARK    6  A    between atoms: C_9  and  C_10 
REMARK    7  A    between atoms: C_15  and  N_17 
ROOT
HETATM    1  N   UNL     1     -41.518 -49.727  11.085  1.00  0.00     0.103 N 
HETATM    2  H   UNL     1     -41.499 -49.428  10.107  1.00  0.00     0.317 HD
ENDROOT
BRANCH   1   3
HETATM    3  C   UNL     1     -42.081 -48.614  11.893  1.00  0.00     0.241 C 
HETATM    4  C   UNL     1     -43.214 -49.121  12.796  1.00  0.00     0.045 C 
BRANCH   3   5
HETATM    5  C   UNL     1     -42.427 -47.296  11.124  1.00  0.00     0.136 C 
HETATM    6  C   UNL     1     -41.194 -46.484  10.708  1.00  0.00     0.036 C 
BRANCH   5   7
HETATM    7  N   UNL     1     -43.277 -47.504   9.950  1.00  0.00    -0.297 N 
HETATM    8  C   UNL     1     -44.647 -47.489   9.871  1.00  0.00     0.112 A 
HETATM    9  C   UNL     1     -44.961 -47.719   8.553  1.00  0.00     0.037 A 
HETATM   10  C   UNL     1     -43.723 -47.915   7.920  1.00  0.00     0.108 A 
HETATM   11  N   UNL     1     -42.697 -47.816   8.768  1.00  0.00    -0.310 N 
ATOM     12  HN  UNL     1     -41.705 -47.946   8.571  1.00  0.00     0.186 HD
ENDBRANCH   5   7
ENDBRANCH   3   5
ENDBRANCH   1   3
BRANCH   1  13
HETATM   13  C   UNL     1     -40.148 -50.212  11.408  1.00  0.00     0.308 C 
HETATM   14  C   UNL     1     -39.159 -49.147  11.876  1.00  0.00     0.053 C 
BRANCH  13  15
HETATM   15  C   UNL     1     -40.244 -51.248  12.550  1.00  0.00     0.250 C 
HETATM   16  O   UNL     1     -39.731 -51.059  13.652  1.00  0.00    -0.271 OA
HETATM   17  N   UNL     1     -41.006 -52.356  12.253  1.00  0.00    -0.357 N 
HETATM   18  H   UNL     1     -41.304 -52.466  11.287  1.00  0.00     0.162 HD
BRANCH  17  19
HETATM   19  C   UNL     1     -41.274 -53.417  13.204  1.00  0.00     0.154 C 
BRANCH  19  20
HETATM   20  C   UNL     1     -42.658 -54.047  13.034  1.00  0.00     0.139 C 
HETATM   21  C   UNL     1     -43.748 -53.122  12.514  1.00  0.00     0.035 C 
HETATM   22  C   UNL     1     -45.016 -53.634  13.170  1.00  0.00     0.029 C 
HETATM   23  C   UNL     1     -44.558 -54.728  14.114  1.00  0.00     0.168 C 
HETATM   24  O   UNL     1     -43.151 -54.543  14.291  1.00  0.00    -0.384 OA
ENDBRANCH  19  20
ENDBRANCH  17  19
ENDBRANCH  13  15
ENDBRANCH   1  13
TORSDOF 7
ENDMDL
MODEL 7
REMARK VINA RESULT:      -5.5      1.993      3.129
REMARK  7 active torsions:
REMARK  status: ('A' for Active; 'I' for Inactive)
REMARK    1  A    between atoms: C_2  and  N_3 
REMARK    2  A    between atoms: C_2  and  C_15 
REMARK    3  A    between atoms: N_3  and  C_4 
REMARK    4  A    between atoms: C_4  and  C_6 
REMARK       I    between atoms: C_6  and  N_8 
REMARK    5  A    between atoms: N_8  and  C_9 
REMARK    6  A    between atoms: C_9  and  C_10 
REMARK    7  A    between atoms: C_15  and  N_17 
ROOT
HETATM    1  N   UNL     1     -41.039 -49.215  10.705  1.00  0.00     0.103 N 
HETATM    2  H   UNL     1     -40.756 -48.977   9.750  1.00  0.00     0.317 HD
ENDROOT
BRANCH   1   3
HETATM    3  C   UNL     1     -41.876 -48.104  11.224  1.00  0.00     0.241 C 
HETATM    4  C   UNL     1     -43.048 -48.651  12.052  1.00  0.00     0.045 C 
BRANCH   3   5
HETATM    5  C   UNL     1     -42.291 -47.000  10.195  1.00  0.00     0.136 C 
HETATM    6  C   UNL     1     -43.786 -47.011   9.849  1.00  0.00     0.036 C 
BRANCH   5   7
HETATM    7  N   UNL     1     -41.906 -45.646  10.595  1.00  0.00    -0.297 N 
HETATM    8  C   UNL     1     -40.654 -45.086  10.630  1.00  0.00     0.112 A 
HETATM    9  C   UNL     1     -40.821 -43.791  11.059  1.00  0.00     0.037 A 
HETATM   10  C   UNL     1     -42.197 -43.673  11.310  1.00  0.00     0.108 A 
HETATM   11  N   UNL     1     -42.859 -44.804  11.060  1.00  0.00    -0.310 N 
ATOM     12  HN  UNL     1     -43.853 -44.992  11.188  1.00  0.00     0.186 HD
ENDBRANCH   5   7
ENDBRANCH   3   5
ENDBRANCH   1   3
BRANCH   1  13
HETATM   13  C   UNL     1     -39.792 -49.564  11.442  1.00  0.00     0.308 C 
HETATM   14  C   UNL     1     -39.477 -48.702  12.661  1.00  0.00     0.053 C 
BRANCH  13  15
HETATM   15  C   UNL     1     -39.909 -51.016  11.954  1.00  0.00     0.250 C 
HETATM   16  O   UNL     1     -39.093 -51.504  12.735  1.00  0.00    -0.271 OA
HETATM   17  N   UNL     1     -41.031 -51.686  11.521  1.00  0.00    -0.357 N 
HETATM   18  H   UNL     1     -41.591 -51.234  10.802  1.00  0.00     0.162 HD
BRANCH  17  19
HETATM   19  C   UNL     1     -41.363 -53.037  11.933  1.00  0.00     0.154 C 
BRANCH  19  20
HETATM   20  C   UNL     1     -42.553 -53.102  12.891  1.00  0.00     0.139 C 
HETATM   21  C   UNL     1     -42.503 -54.207  13.936  1.00  0.00     0.035 C 
HETATM   22  C   UNL     1     -43.957 -54.580  14.155  1.00  0.00     0.029 C 
HETATM   23  C   UNL     1     -44.731 -53.763  13.140  1.00  0.00     0.168 C 
HETATM   24  O   UNL     1     -43.778 -53.320  12.169  1.00  0.00    -0.384 OA
ENDBRANCH  19  20
ENDBRANCH  17  19
ENDBRANCH  13  15
ENDBRANCH   1  13
TORSDOF 7
ENDMDL
MODEL 8
REMARK VINA RESULT:      -5.5      3.324      5.676
REMARK  7 active torsions:
REMARK  status: ('A' for Active; 'I' for Inactive)
REMARK    1  A    between atoms: C_2  and  N_3 
REMARK    2  A    between atoms: C_2  and  C_15 
REMARK    3  A    between atoms: N_3  and  C_4 
REMARK    4  A    between atoms: C_4  and  C_6 
REMARK       I    between atoms: C_6  and  N_8 
REMARK    5  A    between atoms: N_8  and  C_9 
REMARK    6  A    between atoms: C_9  and  C_10 
REMARK    7  A    between atoms: C_15  and  N_17 
ROOT
HETATM    1  N   UNL     1     -43.147 -52.822  11.978  1.00  0.00     0.103 N 
HETATM    2  H   UNL     1     -42.620 -53.308  11.248  1.00  0.00     0.317 HD
ENDROOT
BRANCH   1   3
HETATM    3  C   UNL     1     -42.180 -52.055  12.804  1.00  0.00     0.241 C 
HETATM    4  C   UNL     1     -42.458 -50.548  12.704  1.00  0.00     0.045 C 
BRANCH   3   5
HETATM    5  C   UNL     1     -40.669 -52.430  12.644  1.00  0.00     0.136 C 
HETATM    6  C   UNL     1     -39.756 -51.220  12.411  1.00  0.00     0.036 C 
BRANCH   5   7
HETATM    7  N   UNL     1     -40.137 -53.220  13.755  1.00  0.00    -0.297 N 
HETATM    8  C   UNL     1     -40.120 -52.915  15.093  1.00  0.00     0.112 A 
HETATM    9  C   UNL     1     -39.529 -53.982  15.726  1.00  0.00     0.037 A 
HETATM   10  C   UNL     1     -39.174 -54.860  14.689  1.00  0.00     0.108 A 
HETATM   11  N   UNL     1     -39.512 -54.390  13.487  1.00  0.00    -0.310 N 
ATOM     12  HN  UNL     1     -39.340 -54.815  12.576  1.00  0.00     0.186 HD
ENDBRANCH   5   7
ENDBRANCH   3   5
ENDBRANCH   1   3
BRANCH   1  13
HETATM   13  C   UNL     1     -43.990 -53.849  12.649  1.00  0.00     0.308 C 
HETATM   14  C   UNL     1     -43.488 -54.341  14.004  1.00  0.00     0.053 C 
BRANCH  13  15
HETATM   15  C   UNL     1     -45.395 -53.255  12.894  1.00  0.00     0.250 C 
HETATM   16  O   UNL     1     -46.083 -52.799  11.982  1.00  0.00    -0.271 OA
HETATM   17  N   UNL     1     -45.834 -53.346  14.196  1.00  0.00    -0.357 N 
HETATM   18  H   UNL     1     -45.156 -53.647  14.893  1.00  0.00     0.162 HD
BRANCH  17  19
HETATM   19  C   UNL     1     -47.146 -52.905  14.628  1.00  0.00     0.154 C 
BRANCH  19  20
HETATM   20  C   UNL     1     -47.111 -51.611  15.443  1.00  0.00     0.139 C 
HETATM   21  C   UNL     1     -45.747 -51.198  15.974  1.00  0.00     0.035 C 
HETATM   22  C   UNL     1     -46.053 -50.497  17.284  1.00  0.00     0.029 C 
HETATM   23  C   UNL     1     -47.546 -50.662  17.482  1.00  0.00     0.168 C 
HETATM   24  O   UNL     1     -47.953 -51.718  16.606  1.00  0.00    -0.384 OA
ENDBRANCH  19  20
ENDBRANCH  17  19
ENDBRANCH  13  15
ENDBRANCH   1  13
TORSDOF 7
ENDMDL
MODEL 9
REMARK VINA RESULT:      -5.4      3.820      6.501
REMARK  7 active torsions:
REMARK  status: ('A' for Active; 'I' for Inactive)
REMARK    1  A    between atoms: C_2  and  N_3 
REMARK    2  A    between atoms: C_2  and  C_15 
REMARK    3  A    between atoms: N_3  and  C_4 
REMARK    4  A    between atoms: C_4  and  C_6 
REMARK       I    between atoms: C_6  and  N_8 
REMARK    5  A    between atoms: N_8  and  C_9 
REMARK    6  A    between atoms: C_9  and  C_10 
REMARK    7  A    between atoms: C_15  and  N_17 
ROOT
HETATM    1  N   UNL     1     -42.038 -54.186  12.795  1.00  0.00     0.103 N 
HETATM    2  H   UNL     1     -42.402 -54.560  11.915  1.00  0.00     0.317 HD
ENDROOT
BRANCH   1   3
HETATM    3  C   UNL     1     -43.165 -54.112  13.760  1.00  0.00     0.241 C 
HETATM    4  C   UNL     1     -42.877 -54.979  14.995  1.00  0.00     0.045 C 
BRANCH   3   5
HETATM    5  C   UNL     1     -44.603 -54.305  13.174  1.00  0.00     0.136 C 
HETATM    6  C   UNL     1     -45.369 -55.480  13.796  1.00  0.00     0.036 C 
BRANCH   5   7
HETATM    7  N   UNL     1     -45.435 -53.103  13.247  1.00  0.00    -0.297 N 
HETATM    8  C   UNL     1     -45.983 -52.506  14.354  1.00  0.00     0.112 A 
HETATM    9  C   UNL     1     -46.663 -51.401  13.901  1.00  0.00     0.037 A 
HETATM   10  C   UNL     1     -46.517 -51.440  12.505  1.00  0.00     0.108 A 
HETATM   11  N   UNL     1     -45.798 -52.488  12.097  1.00  0.00    -0.310 N 
ATOM     12  HN  UNL     1     -45.574 -52.761  11.141  1.00  0.00     0.186 HD
ENDBRANCH   5   7
ENDBRANCH   3   5
ENDBRANCH   1   3
BRANCH   1  13
HETATM   13  C   UNL     1     -41.315 -52.929  12.456  1.00  0.00     0.308 C 
HETATM   14  C   UNL     1     -42.156 -51.655  12.463  1.00  0.00     0.053 C 
BRANCH  13  15
HETATM   15  C   UNL     1     -40.187 -52.712  13.488  1.00  0.00     0.250 C 
HETATM   16  O   UNL     1     -39.116 -53.316  13.428  1.00  0.00    -0.271 OA
HETATM   17  N   UNL     1     -40.452 -51.742  14.428  1.00  0.00    -0.357 N 
HETATM   18  H   UNL     1     -41.399 -51.371  14.456  1.00  0.00     0.162 HD
BRANCH  17  19
HETATM   19  C   UNL     1     -39.503 -51.339  15.449  1.00  0.00     0.154 C 
BRANCH  19  20
HETATM   20  C   UNL     1     -38.913 -49.949  15.212  1.00  0.00     0.139 C 
HETATM   21  C   UNL     1     -39.904 -48.867  14.809  1.00  0.00     0.035 C 
HETATM   22  C   UNL     1     -39.107 -47.948  13.905  1.00  0.00     0.029 C 
HETATM   23  C   UNL     1     -37.758 -48.622  13.745  1.00  0.00     0.168 C 
HETATM   24  O   UNL     1     -37.939 -49.981  14.153  1.00  0.00    -0.384 OA
ENDBRANCH  19  20
ENDBRANCH  17  19
ENDBRANCH  13  15
ENDBRANCH   1  13
TORSDOF 7
ENDMDL
