MODEL 1
REMARK VINA RESULT:      -6.0      0.000      0.000
REMARK  4 active torsions:
REMARK  status: ('A' for Active; 'I' for Inactive)
REMARK    1  A    between atoms: C_2  and  C_3 
REMARK    2  A    between atoms: C_2  and  N_16 
REMARK       I    between atoms: C_3  and  N_5 
REMARK    3  A    between atoms: N_5  and  C_6 
REMARK    4  A    between atoms: C_10  and  S_12 
ROOT
HETATM    1  C   UNL     1     -41.809 -49.861  12.251  1.00  0.00     0.242 C 
HETATM    2  O   UNL     1     -42.060 -49.649  13.437  1.00  0.00    -0.271 OA
HETATM    3  N   UNL     1     -42.336 -49.075  11.239  1.00  0.00    -0.355 N 
HETATM    4  H   UNL     1     -41.837 -49.128  10.346  1.00  0.00     0.162 HD
ENDROOT
BRANCH   3   5
HETATM    5  C   UNL     1     -43.159 -47.907  11.527  1.00  0.00     0.085 C 
HETATM    6  C   UNL     1     -44.222 -47.691  10.444  1.00  0.00     0.025 C 
HETATM    7  C   UNL     1     -43.645 -47.140   9.142  1.00  0.00     0.003 C 
HETATM    8  C   UNL     1     -42.804 -45.889   9.378  1.00  0.00     0.020 C 
HETATM    9  C   UNL     1     -41.703 -46.134  10.417  1.00  0.00     0.110 C 
HETATM   10  C   UNL     1     -42.301 -46.652  11.728  1.00  0.00     0.045 C 
BRANCH   9  11
HETATM   11  S   UNL     1     -40.752 -44.624  10.676  1.00  0.00     0.144 S 
HETATM   12  O   UNL     1     -39.692 -44.591   9.686  1.00  0.00    -0.228 OA
HETATM   13  O   UNL     1     -41.677 -43.514  10.800  1.00  0.00    -0.228 OA
HETATM   14  C   UNL     1     -39.969 -44.857  12.256  1.00  0.00     0.161 C 
ENDBRANCH   9  11
ENDBRANCH   3   5
BRANCH   1  15
HETATM   15  C   UNL     1     -40.949 -51.038  11.780  1.00  0.00     0.195 C 
HETATM   16  C   UNL     1     -41.428 -52.336  12.439  1.00  0.00     0.044 C 
BRANCH  15  17
HETATM   17  N   UNL     1     -39.528 -50.758  11.983  1.00  0.00    -0.290 N 
HETATM   18  C   UNL     1     -38.721 -51.143  13.019  1.00  0.00     0.112 A 
HETATM   19  C   UNL     1     -37.465 -50.664  12.735  1.00  0.00     0.037 A 
HETATM   20  C   UNL     1     -37.598 -50.022  11.495  1.00  0.00     0.108 A 
HETATM   21  N   UNL     1     -38.846 -50.079  11.023  1.00  0.00    -0.309 N 
ATOM     22  HN  UNL     1     -39.205 -49.701  10.146  1.00  0.00     0.186 HD
ENDBRANCH  15  17
ENDBRANCH   1  15
TORSDOF 4
ENDMDL
MODEL 2
REMARK VINA RESULT:      -5.9      3.598      7.071
REMARK  4 active torsions:
REMARK  status: ('A' for Active; 'I' for Inactive)
REMARK    1  A    between atoms: C_2  and  C_3 
REMARK    2  A    between atoms: C_2  and  N_16 
REMARK       I    between atoms: C_3  and  N_5 
REMARK    3  A    between atoms: N_5  and  C_6 
REMARK    4  A    between atoms: C_10  and  S_12 
ROOT
HETATM    1  C   UNL     1     -42.189 -48.470  12.189  1.00  0.00     0.242 C 
HETATM    2  O   UNL     1     -42.498 -47.648  13.051  1.00  0.00    -0.271 OA
HETATM    3  N   UNL     1     -42.162 -49.830  12.450  1.00  0.00    -0.355 N 
HETATM    4  H   UNL     1     -42.203 -50.430  11.621  1.00  0.00     0.162 HD
ENDROOT
BRANCH   3   5
HETATM    5  C   UNL     1     -42.572 -50.371  13.740  1.00  0.00     0.085 C 
HETATM    6  C   UNL     1     -41.507 -51.309  14.318  1.00  0.00     0.025 C 
HETATM    7  C   UNL     1     -41.454 -52.660  13.610  1.00  0.00     0.003 C 
HETATM    8  C   UNL     1     -42.827 -53.322  13.546  1.00  0.00     0.020 C 
HETATM    9  C   UNL     1     -43.872 -52.398  12.908  1.00  0.00     0.110 C 
HETATM   10  C   UNL     1     -43.939 -51.062  13.652  1.00  0.00     0.045 C 
BRANCH   9  11
HETATM   11  S   UNL     1     -45.479 -53.216  12.874  1.00  0.00     0.144 S 
HETATM   12  O   UNL     1     -46.249 -52.636  11.789  1.00  0.00    -0.228 OA
HETATM   13  O   UNL     1     -45.268 -54.648  12.941  1.00  0.00    -0.228 OA
HETATM   14  C   UNL     1     -46.267 -52.711  14.387  1.00  0.00     0.161 C 
ENDBRANCH   9  11
ENDBRANCH   3   5
BRANCH   1  15
HETATM   15  C   UNL     1     -41.747 -48.070  10.778  1.00  0.00     0.195 C 
HETATM   16  C   UNL     1     -40.803 -46.865  10.845  1.00  0.00     0.044 C 
BRANCH  15  17
HETATM   17  N   UNL     1     -42.906 -47.869   9.908  1.00  0.00    -0.290 N 
HETATM   18  C   UNL     1     -44.174 -47.485  10.248  1.00  0.00     0.112 A 
HETATM   19  C   UNL     1     -44.887 -47.406   9.077  1.00  0.00     0.037 A 
HETATM   20  C   UNL     1     -43.964 -47.736   8.074  1.00  0.00     0.108 A 
HETATM   21  N   UNL     1     -42.753 -48.012   8.565  1.00  0.00    -0.309 N 
ATOM     22  HN  UNL     1     -41.910 -48.270   8.052  1.00  0.00     0.186 HD
ENDBRANCH  15  17
ENDBRANCH   1  15
TORSDOF 4
ENDMDL
MODEL 3
REMARK VINA RESULT:      -5.8      3.116      7.071
REMARK  4 active torsions:
REMARK  status: ('A' for Active; 'I' for Inactive)
REMARK    1  A    between atoms: C_2  and  C_3 
REMARK    2  A    between atoms: C_2  and  N_16 
REMARK       I    between atoms: C_3  and  N_5 
REMARK    3  A    between atoms: N_5  and  C_6 
REMARK    4  A    between atoms: C_10  and  S_12 
ROOT
HETATM    1  C   UNL     1     -42.949 -47.409  10.416  1.00  0.00     0.242 C 
HETATM    2  O   UNL     1     -42.894 -46.404  11.124  1.00  0.00    -0.271 OA
HETATM    3  N   UNL     1     -42.575 -48.657  10.886  1.00  0.00    -0.355 N 
HETATM    4  H   UNL     1     -42.943 -49.449  10.349  1.00  0.00     0.162 HD
ENDROOT
BRANCH   3   5
HETATM    5  C   UNL     1     -42.168 -48.865  12.270  1.00  0.00     0.085 C 
HETATM    6  C   UNL     1     -40.642 -48.906  12.403  1.00  0.00     0.025 C 
HETATM    7  C   UNL     1     -40.031 -50.204  11.882  1.00  0.00     0.003 C 
HETATM    8  C   UNL     1     -40.695 -51.432  12.499  1.00  0.00     0.020 C 
HETATM    9  C   UNL     1     -42.216 -51.412  12.304  1.00  0.00     0.110 C 
HETATM   10  C   UNL     1     -42.817 -50.120  12.865  1.00  0.00     0.045 C 
BRANCH   9  11
HETATM   11  S   UNL     1     -42.955 -52.869  13.067  1.00  0.00     0.144 S 
HETATM   12  O   UNL     1     -43.265 -52.539  14.446  1.00  0.00    -0.228 OA
HETATM   13  O   UNL     1     -43.986 -53.378  12.184  1.00  0.00    -0.228 OA
HETATM   14  C   UNL     1     -41.638 -54.065  13.111  1.00  0.00     0.161 C 
ENDBRANCH   9  11
ENDBRANCH   3   5
BRANCH   1  15
HETATM   15  C   UNL     1     -43.370 -47.367   8.944  1.00  0.00     0.195 C 
HETATM   16  C   UNL     1     -43.112 -45.973   8.362  1.00  0.00     0.044 C 
BRANCH  15  17
HETATM   17  N   UNL     1     -44.748 -47.831   8.784  1.00  0.00    -0.290 N 
HETATM   18  C   UNL     1     -45.822 -47.618   9.604  1.00  0.00     0.112 A 
HETATM   19  C   UNL     1     -46.899 -48.227   9.007  1.00  0.00     0.037 A 
HETATM   20  C   UNL     1     -46.390 -48.763   7.814  1.00  0.00     0.108 A 
HETATM   21  N   UNL     1     -45.085 -48.522   7.663  1.00  0.00    -0.309 N 
ATOM     22  HN  UNL     1     -44.480 -48.794   6.887  1.00  0.00     0.186 HD
ENDBRANCH  15  17
ENDBRANCH   1  15
TORSDOF 4
ENDMDL
MODEL 4
REMARK VINA RESULT:      -5.7      3.675      6.964
REMARK  4 active torsions:
REMARK  status: ('A' for Active; 'I' for Inactive)
REMARK    1  A    between atoms: C_2  and  C_3 
REMARK    2  A    between atoms: C_2  and  N_16 
REMARK       I    between atoms: C_3  and  N_5 
REMARK    3  A    between atoms: N_5  and  C_6 
REMARK    4  A    between atoms: C_10  and  S_12 
ROOT
HETATM    1  C   UNL     1     -40.155 -50.245  13.114  1.00  0.00     0.242 C 
HETATM    2  O   UNL     1     -39.682 -49.800  14.159  1.00  0.00    -0.271 OA
HETATM    3  N   UNL     1     -41.135 -51.224  13.113  1.00  0.00    -0.355 N 
HETATM    4  H   UNL     1     -41.671 -51.298  12.242  1.00  0.00     0.162 HD
ENDROOT
BRANCH   3   5
HETATM    5  C   UNL     1     -41.716 -51.729  14.351  1.00  0.00     0.085 C 
HETATM    6  C   UNL     1     -40.956 -52.955  14.867  1.00  0.00     0.025 C 
HETATM    7  C   UNL     1     -41.237 -54.217  14.056  1.00  0.00     0.003 C 
HETATM    8  C   UNL     1     -42.733 -54.485  13.921  1.00  0.00     0.020 C 
HETATM    9  C   UNL     1     -43.475 -53.273  13.345  1.00  0.00     0.110 C 
HETATM   10  C   UNL     1     -43.212 -52.024  14.190  1.00  0.00     0.045 C 
BRANCH   9  11
HETATM   11  S   UNL     1     -45.239 -53.630  13.226  1.00  0.00     0.144 S 
HETATM   12  O   UNL     1     -45.763 -52.905  12.083  1.00  0.00    -0.228 OA
HETATM   13  O   UNL     1     -45.426 -55.063  13.334  1.00  0.00    -0.228 OA
HETATM   14  C   UNL     1     -45.944 -52.879  14.676  1.00  0.00     0.161 C 
ENDBRANCH   9  11
ENDBRANCH   3   5
BRANCH   1  15
HETATM   15  C   UNL     1     -39.667 -49.811  11.729  1.00  0.00     0.195 C 
HETATM   16  C   UNL     1     -38.154 -49.572  11.756  1.00  0.00     0.044 C 
BRANCH  15  17
HETATM   17  N   UNL     1     -40.440 -48.671  11.238  1.00  0.00    -0.290 N 
HETATM   18  C   UNL     1     -40.247 -47.339  11.484  1.00  0.00     0.112 A 
HETATM   19  C   UNL     1     -41.211 -46.665  10.773  1.00  0.00     0.037 A 
HETATM   20  C   UNL     1     -41.928 -47.669  10.105  1.00  0.00     0.108 A 
HETATM   21  N   UNL     1     -41.465 -48.893  10.373  1.00  0.00    -0.309 N 
ATOM     22  HN  UNL     1     -41.802 -49.786  10.013  1.00  0.00     0.186 HD
ENDBRANCH  15  17
ENDBRANCH   1  15
TORSDOF 4
ENDMDL
MODEL 5
REMARK VINA RESULT:      -5.6      4.441      7.038
REMARK  4 active torsions:
REMARK  status: ('A' for Active; 'I' for Inactive)
REMARK    1  A    between atoms: C_2  and  C_3 
REMARK    2  A    between atoms: C_2  and  N_16 
REMARK       I    between atoms: C_3  and  N_5 
REMARK    3  A    between atoms: N_5  and  C_6 
REMARK    4  A    between atoms: C_10  and  S_12 
ROOT
HETATM    1  C   UNL     1     -41.666 -51.557  12.140  1.00  0.00     0.242 C 
HETATM    2  O   UNL     1     -41.095 -52.470  11.545  1.00  0.00    -0.271 OA
HETATM    3  N   UNL     1     -42.955 -51.695  12.628  1.00  0.00    -0.355 N 
HETATM    4  H   UNL     1     -43.216 -51.022  13.356  1.00  0.00     0.162 HD
ENDROOT
BRANCH   3   5
HETATM    5  C   UNL     1     -43.680 -52.957  12.533  1.00  0.00     0.085 C 
HETATM    6  C   UNL     1     -45.195 -52.730  12.492  1.00  0.00     0.025 C 
HETATM    7  C   UNL     1     -45.777 -52.336  13.847  1.00  0.00     0.003 C 
HETATM    8  C   UNL     1     -45.372 -53.316  14.945  1.00  0.00     0.020 C 
HETATM    9  C   UNL     1     -43.850 -53.487  15.019  1.00  0.00     0.110 C 
HETATM   10  C   UNL     1     -43.287 -53.917  13.662  1.00  0.00     0.045 C 
BRANCH   9  11
HETATM   11  S   UNL     1     -43.425 -54.667  16.314  1.00  0.00     0.144 S 
HETATM   12  O   UNL     1     -44.516 -54.690  17.270  1.00  0.00    -0.228 OA
HETATM   13  O   UNL     1     -42.972 -55.894  15.687  1.00  0.00    -0.228 OA
HETATM   14  C   UNL     1     -42.032 -53.935  17.144  1.00  0.00     0.161 C 
ENDBRANCH   9  11
ENDBRANCH   3   5
BRANCH   1  15
HETATM   15  C   UNL     1     -41.040 -50.173  12.339  1.00  0.00     0.195 C 
HETATM   16  C   UNL     1     -41.687 -49.162  11.387  1.00  0.00     0.044 C 
BRANCH  15  17
HETATM   17  N   UNL     1     -39.583 -50.242  12.233  1.00  0.00    -0.290 N 
HETATM   18  C   UNL     1     -38.674 -50.623  13.182  1.00  0.00     0.112 A 
HETATM   19  C   UNL     1     -37.436 -50.551  12.591  1.00  0.00     0.037 A 
HETATM   20  C   UNL     1     -37.693 -50.141  11.274  1.00  0.00     0.108 A 
HETATM   21  N   UNL     1     -38.995 -49.957  11.041  1.00  0.00    -0.309 N 
ATOM     22  HN  UNL     1     -39.444 -49.669  10.171  1.00  0.00     0.186 HD
ENDBRANCH  15  17
ENDBRANCH   1  15
TORSDOF 4
ENDMDL
MODEL 6
REMARK VINA RESULT:      -5.6      4.749      7.324
REMARK  4 active torsions:
REMARK  status: ('A' for Active; 'I' for Inactive)
REMARK    1  A    between atoms: C_2  and  C_3 
REMARK    2  A    between atoms: C_2  and  N_16 
REMARK       I    between atoms: C_3  and  N_5 
REMARK    3  A    between atoms: N_5  and  C_6 
REMARK    4  A    between atoms: C_10  and  S_12 
ROOT
HETATM    1  C   UNL     1     -45.153 -53.621  13.209  1.00  0.00     0.242 C 
HETATM    2  O   UNL     1     -45.220 -54.832  13.004  1.00  0.00    -0.271 OA
HETATM    3  N   UNL     1     -43.941 -52.949  13.240  1.00  0.00    -0.355 N 
HETATM    4  H   UNL     1     -44.005 -51.936  13.104  1.00  0.00     0.162 HD
ENDROOT
BRANCH   3   5
HETATM    5  C   UNL     1     -42.682 -53.628  12.958  1.00  0.00     0.085 C 
HETATM    6  C   UNL     1     -42.085 -54.249  14.225  1.00  0.00     0.025 C 
HETATM    7  C   UNL     1     -41.478 -53.214  15.169  1.00  0.00     0.003 C 
HETATM    8  C   UNL     1     -40.484 -52.305  14.452  1.00  0.00     0.020 C 
HETATM    9  C   UNL     1     -41.111 -51.639  13.221  1.00  0.00     0.110 C 
HETATM   10  C   UNL     1     -41.682 -52.692  12.268  1.00  0.00     0.045 C 
BRANCH   9  11
HETATM   11  S   UNL     1     -39.894 -50.594  12.398  1.00  0.00     0.144 S 
HETATM   12  O   UNL     1     -38.643 -51.327  12.344  1.00  0.00    -0.228 OA
HETATM   13  O   UNL     1     -40.487 -50.065  11.185  1.00  0.00    -0.228 OA
HETATM   14  C   UNL     1     -39.643 -49.235  13.517  1.00  0.00     0.161 C 
ENDBRANCH   9  11
ENDBRANCH   3   5
BRANCH   1  15
HETATM   15  C   UNL     1     -46.383 -52.758  13.507  1.00  0.00     0.195 C 
HETATM   16  C   UNL     1     -46.358 -51.491  12.645  1.00  0.00     0.044 C 
BRANCH  15  17
HETATM   17  N   UNL     1     -46.500 -52.498  14.942  1.00  0.00    -0.290 N 
HETATM   18  C   UNL     1     -47.085 -51.434  15.572  1.00  0.00     0.112 A 
HETATM   19  C   UNL     1     -46.968 -51.665  16.921  1.00  0.00     0.037 A 
HETATM   20  C   UNL     1     -46.319 -52.905  17.016  1.00  0.00     0.108 A 
HETATM   21  N   UNL     1     -46.036 -53.426  15.820  1.00  0.00    -0.309 N 
ATOM     22  HN  UNL     1     -45.578 -54.314  15.612  1.00  0.00     0.186 HD
ENDBRANCH  15  17
ENDBRANCH   1  15
TORSDOF 4
ENDMDL
MODEL 7
REMARK VINA RESULT:      -5.6      4.645      7.460
REMARK  4 active torsions:
REMARK  status: ('A' for Active; 'I' for Inactive)
REMARK    1  A    between atoms: C_2  and  C_3 
REMARK    2  A    between atoms: C_2  and  N_16 
REMARK       I    between atoms: C_3  and  N_5 
REMARK    3  A    between atoms: N_5  and  C_6 
REMARK    4  A    between atoms: C_10  and  S_12 
ROOT
HETATM    1  C   UNL     1     -42.570 -51.178  12.547  1.00  0.00     0.242 C 
HETATM    2  O   UNL     1     -42.095 -52.177  12.008  1.00  0.00    -0.271 OA
HETATM    3  N   UNL     1     -43.885 -51.136  12.981  1.00  0.00    -0.355 N 
HETATM    4  H   UNL     1     -44.088 -50.409  13.674  1.00  0.00     0.162 HD
ENDROOT
BRANCH   3   5
HETATM    5  C   UNL     1     -44.759 -52.300  12.894  1.00  0.00     0.085 C 
HETATM    6  C   UNL     1     -46.235 -51.890  12.874  1.00  0.00     0.025 C 
HETATM    7  C   UNL     1     -46.747 -51.433  14.238  1.00  0.00     0.003 C 
HETATM    8  C   UNL     1     -46.450 -52.458  15.329  1.00  0.00     0.020 C 
HETATM    9  C   UNL     1     -44.959 -52.813  15.382  1.00  0.00     0.110 C 
HETATM   10  C   UNL     1     -44.470 -53.304  14.016  1.00  0.00     0.045 C 
BRANCH   9  11
HETATM   11  S   UNL     1     -44.662 -54.040  16.669  1.00  0.00     0.144 S 
HETATM   12  O   UNL     1     -45.951 -54.475  17.173  1.00  0.00    -0.228 OA
HETATM   13  O   UNL     1     -43.705 -55.008  16.170  1.00  0.00    -0.228 OA
HETATM   14  C   UNL     1     -43.881 -53.129  17.981  1.00  0.00     0.161 C 
ENDBRANCH   9  11
ENDBRANCH   3   5
BRANCH   1  15
HETATM   15  C   UNL     1     -41.782 -49.877  12.729  1.00  0.00     0.195 C 
HETATM   16  C   UNL     1     -41.803 -49.453  14.202  1.00  0.00     0.044 C 
BRANCH  15  17
HETATM   17  N   UNL     1     -42.259 -48.847  11.807  1.00  0.00    -0.290 N 
HETATM   18  C   UNL     1     -43.006 -47.734  12.082  1.00  0.00     0.112 A 
HETATM   19  C   UNL     1     -43.166 -47.066  10.893  1.00  0.00     0.037 A 
HETATM   20  C   UNL     1     -42.459 -47.833   9.954  1.00  0.00     0.108 A 
HETATM   21  N   UNL     1     -41.897 -48.915  10.499  1.00  0.00    -0.309 N 
ATOM     22  HN  UNL     1     -41.328 -49.627  10.041  1.00  0.00     0.186 HD
ENDBRANCH  15  17
ENDBRANCH   1  15
TORSDOF 4
ENDMDL
MODEL 8
REMARK VINA RESULT:      -5.6      2.940      5.052
REMARK  4 active torsions:
REMARK  status: ('A' for Active; 'I' for Inactive)
REMARK    1  A    between atoms: C_2  and  C_3 
REMARK    2  A    between atoms: C_2  and  N_16 
REMARK       I    between atoms: C_3  and  N_5 
REMARK    3  A    between atoms: N_5  and  C_6 
REMARK    4  A    between atoms: C_10  and  S_12 
ROOT
HETATM    1  C   UNL     1     -40.658 -52.695  13.104  1.00  0.00     0.242 C 
HETATM    2  O   UNL     1     -40.410 -53.406  12.132  1.00  0.00    -0.271 OA
HETATM    3  N   UNL     1     -40.146 -51.414  13.225  1.00  0.00    -0.355 N 
HETATM    4  H   UNL     1     -40.645 -50.809  13.884  1.00  0.00     0.162 HD
ENDROOT
BRANCH   3   5
HETATM    5  C   UNL     1     -39.344 -50.807  12.169  1.00  0.00     0.085 C 
HETATM    6  C   UNL     1     -38.095 -50.126  12.737  1.00  0.00     0.025 C 
HETATM    7  C   UNL     1     -38.403 -48.812  13.451  1.00  0.00     0.003 C 
HETATM    8  C   UNL     1     -39.224 -47.869  12.576  1.00  0.00     0.020 C 
HETATM    9  C   UNL     1     -40.504 -48.541  12.065  1.00  0.00     0.110 C 
HETATM   10  C   UNL     1     -40.174 -49.837  11.319  1.00  0.00     0.045 C 
BRANCH   9  11
HETATM   11  S   UNL     1     -41.427 -47.396  11.021  1.00  0.00     0.144 S 
HETATM   12  O   UNL     1     -40.538 -46.306  10.664  1.00  0.00    -0.228 OA
HETATM   13  O   UNL     1     -42.105 -48.158   9.990  1.00  0.00    -0.228 OA
HETATM   14  C   UNL     1     -42.668 -46.713  12.097  1.00  0.00     0.161 C 
ENDBRANCH   9  11
ENDBRANCH   3   5
BRANCH   1  15
HETATM   15  C   UNL     1     -41.497 -53.175  14.293  1.00  0.00     0.195 C 
HETATM   16  C   UNL     1     -40.689 -54.162  15.142  1.00  0.00     0.044 C 
BRANCH  15  17
HETATM   17  N   UNL     1     -42.787 -53.695  13.843  1.00  0.00    -0.290 N 
HETATM   18  C   UNL     1     -43.690 -54.455  14.536  1.00  0.00     0.112 A 
HETATM   19  C   UNL     1     -44.757 -54.660  13.695  1.00  0.00     0.037 A 
HETATM   20  C   UNL     1     -44.425 -53.966  12.521  1.00  0.00     0.108 A 
HETATM   21  N   UNL     1     -43.233 -53.369  12.602  1.00  0.00    -0.309 N 
ATOM     22  HN  UNL     1     -42.765 -52.800  11.895  1.00  0.00     0.186 HD
ENDBRANCH  15  17
ENDBRANCH   1  15
TORSDOF 4
ENDMDL
MODEL 9
REMARK VINA RESULT:      -5.4      4.432      6.763
REMARK  4 active torsions:
REMARK  status: ('A' for Active; 'I' for Inactive)
REMARK    1  A    between atoms: C_2  and  C_3 
REMARK    2  A    between atoms: C_2  and  N_16 
REMARK       I    between atoms: C_3  and  N_5 
REMARK    3  A    between atoms: N_5  and  C_6 
REMARK    4  A    between atoms: C_10  and  S_12 
ROOT
HETATM    1  C   UNL     1     -42.131 -51.168  12.384  1.00  0.00     0.242 C 
HETATM    2  O   UNL     1     -41.578 -52.132  11.857  1.00  0.00    -0.271 OA
HETATM    3  N   UNL     1     -43.413 -51.251  12.902  1.00  0.00    -0.355 N 
HETATM    4  H   UNL     1     -43.654 -50.519  13.577  1.00  0.00     0.162 HD
ENDROOT
BRANCH   3   5
HETATM    5  C   UNL     1     -44.152 -52.507  12.920  1.00  0.00     0.085 C 
HETATM    6  C   UNL     1     -45.551 -52.341  12.317  1.00  0.00     0.025 C 
HETATM    7  C   UNL     1     -46.515 -51.599  13.240  1.00  0.00     0.003 C 
HETATM    8  C   UNL     1     -46.559 -52.220  14.633  1.00  0.00     0.020 C 
HETATM    9  C   UNL     1     -45.160 -52.323  15.252  1.00  0.00     0.110 C 
HETATM   10  C   UNL     1     -44.216 -53.102  14.331  1.00  0.00     0.045 C 
BRANCH   9  11
HETATM   11  S   UNL     1     -45.263 -53.082  16.885  1.00  0.00     0.144 S 
HETATM   12  O   UNL     1     -46.334 -52.427  17.613  1.00  0.00    -0.228 OA
HETATM   13  O   UNL     1     -45.259 -54.523  16.724  1.00  0.00    -0.228 OA
HETATM   14  C   UNL     1     -43.743 -52.621  17.687  1.00  0.00     0.161 C 
ENDBRANCH   9  11
ENDBRANCH   3   5
BRANCH   1  15
HETATM   15  C   UNL     1     -41.486 -49.780  12.462  1.00  0.00     0.195 C 
HETATM   16  C   UNL     1     -42.121 -48.847  11.426  1.00  0.00     0.044 C 
BRANCH  15  17
HETATM   17  N   UNL     1     -40.030 -49.876  12.362  1.00  0.00    -0.290 N 
HETATM   18  C   UNL     1     -39.109 -49.967  13.369  1.00  0.00     0.112 A 
HETATM   19  C   UNL     1     -37.878 -50.069  12.767  1.00  0.00     0.037 A 
HETATM   20  C   UNL     1     -38.152 -50.056  11.391  1.00  0.00     0.108 A 
HETATM   21  N   UNL     1     -39.458 -49.947  11.131  1.00  0.00    -0.309 N 
ATOM     22  HN  UNL     1     -39.919 -49.922  10.221  1.00  0.00     0.186 HD
ENDBRANCH  15  17
ENDBRANCH   1  15
TORSDOF 4
ENDMDL
