MODEL 1
REMARK VINA RESULT:      -6.0      0.000      0.000
REMARK  3 active torsions:
REMARK  status: ('A' for Active; 'I' for Inactive)
REMARK    1  A    between atoms: C_2  and  N_4 
REMARK    2  A    between atoms: C_7  and  N_8 
REMARK       I    between atoms: N_8  and  C_9 
REMARK       I    between atoms: C_9  and  N_11 
REMARK    3  A    between atoms: N_11  and  C_12 
ROOT
HETATM    1  N   UNL     1     -43.381 -49.691  12.550  1.00  0.00    -0.330 N 
HETATM    2  C   UNL     1     -43.778 -50.774  13.279  1.00  0.00     0.321 C 
HETATM    3  O   UNL     1     -43.342 -51.013  14.401  1.00  0.00    -0.247 OA
HETATM    4  N   UNL     1     -44.716 -51.538  12.625  1.00  0.00    -0.306 N 
HETATM    5  H   UNL     1     -43.637 -49.657  11.571  1.00  0.00     0.165 HD
HETATM    6  H   UNL     1     -44.562 -51.637  11.629  1.00  0.00     0.171 HD
ENDROOT
BRANCH   1   7
HETATM    7  C   UNL     1     -42.242 -48.875  12.951  1.00  0.00     0.180 C 
HETATM    8  C   UNL     1     -42.555 -47.699  13.869  1.00  0.00     0.055 C 
HETATM    9  C   UNL     1     -42.908 -46.570  12.926  1.00  0.00     0.129 C 
HETATM   10  N   UNL     1     -42.175 -46.851  11.711  1.00  0.00    -0.346 N 
HETATM   11  C   UNL     1     -41.754 -48.185  11.675  1.00  0.00     0.243 C 
HETATM   12  O   UNL     1     -41.282 -48.766  10.706  1.00  0.00    -0.271 OA
BRANCH  10  13
HETATM   13  C   UNL     1     -42.436 -46.123  10.466  1.00  0.00     0.079 C 
HETATM   14  C   UNL     1     -43.698 -46.661   9.777  1.00  0.00     0.032 C 
HETATM   15  C   UNL     1     -42.559 -44.613  10.672  1.00  0.00     0.032 C 
ENDBRANCH  10  13
ENDBRANCH   1   7
BRANCH   4  16
HETATM   16  C   UNL     1     -45.322 -52.648  13.259  1.00  0.00     0.077 A 
HETATM   17  C   UNL     1     -44.812 -53.939  13.129  1.00  0.00     0.050 A 
HETATM   18  C   UNL     1     -45.479 -54.975  13.763  1.00  0.00     0.090 A 
HETATM   19  N   UNL     1     -46.607 -54.810  14.492  1.00  0.00    -0.372 N 
HETATM   20  C   UNL     1     -47.077 -53.545  14.601  1.00  0.00     0.132 A 
ATOM     21  HN  UNL     1     -47.078 -55.598  14.937  1.00  0.00     0.164 HD
HETATM   22  C   UNL     1     -46.456 -52.445  14.032  1.00  0.00     0.158 A 
HETATM   23  F   UNL     1     -46.983 -51.220  14.169  1.00  0.00    -0.202 F 
ENDBRANCH   4  16
TORSDOF 3
ENDMDL
MODEL 2
REMARK VINA RESULT:      -5.7      2.376      7.414
REMARK  3 active torsions:
REMARK  status: ('A' for Active; 'I' for Inactive)
REMARK    1  A    between atoms: C_2  and  N_4 
REMARK    2  A    between atoms: C_7  and  N_8 
REMARK       I    between atoms: N_8  and  C_9 
REMARK       I    between atoms: C_9  and  N_11 
REMARK    3  A    between atoms: N_11  and  C_12 
ROOT
HETATM    1  N   UNL     1     -43.493 -50.551  12.726  1.00  0.00    -0.330 N 
HETATM    2  C   UNL     1     -43.062 -49.279  12.483  1.00  0.00     0.321 C 
HETATM    3  O   UNL     1     -43.319 -48.340  13.228  1.00  0.00    -0.247 OA
HETATM    4  N   UNL     1     -42.309 -49.185  11.335  1.00  0.00    -0.306 N 
HETATM    5  H   UNL     1     -43.404 -51.233  11.983  1.00  0.00     0.165 HD
HETATM    6  H   UNL     1     -42.636 -49.756  10.566  1.00  0.00     0.171 HD
ENDROOT
BRANCH   1   7
HETATM    7  C   UNL     1     -44.482 -50.841  13.756  1.00  0.00     0.180 C 
HETATM    8  C   UNL     1     -43.939 -51.018  15.170  1.00  0.00     0.055 C 
HETATM    9  C   UNL     1     -43.571 -52.484  15.249  1.00  0.00     0.129 C 
HETATM   10  N   UNL     1     -44.463 -53.146  14.322  1.00  0.00    -0.346 N 
HETATM   11  C   UNL     1     -45.030 -52.231  13.429  1.00  0.00     0.243 C 
HETATM   12  O   UNL     1     -45.670 -52.507  12.422  1.00  0.00    -0.271 OA
BRANCH  10  13
HETATM   13  C   UNL     1     -44.265 -54.543  13.924  1.00  0.00     0.079 C 
HETATM   14  C   UNL     1     -43.237 -55.226  14.836  1.00  0.00     0.032 C 
HETATM   15  C   UNL     1     -45.564 -55.348  13.911  1.00  0.00     0.032 C 
ENDBRANCH  10  13
ENDBRANCH   1   7
BRANCH   4  16
HETATM   16  C   UNL     1     -41.691 -47.967  10.968  1.00  0.00     0.077 A 
HETATM   17  C   UNL     1     -40.390 -47.654  11.359  1.00  0.00     0.050 A 
HETATM   18  C   UNL     1     -39.866 -46.429  10.977  1.00  0.00     0.090 A 
HETATM   19  N   UNL     1     -40.549 -45.511  10.255  1.00  0.00    -0.372 N 
HETATM   20  C   UNL     1     -41.809 -45.844   9.889  1.00  0.00     0.132 A 
ATOM     21  HN  UNL     1     -40.135 -44.614  10.000  1.00  0.00     0.164 HD
HETATM   22  C   UNL     1     -42.400 -47.059  10.195  1.00  0.00     0.158 A 
HETATM   23  F   UNL     1     -43.658 -47.320   9.810  1.00  0.00    -0.202 F 
ENDBRANCH   4  16
TORSDOF 3
ENDMDL
MODEL 3
REMARK VINA RESULT:      -5.6      3.877      4.437
REMARK  3 active torsions:
REMARK  status: ('A' for Active; 'I' for Inactive)
REMARK    1  A    between atoms: C_2  and  N_4 
REMARK    2  A    between atoms: C_7  and  N_8 
REMARK       I    between atoms: N_8  and  C_9 
REMARK       I    between atoms: C_9  and  N_11 
REMARK    3  A    between atoms: N_11  and  C_12 
ROOT
HETATM    1  N   UNL     1     -42.113 -48.966  11.028  1.00  0.00    -0.330 N 
HETATM    2  C   UNL     1     -41.884 -49.960  11.934  1.00  0.00     0.321 C 
HETATM    3  O   UNL     1     -42.600 -50.141  12.914  1.00  0.00    -0.247 OA
HETATM    4  N   UNL     1     -40.786 -50.725  11.615  1.00  0.00    -0.306 N 
HETATM    5  H   UNL     1     -41.386 -48.759  10.355  1.00  0.00     0.165 HD
HETATM    6  H   UNL     1     -40.005 -50.206  11.235  1.00  0.00     0.171 HD
ENDROOT
BRANCH   1   7
HETATM    7  C   UNL     1     -43.081 -47.906  11.282  1.00  0.00     0.180 C 
HETATM    8  C   UNL     1     -43.603 -47.171  10.052  1.00  0.00     0.055 C 
HETATM    9  C   UNL     1     -42.597 -46.064   9.823  1.00  0.00     0.129 C 
HETATM   10  N   UNL     1     -42.055 -45.771  11.131  1.00  0.00    -0.346 N 
HETATM   11  C   UNL     1     -42.316 -46.812  12.029  1.00  0.00     0.243 C 
HETATM   12  O   UNL     1     -41.828 -46.942  13.145  1.00  0.00    -0.271 OA
BRANCH  10  13
HETATM   13  C   UNL     1     -40.873 -44.922  11.305  1.00  0.00     0.079 C 
HETATM   14  C   UNL     1     -39.797 -45.273  10.269  1.00  0.00     0.032 C 
HETATM   15  C   UNL     1     -41.195 -43.429  11.237  1.00  0.00     0.032 C 
ENDBRANCH  10  13
ENDBRANCH   1   7
BRANCH   4  16
HETATM   16  C   UNL     1     -40.445 -51.865  12.381  1.00  0.00     0.077 A 
HETATM   17  C   UNL     1     -41.081 -53.092  12.198  1.00  0.00     0.050 A 
HETATM   18  C   UNL     1     -40.704 -54.153  13.006  1.00  0.00     0.090 A 
HETATM   19  N   UNL     1     -39.762 -54.065  13.972  1.00  0.00    -0.372 N 
HETATM   20  C   UNL     1     -39.161 -52.862  14.124  1.00  0.00     0.132 A 
ATOM     21  HN  UNL     1     -39.516 -54.865  14.556  1.00  0.00     0.164 HD
HETATM   22  C   UNL     1     -39.448 -51.757  13.339  1.00  0.00     0.158 A 
HETATM   23  F   UNL     1     -38.823 -50.590  13.552  1.00  0.00    -0.202 F 
ENDBRANCH   4  16
TORSDOF 3
ENDMDL
MODEL 4
REMARK VINA RESULT:      -5.5      2.158      7.033
REMARK  3 active torsions:
REMARK  status: ('A' for Active; 'I' for Inactive)
REMARK    1  A    between atoms: C_2  and  N_4 
REMARK    2  A    between atoms: C_7  and  N_8 
REMARK       I    between atoms: N_8  and  C_9 
REMARK       I    between atoms: C_9  and  N_11 
REMARK    3  A    between atoms: N_11  and  C_12 
ROOT
HETATM    1  N   UNL     1     -42.463 -51.096  12.136  1.00  0.00    -0.330 N 
HETATM    2  C   UNL     1     -42.053 -49.798  12.220  1.00  0.00     0.321 C 
HETATM    3  O   UNL     1     -41.542 -49.330  13.233  1.00  0.00    -0.247 OA
HETATM    4  N   UNL     1     -42.265 -49.098  11.055  1.00  0.00    -0.306 N 
HETATM    5  H   UNL     1     -43.039 -51.363  11.347  1.00  0.00     0.165 HD
HETATM    6  H   UNL     1     -43.132 -49.318  10.581  1.00  0.00     0.171 HD
ENDROOT
BRANCH   1   7
HETATM    7  C   UNL     1     -42.539 -51.954  13.312  1.00  0.00     0.180 C 
HETATM    8  C   UNL     1     -42.497 -53.455  13.047  1.00  0.00     0.055 C 
HETATM    9  C   UNL     1     -43.941 -53.832  12.799  1.00  0.00     0.129 C 
HETATM   10  N   UNL     1     -44.716 -52.870  13.551  1.00  0.00    -0.346 N 
HETATM   11  C   UNL     1     -43.943 -51.753  13.885  1.00  0.00     0.243 C 
HETATM   12  O   UNL     1     -44.361 -50.699  14.349  1.00  0.00    -0.271 OA
BRANCH  10  13
HETATM   13  C   UNL     1     -46.166 -52.742  13.379  1.00  0.00     0.079 C 
HETATM   14  C   UNL     1     -46.850 -52.475  14.727  1.00  0.00     0.032 C 
HETATM   15  C   UNL     1     -46.554 -51.657  12.375  1.00  0.00     0.032 C 
ENDBRANCH  10  13
ENDBRANCH   1   7
BRANCH   4  16
HETATM   16  C   UNL     1     -41.816 -47.764  10.914  1.00  0.00     0.077 A 
HETATM   17  C   UNL     1     -40.467 -47.427  11.015  1.00  0.00     0.050 A 
HETATM   18  C   UNL     1     -40.114 -46.093  10.889  1.00  0.00     0.090 A 
HETATM   19  N   UNL     1     -41.003 -45.094  10.685  1.00  0.00    -0.372 N 
HETATM   20  C   UNL     1     -42.305 -45.453  10.590  1.00  0.00     0.132 A 
ATOM     21  HN  UNL     1     -40.708 -44.120  10.607  1.00  0.00     0.164 HD
HETATM   22  C   UNL     1     -42.746 -46.764  10.668  1.00  0.00     0.158 A 
HETATM   23  F   UNL     1     -44.053 -47.049  10.578  1.00  0.00    -0.202 F 
ENDBRANCH   4  16
TORSDOF 3
ENDMDL
MODEL 5
REMARK VINA RESULT:      -5.4      2.472      2.958
REMARK  3 active torsions:
REMARK  status: ('A' for Active; 'I' for Inactive)
REMARK    1  A    between atoms: C_2  and  N_4 
REMARK    2  A    between atoms: C_7  and  N_8 
REMARK       I    between atoms: N_8  and  C_9 
REMARK       I    between atoms: C_9  and  N_11 
REMARK    3  A    between atoms: N_11  and  C_12 
ROOT
HETATM    1  N   UNL     1     -40.672 -50.980  13.093  1.00  0.00    -0.330 N 
HETATM    2  C   UNL     1     -41.744 -51.783  12.833  1.00  0.00     0.321 C 
HETATM    3  O   UNL     1     -41.880 -52.380  11.770  1.00  0.00    -0.247 OA
HETATM    4  N   UNL     1     -42.624 -51.852  13.888  1.00  0.00    -0.306 N 
HETATM    5  H   UNL     1     -40.716 -50.378  13.906  1.00  0.00     0.165 HD
HETATM    6  H   UNL     1     -42.763 -50.979  14.380  1.00  0.00     0.171 HD
ENDROOT
BRANCH   1   7
HETATM    7  C   UNL     1     -39.737 -50.587  12.047  1.00  0.00     0.180 C 
HETATM    8  C   UNL     1     -38.326 -50.241  12.510  1.00  0.00     0.055 C 
HETATM    9  C   UNL     1     -38.397 -48.771  12.862  1.00  0.00     0.129 C 
HETATM   10  N   UNL     1     -39.440 -48.232  12.018  1.00  0.00    -0.346 N 
HETATM   11  C   UNL     1     -40.251 -49.251  11.507  1.00  0.00     0.243 C 
HETATM   12  O   UNL     1     -41.316 -49.101  10.922  1.00  0.00    -0.271 OA
BRANCH  10  13
HETATM   13  C   UNL     1     -39.985 -46.887  12.227  1.00  0.00     0.079 C 
HETATM   14  C   UNL     1     -39.296 -46.201  13.414  1.00  0.00     0.032 C 
HETATM   15  C   UNL     1     -39.883 -46.003  10.984  1.00  0.00     0.032 C 
ENDBRANCH  10  13
ENDBRANCH   1   7
BRANCH   4  16
HETATM   16  C   UNL     1     -43.746 -52.712  13.845  1.00  0.00     0.077 A 
HETATM   17  C   UNL     1     -43.649 -54.065  14.171  1.00  0.00     0.050 A 
HETATM   18  C   UNL     1     -44.791 -54.844  14.081  1.00  0.00     0.090 A 
HETATM   19  N   UNL     1     -45.995 -54.373  13.683  1.00  0.00    -0.372 N 
HETATM   20  C   UNL     1     -46.058 -53.055  13.376  1.00  0.00     0.132 A 
ATOM     21  HN  UNL     1     -46.814 -54.978  13.618  1.00  0.00     0.164 HD
HETATM   22  C   UNL     1     -44.977 -52.195  13.471  1.00  0.00     0.158 A 
HETATM   23  F   UNL     1     -45.105 -50.902  13.139  1.00  0.00    -0.202 F 
ENDBRANCH   4  16
TORSDOF 3
ENDMDL
MODEL 6
REMARK VINA RESULT:      -4.9      1.610      2.601
REMARK  3 active torsions:
REMARK  status: ('A' for Active; 'I' for Inactive)
REMARK    1  A    between atoms: C_2  and  N_4 
REMARK    2  A    between atoms: C_7  and  N_8 
REMARK       I    between atoms: N_8  and  C_9 
REMARK       I    between atoms: C_9  and  N_11 
REMARK    3  A    between atoms: N_11  and  C_12 
ROOT
HETATM    1  N   UNL     1     -43.377 -49.397  13.084  1.00  0.00    -0.330 N 
HETATM    2  C   UNL     1     -43.934 -50.445  13.756  1.00  0.00     0.321 C 
HETATM    3  O   UNL     1     -44.019 -50.477  14.979  1.00  0.00    -0.247 OA
HETATM    4  N   UNL     1     -44.392 -51.432  12.913  1.00  0.00    -0.306 N 
HETATM    5  H   UNL     1     -43.172 -49.518  12.100  1.00  0.00     0.165 HD
HETATM    6  H   UNL     1     -43.801 -51.611  12.111  1.00  0.00     0.171 HD
ENDROOT
BRANCH   1   7
HETATM    7  C   UNL     1     -42.632 -48.352  13.777  1.00  0.00     0.180 C 
HETATM    8  C   UNL     1     -42.574 -47.000  13.075  1.00  0.00     0.055 C 
HETATM    9  C   UNL     1     -41.377 -47.107  12.155  1.00  0.00     0.129 C 
HETATM   10  N   UNL     1     -40.490 -48.050  12.799  1.00  0.00    -0.346 N 
HETATM   11  C   UNL     1     -41.170 -48.802  13.763  1.00  0.00     0.243 C 
HETATM   12  O   UNL     1     -40.743 -49.797  14.336  1.00  0.00    -0.271 OA
BRANCH  10  13
HETATM   13  C   UNL     1     -39.327 -48.613  12.107  1.00  0.00     0.079 C 
HETATM   14  C   UNL     1     -38.147 -48.775  13.075  1.00  0.00     0.032 C 
HETATM   15  C   UNL     1     -39.627 -49.948  11.425  1.00  0.00     0.032 C 
ENDBRANCH  10  13
ENDBRANCH   1   7
BRANCH   4  16
HETATM   16  C   UNL     1     -45.090 -52.554  13.417  1.00  0.00     0.077 A 
HETATM   17  C   UNL     1     -44.536 -53.834  13.400  1.00  0.00     0.050 A 
HETATM   18  C   UNL     1     -45.296 -54.883  13.891  1.00  0.00     0.090 A 
HETATM   19  N   UNL     1     -46.551 -54.743  14.376  1.00  0.00    -0.372 N 
HETATM   20  C   UNL     1     -47.060 -53.488  14.381  1.00  0.00     0.132 A 
ATOM     21  HN  UNL     1     -47.086 -55.540  14.721  1.00  0.00     0.164 HD
HETATM   22  C   UNL     1     -46.361 -52.376  13.943  1.00  0.00     0.158 A 
HETATM   23  F   UNL     1     -46.931 -51.162  13.964  1.00  0.00    -0.202 F 
ENDBRANCH   4  16
TORSDOF 3
ENDMDL
MODEL 7
REMARK VINA RESULT:      -4.8     14.839     16.842
REMARK  3 active torsions:
REMARK  status: ('A' for Active; 'I' for Inactive)
REMARK    1  A    between atoms: C_2  and  N_4 
REMARK    2  A    between atoms: C_7  and  N_8 
REMARK       I    between atoms: N_8  and  C_9 
REMARK       I    between atoms: C_9  and  N_11 
REMARK    3  A    between atoms: N_11  and  C_12 
ROOT
HETATM    1  N   UNL     1     -48.358 -51.798  -2.080  1.00  0.00    -0.330 N 
HETATM    2  C   UNL     1     -47.740 -50.657  -1.659  1.00  0.00     0.321 C 
HETATM    3  O   UNL     1     -47.143 -50.584  -0.590  1.00  0.00    -0.247 OA
HETATM    4  N   UNL     1     -47.854 -49.628  -2.565  1.00  0.00    -0.306 N 
HETATM    5  H   UNL     1     -48.983 -51.735  -2.874  1.00  0.00     0.165 HD
HETATM    6  H   UNL     1     -48.753 -49.567  -3.026  1.00  0.00     0.171 HD
ENDROOT
BRANCH   1   7
HETATM    7  C   UNL     1     -48.555 -52.936  -1.191  1.00  0.00     0.180 C 
HETATM    8  C   UNL     1     -48.727 -54.291  -1.869  1.00  0.00     0.055 C 
HETATM    9  C   UNL     1     -50.211 -54.382  -2.154  1.00  0.00     0.129 C 
HETATM   10  N   UNL     1     -50.840 -53.577  -1.129  1.00  0.00    -0.346 N 
HETATM   11  C   UNL     1     -49.915 -52.717  -0.527  1.00  0.00     0.243 C 
HETATM   12  O   UNL     1     -50.178 -51.792   0.232  1.00  0.00    -0.271 OA
BRANCH  10  13
HETATM   13  C   UNL     1     -52.257 -53.210  -1.198  1.00  0.00     0.079 C 
HETATM   14  C   UNL     1     -52.694 -53.006  -2.655  1.00  0.00     0.032 C 
HETATM   15  C   UNL     1     -53.171 -54.230  -0.519  1.00  0.00     0.032 C 
ENDBRANCH  10  13
ENDBRANCH   1   7
BRANCH   4  16
HETATM   16  C   UNL     1     -47.195 -48.394  -2.351  1.00  0.00     0.077 A 
HETATM   17  C   UNL     1     -47.784 -47.363  -1.621  1.00  0.00     0.050 A 
HETATM   18  C   UNL     1     -47.082 -46.177  -1.478  1.00  0.00     0.090 A 
HETATM   19  N   UNL     1     -45.861 -45.955  -2.017  1.00  0.00    -0.372 N 
HETATM   20  C   UNL     1     -45.315 -46.976  -2.719  1.00  0.00     0.132 A 
ATOM     21  HN  UNL     1     -45.377 -45.064  -1.901  1.00  0.00     0.164 HD
HETATM   22  C   UNL     1     -45.928 -48.207  -2.883  1.00  0.00     0.158 A 
HETATM   23  F   UNL     1     -45.336 -49.172  -3.601  1.00  0.00    -0.202 F 
ENDBRANCH   4  16
TORSDOF 3
ENDMDL
MODEL 8
REMARK VINA RESULT:      -4.8      3.681      7.839
REMARK  3 active torsions:
REMARK  status: ('A' for Active; 'I' for Inactive)
REMARK    1  A    between atoms: C_2  and  N_4 
REMARK    2  A    between atoms: C_7  and  N_8 
REMARK       I    between atoms: N_8  and  C_9 
REMARK       I    between atoms: C_9  and  N_11 
REMARK    3  A    between atoms: N_11  and  C_12 
ROOT
HETATM    1  N   UNL     1     -42.603 -52.380  13.562  1.00  0.00    -0.330 N 
HETATM    2  C   UNL     1     -42.005 -51.533  12.674  1.00  0.00     0.321 C 
HETATM    3  O   UNL     1     -41.565 -51.911  11.593  1.00  0.00    -0.247 OA
HETATM    4  N   UNL     1     -41.969 -50.234  13.123  1.00  0.00    -0.306 N 
HETATM    5  H   UNL     1     -42.772 -52.042  14.501  1.00  0.00     0.165 HD
HETATM    6  H   UNL     1     -41.781 -50.133  14.113  1.00  0.00     0.171 HD
ENDROOT
BRANCH   1   7
HETATM    7  C   UNL     1     -42.553 -53.827  13.394  1.00  0.00     0.180 C 
HETATM    8  C   UNL     1     -43.670 -54.615  14.069  1.00  0.00     0.055 C 
HETATM    9  C   UNL     1     -43.161 -54.859  15.473  1.00  0.00     0.129 C 
HETATM   10  N   UNL     1     -41.720 -54.877  15.353  1.00  0.00    -0.346 N 
HETATM   11  C   UNL     1     -41.307 -54.292  14.151  1.00  0.00     0.243 C 
HETATM   12  O   UNL     1     -40.158 -53.992  13.852  1.00  0.00    -0.271 OA
BRANCH  10  13
HETATM   13  C   UNL     1     -40.847 -54.844  16.530  1.00  0.00     0.079 C 
HETATM   14  C   UNL     1     -41.416 -53.905  17.602  1.00  0.00     0.032 C 
HETATM   15  C   UNL     1     -40.602 -56.230  17.129  1.00  0.00     0.032 C 
ENDBRANCH  10  13
ENDBRANCH   1   7
BRANCH   4  16
HETATM   16  C   UNL     1     -41.476 -49.193  12.302  1.00  0.00     0.077 A 
HETATM   17  C   UNL     1     -42.269 -48.586  11.328  1.00  0.00     0.050 A 
HETATM   18  C   UNL     1     -41.702 -47.590  10.549  1.00  0.00     0.090 A 
HETATM   19  N   UNL     1     -40.420 -47.178  10.669  1.00  0.00    -0.372 N 
HETATM   20  C   UNL     1     -39.676 -47.784  11.624  1.00  0.00     0.132 A 
ATOM     21  HN  UNL     1     -40.032 -46.447  10.071  1.00  0.00     0.164 HD
HETATM   22  C   UNL     1     -40.168 -48.763  12.471  1.00  0.00     0.158 A 
HETATM   23  F   UNL     1     -39.373 -49.332  13.389  1.00  0.00    -0.202 F 
ENDBRANCH   4  16
TORSDOF 3
ENDMDL
MODEL 9
REMARK VINA RESULT:      -4.8      3.494      4.228
REMARK  3 active torsions:
REMARK  status: ('A' for Active; 'I' for Inactive)
REMARK    1  A    between atoms: C_2  and  N_4 
REMARK    2  A    between atoms: C_7  and  N_8 
REMARK       I    between atoms: N_8  and  C_9 
REMARK       I    between atoms: C_9  and  N_11 
REMARK    3  A    between atoms: N_11  and  C_12 
ROOT
HETATM    1  N   UNL     1     -40.952 -51.699  14.025  1.00  0.00    -0.330 N 
HETATM    2  C   UNL     1     -42.111 -52.276  14.457  1.00  0.00     0.321 C 
HETATM    3  O   UNL     1     -42.223 -52.784  15.567  1.00  0.00    -0.247 OA
HETATM    4  N   UNL     1     -43.117 -52.206  13.522  1.00  0.00    -0.306 N 
HETATM    5  H   UNL     1     -40.872 -51.469  13.043  1.00  0.00     0.165 HD
HETATM    6  H   UNL     1     -42.817 -52.345  12.565  1.00  0.00     0.171 HD
ENDROOT
BRANCH   1   7
HETATM    7  C   UNL     1     -39.701 -51.852  14.757  1.00  0.00     0.180 C 
HETATM    8  C   UNL     1     -39.610 -51.108  16.085  1.00  0.00     0.055 C 
HETATM    9  C   UNL     1     -39.107 -49.731  15.709  1.00  0.00     0.129 C 
HETATM   10  N   UNL     1     -38.331 -49.930  14.505  1.00  0.00    -0.346 N 
HETATM   11  C   UNL     1     -38.633 -51.159  13.909  1.00  0.00     0.243 C 
HETATM   12  O   UNL     1     -38.285 -51.525  12.793  1.00  0.00    -0.271 OA
BRANCH  10  13
HETATM   13  C   UNL     1     -37.874 -48.803  13.686  1.00  0.00     0.079 C 
HETATM   14  C   UNL     1     -39.055 -48.150  12.955  1.00  0.00     0.032 C 
HETATM   15  C   UNL     1     -37.115 -47.750  14.492  1.00  0.00     0.032 C 
ENDBRANCH  10  13
ENDBRANCH   1   7
BRANCH   4  16
HETATM   16  C   UNL     1     -44.423 -52.662  13.821  1.00  0.00     0.077 A 
HETATM   17  C   UNL     1     -45.450 -51.781  14.159  1.00  0.00     0.050 A 
HETATM   18  C   UNL     1     -46.694 -52.311  14.462  1.00  0.00     0.090 A 
HETATM   19  N   UNL     1     -46.969 -53.636  14.461  1.00  0.00    -0.372 N 
HETATM   20  C   UNL     1     -45.952 -54.465  14.127  1.00  0.00     0.132 A 
ATOM     21  HN  UNL     1     -47.895 -53.992  14.700  1.00  0.00     0.164 HD
HETATM   22  C   UNL     1     -44.687 -54.023  13.776  1.00  0.00     0.158 A 
HETATM   23  F   UNL     1     -43.721 -54.900  13.468  1.00  0.00    -0.202 F 
ENDBRANCH   4  16
TORSDOF 3
ENDMDL
