MODEL 1
REMARK VINA RESULT:      -6.1      0.000      0.000
REMARK  6 active torsions:
REMARK  status: ('A' for Active; 'I' for Inactive)
REMARK    1  A    between atoms: O_2  and  C_3 
REMARK    2  A    between atoms: C_3  and  C_4 
REMARK    3  A    between atoms: C_4  and  O_5 
REMARK    4  A    between atoms: O_5  and  C_6 
REMARK    5  A    between atoms: C_12  and  C_13 
REMARK       I    between atoms: C_13  and  N_15 
REMARK    6  A    between atoms: C_18  and  C_21 
REMARK       I    between atoms: C_21  and  N_23 
ROOT
HETATM    1  C   UNL     1     -43.558 -49.893  13.980  1.00  0.00     0.258 C 
HETATM    2  O   UNL     1     -43.391 -49.083  14.903  1.00  0.00    -0.267 OA
HETATM    3  N   UNL     1     -44.588 -50.846  14.056  1.00  0.00    -0.348 N 
HETATM    4  C   UNL     1     -44.890 -51.876  13.063  1.00  0.00     0.127 C 
HETATM    5  C   UNL     1     -46.372 -52.259  13.077  1.00  0.00     0.034 C 
HETATM    6  C   UNL     1     -46.831 -52.702  14.469  1.00  0.00     0.081 C 
HETATM    7  C   UNL     1     -46.525 -51.580  15.461  1.00  0.00     0.034 C 
HETATM    8  C   UNL     1     -45.062 -51.154  15.413  1.00  0.00     0.127 C 
ENDROOT
BRANCH   1   9
HETATM    9  C   UNL     1     -42.500 -49.870  12.929  1.00  0.00     0.083 A 
HETATM   10  C   UNL     1     -42.441 -49.117  11.761  1.00  0.00     0.158 A 
HETATM   11  N   UNL     1     -41.400 -49.184  10.884  1.00  0.00    -0.346 N 
HETATM   12  C   UNL     1     -40.348 -49.968  11.200  1.00  0.00     0.090 A 
ATOM     13  HN  UNL     1     -41.415 -48.655  10.011  1.00  0.00     0.167 HD
HETATM   14  C   UNL     1     -40.273 -50.698  12.364  1.00  0.00     0.018 A 
HETATM   15  C   UNL     1     -41.365 -50.654  13.226  1.00  0.00     0.023 A 
BRANCH  10  16
HETATM   16  O   UNL     1     -43.368 -48.128  11.518  1.00  0.00    -0.333 OA
BRANCH  16  17
HETATM   17  C   UNL     1     -43.264 -47.573  10.196  1.00  0.00     0.203 C 
BRANCH  17  18
HETATM   18  C   UNL     1     -44.674 -47.421   9.630  1.00  0.00     0.193 C 
BRANCH  18  19
HETATM   19  O   UNL     1     -44.740 -47.941   8.302  1.00  0.00    -0.394 OA
HETATM   20  C   UNL     1     -43.477 -47.858   7.650  1.00  0.00     0.201 C 
ENDBRANCH  18  19
ENDBRANCH  17  18
ENDBRANCH  16  17
ENDBRANCH  10  16
ENDBRANCH   1   9
BRANCH   6  21
HETATM   21  C   UNL     1     -46.202 -54.041  14.852  1.00  0.00     0.219 C 
HETATM   22  O   UNL     1     -45.787 -54.310  15.975  1.00  0.00    -0.273 OA
HETATM   23  N   UNL     1     -46.054 -54.943  13.847  1.00  0.00    -0.370 N 
HETATM   24  H   UNL     1     -46.149 -54.697  12.869  1.00  0.00     0.159 HD
HETATM   25  H   UNL     1     -45.562 -55.797  14.076  1.00  0.00     0.159 HD
ENDBRANCH   6  21
TORSDOF 6
ENDMDL
MODEL 2
REMARK VINA RESULT:      -5.8      2.089      3.910
REMARK  6 active torsions:
REMARK  status: ('A' for Active; 'I' for Inactive)
REMARK    1  A    between atoms: O_2  and  C_3 
REMARK    2  A    between atoms: C_3  and  C_4 
REMARK    3  A    between atoms: C_4  and  O_5 
REMARK    4  A    between atoms: O_5  and  C_6 
REMARK    5  A    between atoms: C_12  and  C_13 
REMARK       I    between atoms: C_13  and  N_15 
REMARK    6  A    between atoms: C_18  and  C_21 
REMARK       I    between atoms: C_21  and  N_23 
ROOT
HETATM    1  C   UNL     1     -43.479 -49.699  14.229  1.00  0.00     0.258 C 
HETATM    2  O   UNL     1     -43.081 -49.079  15.225  1.00  0.00    -0.267 OA
HETATM    3  N   UNL     1     -44.529 -50.626  14.349  1.00  0.00    -0.348 N 
HETATM    4  C   UNL     1     -45.086 -51.445  13.275  1.00  0.00     0.127 C 
HETATM    5  C   UNL     1     -46.556 -51.789  13.530  1.00  0.00     0.034 C 
HETATM    6  C   UNL     1     -46.753 -52.472  14.886  1.00  0.00     0.081 C 
HETATM    7  C   UNL     1     -46.186 -51.561  15.975  1.00  0.00     0.034 C 
HETATM    8  C   UNL     1     -44.739 -51.168  15.698  1.00  0.00     0.127 C 
ENDROOT
BRANCH   1   9
HETATM    9  C   UNL     1     -42.654 -49.506  13.002  1.00  0.00     0.083 A 
HETATM   10  C   UNL     1     -41.618 -50.294  12.509  1.00  0.00     0.158 A 
HETATM   11  N   UNL     1     -40.948 -50.009  11.357  1.00  0.00    -0.346 N 
HETATM   12  C   UNL     1     -41.356 -48.949  10.628  1.00  0.00     0.090 A 
ATOM     13  HN  UNL     1     -40.160 -50.580  11.054  1.00  0.00     0.167 HD
HETATM   14  C   UNL     1     -42.416 -48.147  10.986  1.00  0.00     0.018 A 
HETATM   15  C   UNL     1     -43.058 -48.425  12.189  1.00  0.00     0.023 A 
BRANCH  10  16
HETATM   16  O   UNL     1     -41.330 -51.511  13.085  1.00  0.00    -0.333 OA
BRANCH  16  17
HETATM   17  C   UNL     1     -41.508 -52.616  12.183  1.00  0.00     0.203 C 
BRANCH  17  18
HETATM   18  C   UNL     1     -40.962 -53.874  12.854  1.00  0.00     0.193 C 
BRANCH  18  19
HETATM   19  O   UNL     1     -39.580 -53.713  13.171  1.00  0.00    -0.394 OA
HETATM   20  C   UNL     1     -39.239 -54.403  14.368  1.00  0.00     0.201 C 
ENDBRANCH  18  19
ENDBRANCH  17  18
ENDBRANCH  16  17
ENDBRANCH  10  16
ENDBRANCH   1   9
BRANCH   6  21
HETATM   21  C   UNL     1     -46.143 -53.873  14.887  1.00  0.00     0.219 C 
HETATM   22  O   UNL     1     -45.639 -54.404  15.872  1.00  0.00    -0.273 OA
HETATM   23  N   UNL     1     -46.121 -54.518  13.691  1.00  0.00    -0.370 N 
HETATM   24  H   UNL     1     -46.295 -54.048  12.810  1.00  0.00     0.159 HD
HETATM   25  H   UNL     1     -45.643 -55.409  13.668  1.00  0.00     0.159 HD
ENDBRANCH   6  21
TORSDOF 6
ENDMDL
MODEL 3
REMARK VINA RESULT:      -5.6      2.980      6.790
REMARK  6 active torsions:
REMARK  status: ('A' for Active; 'I' for Inactive)
REMARK    1  A    between atoms: O_2  and  C_3 
REMARK    2  A    between atoms: C_3  and  C_4 
REMARK    3  A    between atoms: C_4  and  O_5 
REMARK    4  A    between atoms: O_5  and  C_6 
REMARK    5  A    between atoms: C_12  and  C_13 
REMARK       I    between atoms: C_13  and  N_15 
REMARK    6  A    between atoms: C_18  and  C_21 
REMARK       I    between atoms: C_21  and  N_23 
ROOT
HETATM    1  C   UNL     1     -42.332 -50.589  14.186  1.00  0.00     0.258 C 
HETATM    2  O   UNL     1     -42.306 -50.607  15.425  1.00  0.00    -0.267 OA
HETATM    3  N   UNL     1     -41.427 -49.782  13.475  1.00  0.00    -0.348 N 
HETATM    4  C   UNL     1     -41.354 -49.639  12.022  1.00  0.00     0.127 C 
HETATM    5  C   UNL     1     -39.937 -49.290  11.558  1.00  0.00     0.034 C 
HETATM    6  C   UNL     1     -39.406 -48.033  12.251  1.00  0.00     0.081 C 
HETATM    7  C   UNL     1     -39.472 -48.247  13.764  1.00  0.00     0.034 C 
HETATM    8  C   UNL     1     -40.868 -48.650  14.226  1.00  0.00     0.127 C 
ENDROOT
BRANCH   1   9
HETATM    9  C   UNL     1     -43.475 -51.325  13.574  1.00  0.00     0.083 A 
HETATM   10  C   UNL     1     -43.453 -52.408  12.700  1.00  0.00     0.158 A 
HETATM   11  N   UNL     1     -44.582 -53.001  12.219  1.00  0.00    -0.346 N 
HETATM   12  C   UNL     1     -45.775 -52.557  12.667  1.00  0.00     0.090 A 
ATOM     13  HN  UNL     1     -44.527 -53.760  11.540  1.00  0.00     0.167 HD
HETATM   14  C   UNL     1     -45.908 -51.541  13.585  1.00  0.00     0.018 A 
HETATM   15  C   UNL     1     -44.746 -50.916  14.030  1.00  0.00     0.023 A 
BRANCH  10  16
HETATM   16  O   UNL     1     -42.269 -53.048  12.409  1.00  0.00    -0.333 OA
BRANCH  16  17
HETATM   17  C   UNL     1     -41.957 -54.102  13.335  1.00  0.00     0.203 C 
BRANCH  17  18
HETATM   18  C   UNL     1     -40.450 -54.093  13.580  1.00  0.00     0.193 C 
BRANCH  18  19
HETATM   19  O   UNL     1     -39.859 -52.918  13.025  1.00  0.00    -0.394 OA
HETATM   20  C   UNL     1     -38.976 -52.296  13.951  1.00  0.00     0.201 C 
ENDBRANCH  18  19
ENDBRANCH  17  18
ENDBRANCH  16  17
ENDBRANCH  10  16
ENDBRANCH   1   9
BRANCH   6  21
HETATM   21  C   UNL     1     -40.159 -46.789  11.780  1.00  0.00     0.219 C 
HETATM   22  O   UNL     1     -40.564 -45.905  12.529  1.00  0.00    -0.273 OA
HETATM   23  N   UNL     1     -40.431 -46.720  10.451  1.00  0.00    -0.370 N 
HETATM   24  H   UNL     1     -40.341 -47.516   9.829  1.00  0.00     0.159 HD
HETATM   25  H   UNL     1     -41.001 -45.943  10.147  1.00  0.00     0.159 HD
ENDBRANCH   6  21
TORSDOF 6
ENDMDL
MODEL 4
REMARK VINA RESULT:      -5.5      2.940      3.793
REMARK  6 active torsions:
REMARK  status: ('A' for Active; 'I' for Inactive)
REMARK    1  A    between atoms: O_2  and  C_3 
REMARK    2  A    between atoms: C_3  and  C_4 
REMARK    3  A    between atoms: C_4  and  O_5 
REMARK    4  A    between atoms: O_5  and  C_6 
REMARK    5  A    between atoms: C_12  and  C_13 
REMARK       I    between atoms: C_13  and  N_15 
REMARK    6  A    between atoms: C_18  and  C_21 
REMARK       I    between atoms: C_21  and  N_23 
ROOT
HETATM    1  C   UNL     1     -42.261 -49.458  12.819  1.00  0.00     0.258 C 
HETATM    2  O   UNL     1     -43.255 -49.071  13.450  1.00  0.00    -0.267 OA
HETATM    3  N   UNL     1     -41.886 -50.812  12.857  1.00  0.00    -0.348 N 
HETATM    4  C   UNL     1     -40.731 -51.408  12.188  1.00  0.00     0.127 C 
HETATM    5  C   UNL     1     -40.970 -52.882  11.851  1.00  0.00     0.034 C 
HETATM    6  C   UNL     1     -41.353 -53.694  13.091  1.00  0.00     0.081 C 
HETATM    7  C   UNL     1     -42.583 -53.050  13.732  1.00  0.00     0.034 C 
HETATM    8  C   UNL     1     -42.372 -51.568  14.019  1.00  0.00     0.127 C 
ENDROOT
BRANCH   1   9
HETATM    9  C   UNL     1     -41.449 -48.369  12.204  1.00  0.00     0.083 A 
HETATM   10  C   UNL     1     -41.509 -47.854  10.913  1.00  0.00     0.158 A 
HETATM   11  N   UNL     1     -40.708 -46.839  10.478  1.00  0.00    -0.346 N 
HETATM   12  C   UNL     1     -39.867 -46.267  11.364  1.00  0.00     0.090 A 
ATOM     13  HN  UNL     1     -40.745 -46.522   9.510  1.00  0.00     0.167 HD
HETATM   14  C   UNL     1     -39.780 -46.651  12.682  1.00  0.00     0.018 A 
HETATM   15  C   UNL     1     -40.571 -47.719  13.097  1.00  0.00     0.023 A 
BRANCH  10  16
HETATM   16  O   UNL     1     -42.513 -48.237  10.052  1.00  0.00    -0.333 OA
BRANCH  16  17
HETATM   17  C   UNL     1     -43.629 -47.332  10.052  1.00  0.00     0.203 C 
BRANCH  17  18
HETATM   18  C   UNL     1     -44.289 -47.386   8.677  1.00  0.00     0.193 C 
BRANCH  18  19
HETATM   19  O   UNL     1     -45.567 -48.015   8.758  1.00  0.00    -0.394 OA
HETATM   20  C   UNL     1     -46.582 -47.083   9.114  1.00  0.00     0.201 C 
ENDBRANCH  18  19
ENDBRANCH  17  18
ENDBRANCH  16  17
ENDBRANCH  10  16
ENDBRANCH   1   9
BRANCH   6  21
HETATM   21  C   UNL     1     -40.168 -53.824  14.047  1.00  0.00     0.219 C 
HETATM   22  O   UNL     1     -40.064 -53.208  15.103  1.00  0.00    -0.273 OA
HETATM   23  N   UNL     1     -39.157 -54.637  13.641  1.00  0.00    -0.370 N 
HETATM   24  H   UNL     1     -39.073 -54.976  12.690  1.00  0.00     0.159 HD
HETATM   25  H   UNL     1     -38.335 -54.661  14.229  1.00  0.00     0.159 HD
ENDBRANCH   6  21
TORSDOF 6
ENDMDL
MODEL 5
REMARK VINA RESULT:      -5.3      3.254      4.452
REMARK  6 active torsions:
REMARK  status: ('A' for Active; 'I' for Inactive)
REMARK    1  A    between atoms: O_2  and  C_3 
REMARK    2  A    between atoms: C_3  and  C_4 
REMARK    3  A    between atoms: C_4  and  O_5 
REMARK    4  A    between atoms: O_5  and  C_6 
REMARK    5  A    between atoms: C_12  and  C_13 
REMARK       I    between atoms: C_13  and  N_15 
REMARK    6  A    between atoms: C_18  and  C_21 
REMARK       I    between atoms: C_21  and  N_23 
ROOT
HETATM    1  C   UNL     1     -41.791 -52.143  14.765  1.00  0.00     0.258 C 
HETATM    2  O   UNL     1     -41.465 -51.048  15.243  1.00  0.00    -0.267 OA
HETATM    3  N   UNL     1     -43.113 -52.362  14.339  1.00  0.00    -0.348 N 
HETATM    4  C   UNL     1     -43.649 -53.602  13.781  1.00  0.00     0.127 C 
HETATM    5  C   UNL     1     -44.819 -53.336  12.831  1.00  0.00     0.034 C 
HETATM    6  C   UNL     1     -45.928 -52.526  13.507  1.00  0.00     0.081 C 
HETATM    7  C   UNL     1     -45.324 -51.227  14.043  1.00  0.00     0.034 C 
HETATM    8  C   UNL     1     -44.122 -51.482  14.945  1.00  0.00     0.127 C 
ENDROOT
BRANCH   1   9
HETATM    9  C   UNL     1     -40.744 -53.201  14.853  1.00  0.00     0.083 A 
HETATM   10  C   UNL     1     -39.687 -53.462  13.988  1.00  0.00     0.158 A 
HETATM   11  N   UNL     1     -38.784 -54.463  14.194  1.00  0.00    -0.346 N 
HETATM   12  C   UNL     1     -38.885 -55.189  15.327  1.00  0.00     0.090 A 
ATOM     13  HN  UNL     1     -38.052 -54.658  13.511  1.00  0.00     0.167 HD
HETATM   14  C   UNL     1     -39.849 -54.966  16.284  1.00  0.00     0.018 A 
HETATM   15  C   UNL     1     -40.790 -53.971  16.035  1.00  0.00     0.023 A 
BRANCH  10  16
HETATM   16  O   UNL     1     -39.399 -52.600  12.953  1.00  0.00    -0.333 OA
BRANCH  16  17
HETATM   17  C   UNL     1     -38.489 -51.554  13.329  1.00  0.00     0.203 C 
BRANCH  17  18
HETATM   18  C   UNL     1     -39.034 -50.231  12.797  1.00  0.00     0.193 C 
BRANCH  18  19
HETATM   19  O   UNL     1     -40.271 -50.437  12.115  1.00  0.00    -0.394 OA
HETATM   20  C   UNL     1     -40.477 -49.453  11.108  1.00  0.00     0.201 C 
ENDBRANCH  18  19
ENDBRANCH  17  18
ENDBRANCH  16  17
ENDBRANCH  10  16
ENDBRANCH   1   9
BRANCH   6  21
HETATM   21  C   UNL     1     -46.634 -53.355  14.580  1.00  0.00     0.219 C 
HETATM   22  O   UNL     1     -47.035 -52.902  15.648  1.00  0.00    -0.273 OA
HETATM   23  N   UNL     1     -46.754 -54.685  14.328  1.00  0.00    -0.370 N 
HETATM   24  H   UNL     1     -46.238 -55.154  13.591  1.00  0.00     0.159 HD
HETATM   25  H   UNL     1     -47.144 -55.251  15.069  1.00  0.00     0.159 HD
ENDBRANCH   6  21
TORSDOF 6
ENDMDL
MODEL 6
REMARK VINA RESULT:      -5.2      2.611      3.797
REMARK  6 active torsions:
REMARK  status: ('A' for Active; 'I' for Inactive)
REMARK    1  A    between atoms: O_2  and  C_3 
REMARK    2  A    between atoms: C_3  and  C_4 
REMARK    3  A    between atoms: C_4  and  O_5 
REMARK    4  A    between atoms: O_5  and  C_6 
REMARK    5  A    between atoms: C_12  and  C_13 
REMARK       I    between atoms: C_13  and  N_15 
REMARK    6  A    between atoms: C_18  and  C_21 
REMARK       I    between atoms: C_21  and  N_23 
ROOT
HETATM    1  C   UNL     1     -39.739 -49.715  12.162  1.00  0.00     0.258 C 
HETATM    2  O   UNL     1     -38.810 -50.140  11.462  1.00  0.00    -0.267 OA
HETATM    3  N   UNL     1     -40.641 -50.615  12.758  1.00  0.00    -0.348 N 
HETATM    4  C   UNL     1     -41.794 -50.264  13.584  1.00  0.00     0.127 C 
HETATM    5  C   UNL     1     -42.127 -51.369  14.590  1.00  0.00     0.034 C 
HETATM    6  C   UNL     1     -42.349 -52.717  13.900  1.00  0.00     0.081 C 
HETATM    7  C   UNL     1     -41.105 -53.053  13.078  1.00  0.00     0.034 C 
HETATM    8  C   UNL     1     -40.734 -51.932  12.113  1.00  0.00     0.127 C 
ENDROOT
BRANCH   1   9
HETATM    9  C   UNL     1     -39.900 -48.233  12.155  1.00  0.00     0.083 A 
HETATM   10  C   UNL     1     -40.703 -47.443  11.340  1.00  0.00     0.158 A 
HETATM   11  N   UNL     1     -40.767 -46.085  11.447  1.00  0.00    -0.346 N 
HETATM   12  C   UNL     1     -40.069 -45.491  12.437  1.00  0.00     0.090 A 
ATOM     13  HN  UNL     1     -41.328 -45.534  10.798  1.00  0.00     0.167 HD
HETATM   14  C   UNL     1     -39.301 -46.185  13.343  1.00  0.00     0.018 A 
HETATM   15  C   UNL     1     -39.210 -47.565  13.190  1.00  0.00     0.023 A 
BRANCH  10  16
HETATM   16  O   UNL     1     -41.614 -48.020  10.483  1.00  0.00    -0.333 OA
BRANCH  16  17
HETATM   17  C   UNL     1     -42.458 -47.058   9.828  1.00  0.00     0.203 C 
BRANCH  17  18
HETATM   18  C   UNL     1     -43.900 -47.553   9.911  1.00  0.00     0.193 C 
BRANCH  18  19
HETATM   19  O   UNL     1     -44.494 -47.584   8.614  1.00  0.00    -0.394 OA
HETATM   20  C   UNL     1     -43.540 -47.927   7.615  1.00  0.00     0.201 C 
ENDBRANCH  18  19
ENDBRANCH  17  18
ENDBRANCH  16  17
ENDBRANCH  10  16
ENDBRANCH   1   9
BRANCH   6  21
HETATM   21  C   UNL     1     -43.636 -52.704  13.076  1.00  0.00     0.219 C 
HETATM   22  O   UNL     1     -44.567 -51.927  13.265  1.00  0.00    -0.273 OA
HETATM   23  N   UNL     1     -43.748 -53.666  12.122  1.00  0.00    -0.370 N 
HETATM   24  H   UNL     1     -43.134 -54.472  12.080  1.00  0.00     0.159 HD
HETATM   25  H   UNL     1     -44.630 -53.715  11.632  1.00  0.00     0.159 HD
ENDBRANCH   6  21
TORSDOF 6
ENDMDL
MODEL 7
REMARK VINA RESULT:      -5.1      2.480      3.143
REMARK  6 active torsions:
REMARK  status: ('A' for Active; 'I' for Inactive)
REMARK    1  A    between atoms: O_2  and  C_3 
REMARK    2  A    between atoms: C_3  and  C_4 
REMARK    3  A    between atoms: C_4  and  O_5 
REMARK    4  A    between atoms: O_5  and  C_6 
REMARK    5  A    between atoms: C_12  and  C_13 
REMARK       I    between atoms: C_13  and  N_15 
REMARK    6  A    between atoms: C_18  and  C_21 
REMARK       I    between atoms: C_21  and  N_23 
ROOT
HETATM    1  C   UNL     1     -41.251 -52.359  12.726  1.00  0.00     0.258 C 
HETATM    2  O   UNL     1     -40.765 -53.135  11.892  1.00  0.00    -0.267 OA
HETATM    3  N   UNL     1     -42.570 -52.543  13.176  1.00  0.00    -0.348 N 
HETATM    4  C   UNL     1     -43.284 -51.700  14.132  1.00  0.00     0.127 C 
HETATM    5  C   UNL     1     -44.346 -52.490  14.901  1.00  0.00     0.034 C 
HETATM    6  C   UNL     1     -45.330 -53.186  13.957  1.00  0.00     0.081 C 
HETATM    7  C   UNL     1     -44.538 -54.080  13.003  1.00  0.00     0.034 C 
HETATM    8  C   UNL     1     -43.440 -53.311  12.275  1.00  0.00     0.127 C 
ENDROOT
BRANCH   1   9
HETATM    9  C   UNL     1     -40.405 -51.173  13.043  1.00  0.00     0.083 A 
HETATM   10  C   UNL     1     -40.359 -49.934  12.411  1.00  0.00     0.158 A 
HETATM   11  N   UNL     1     -39.540 -48.922  12.814  1.00  0.00    -0.346 N 
HETATM   12  C   UNL     1     -38.790 -49.110  13.919  1.00  0.00     0.090 A 
ATOM     13  HN  UNL     1     -39.496 -48.045  12.294  1.00  0.00     0.167 HD
HETATM   14  C   UNL     1     -38.813 -50.269  14.661  1.00  0.00     0.018 A 
HETATM   15  C   UNL     1     -39.620 -51.309  14.209  1.00  0.00     0.023 A 
BRANCH  10  16
HETATM   16  O   UNL     1     -41.277 -49.612  11.436  1.00  0.00    -0.333 OA
BRANCH  16  17
HETATM   17  C   UNL     1     -41.173 -48.248  10.995  1.00  0.00     0.203 C 
BRANCH  17  18
HETATM   18  C   UNL     1     -42.343 -47.958  10.059  1.00  0.00     0.193 C 
BRANCH  18  19
HETATM   19  O   UNL     1     -42.429 -46.560   9.782  1.00  0.00    -0.394 OA
HETATM   20  C   UNL     1     -42.465 -45.795  10.981  1.00  0.00     0.201 C 
ENDBRANCH  18  19
ENDBRANCH  17  18
ENDBRANCH  16  17
ENDBRANCH  10  16
ENDBRANCH   1   9
BRANCH   6  21
HETATM   21  C   UNL     1     -46.216 -52.167  13.242  1.00  0.00     0.219 C 
HETATM   22  O   UNL     1     -46.751 -51.211  13.794  1.00  0.00    -0.273 OA
HETATM   23  N   UNL     1     -46.453 -52.399  11.924  1.00  0.00    -0.370 N 
HETATM   24  H   UNL     1     -46.245 -53.284  11.476  1.00  0.00     0.159 HD
HETATM   25  H   UNL     1     -47.105 -51.776  11.466  1.00  0.00     0.159 HD
ENDBRANCH   6  21
TORSDOF 6
ENDMDL
MODEL 8
REMARK VINA RESULT:      -5.0      4.451      8.734
REMARK  6 active torsions:
REMARK  status: ('A' for Active; 'I' for Inactive)
REMARK    1  A    between atoms: O_2  and  C_3 
REMARK    2  A    between atoms: C_3  and  C_4 
REMARK    3  A    between atoms: C_4  and  O_5 
REMARK    4  A    between atoms: O_5  and  C_6 
REMARK    5  A    between atoms: C_12  and  C_13 
REMARK       I    between atoms: C_13  and  N_15 
REMARK    6  A    between atoms: C_18  and  C_21 
REMARK       I    between atoms: C_21  and  N_23 
ROOT
HETATM    1  C   UNL     1     -45.194 -52.909  17.397  1.00  0.00     0.258 C 
HETATM    2  O   UNL     1     -44.170 -52.774  18.082  1.00  0.00    -0.267 OA
HETATM    3  N   UNL     1     -45.106 -53.434  16.096  1.00  0.00    -0.348 N 
HETATM    4  C   UNL     1     -46.217 -53.627  15.165  1.00  0.00     0.127 C 
HETATM    5  C   UNL     1     -45.946 -54.778  14.193  1.00  0.00     0.034 C 
HETATM    6  C   UNL     1     -44.632 -54.583  13.432  1.00  0.00     0.081 C 
HETATM    7  C   UNL     1     -43.502 -54.420  14.448  1.00  0.00     0.034 C 
HETATM    8  C   UNL     1     -43.790 -53.312  15.455  1.00  0.00     0.127 C 
ENDROOT
BRANCH   1   9
HETATM    9  C   UNL     1     -46.427 -52.319  17.992  1.00  0.00     0.083 A 
HETATM   10  C   UNL     1     -47.313 -52.879  18.906  1.00  0.00     0.158 A 
HETATM   11  N   UNL     1     -48.407 -52.219  19.384  1.00  0.00    -0.346 N 
HETATM   12  C   UNL     1     -48.598 -50.940  19.000  1.00  0.00     0.090 A 
ATOM     13  HN  UNL     1     -49.063 -52.681  20.014  1.00  0.00     0.167 HD
HETATM   14  C   UNL     1     -47.743 -50.268  18.157  1.00  0.00     0.018 A 
HETATM   15  C   UNL     1     -46.657 -50.971  17.643  1.00  0.00     0.023 A 
BRANCH  10  16
HETATM   16  O   UNL     1     -47.029 -54.083  19.510  1.00  0.00    -0.333 OA
BRANCH  16  17
HETATM   17  C   UNL     1     -47.858 -54.349  20.653  1.00  0.00     0.203 C 
BRANCH  17  18
HETATM   18  C   UNL     1     -48.290 -55.813  20.600  1.00  0.00     0.193 C 
BRANCH  18  19
HETATM   19  O   UNL     1     -49.570 -55.935  19.982  1.00  0.00    -0.394 OA
HETATM   20  C   UNL     1     -50.587 -55.328  20.771  1.00  0.00     0.201 C 
ENDBRANCH  18  19
ENDBRANCH  17  18
ENDBRANCH  16  17
ENDBRANCH  10  16
ENDBRANCH   1   9
BRANCH   6  21
HETATM   21  C   UNL     1     -44.738 -53.417  12.449  1.00  0.00     0.219 C 
HETATM   22  O   UNL     1     -45.799 -52.958  12.036  1.00  0.00    -0.273 OA
HETATM   23  N   UNL     1     -43.564 -52.923  11.976  1.00  0.00    -0.370 N 
HETATM   24  H   UNL     1     -42.680 -53.407  12.086  1.00  0.00     0.159 HD
HETATM   25  H   UNL     1     -43.629 -52.210  11.263  1.00  0.00     0.159 HD
ENDBRANCH   6  21
TORSDOF 6
ENDMDL
MODEL 9
REMARK VINA RESULT:      -5.0      4.406      7.860
REMARK  6 active torsions:
REMARK  status: ('A' for Active; 'I' for Inactive)
REMARK    1  A    between atoms: O_2  and  C_3 
REMARK    2  A    between atoms: C_3  and  C_4 
REMARK    3  A    between atoms: C_4  and  O_5 
REMARK    4  A    between atoms: O_5  and  C_6 
REMARK    5  A    between atoms: C_12  and  C_13 
REMARK       I    between atoms: C_13  and  N_15 
REMARK    6  A    between atoms: C_18  and  C_21 
REMARK       I    between atoms: C_21  and  N_23 
ROOT
HETATM    1  C   UNL     1     -41.477 -45.164  10.476  1.00  0.00     0.258 C 
HETATM    2  O   UNL     1     -40.550 -45.213   9.656  1.00  0.00    -0.267 OA
HETATM    3  N   UNL     1     -41.317 -44.455  11.679  1.00  0.00    -0.348 N 
HETATM    4  C   UNL     1     -42.307 -44.330  12.748  1.00  0.00     0.127 C 
HETATM    5  C   UNL     1     -42.135 -43.024  13.529  1.00  0.00     0.034 C 
HETATM    6  C   UNL     1     -40.717 -42.878  14.087  1.00  0.00     0.081 C 
HETATM    7  C   UNL     1     -39.725 -42.982  12.928  1.00  0.00     0.034 C 
HETATM    8  C   UNL     1     -39.928 -44.253  12.111  1.00  0.00     0.127 C 
ENDROOT
BRANCH   1   9
HETATM    9  C   UNL     1     -42.642 -46.039  10.156  1.00  0.00     0.083 A 
HETATM   10  C   UNL     1     -42.928 -47.320  10.615  1.00  0.00     0.158 A 
HETATM   11  N   UNL     1     -44.045 -48.011  10.249  1.00  0.00    -0.346 N 
HETATM   12  C   UNL     1     -44.946 -47.393   9.458  1.00  0.00     0.090 A 
ATOM     13  HN  UNL     1     -44.196 -48.969  10.566  1.00  0.00     0.167 HD
HETATM   14  C   UNL     1     -44.796 -46.101   9.007  1.00  0.00     0.018 A 
HETATM   15  C   UNL     1     -43.628 -45.428   9.352  1.00  0.00     0.023 A 
BRANCH  10  16
HETATM   16  O   UNL     1     -42.167 -47.894  11.610  1.00  0.00    -0.333 OA
BRANCH  16  17
HETATM   17  C   UNL     1     -41.199 -48.830  11.108  1.00  0.00     0.203 C 
BRANCH  17  18
HETATM   18  C   UNL     1     -41.277 -50.098  11.955  1.00  0.00     0.193 C 
BRANCH  18  19
HETATM   19  O   UNL     1     -40.014 -50.763  11.980  1.00  0.00    -0.394 OA
HETATM   20  C   UNL     1     -38.947 -49.855  11.730  1.00  0.00     0.201 C 
ENDBRANCH  18  19
ENDBRANCH  17  18
ENDBRANCH  16  17
ENDBRANCH  10  16
ENDBRANCH   1   9
BRANCH   6  21
HETATM   21  C   UNL     1     -40.460 -43.894  15.199  1.00  0.00     0.219 C 
HETATM   22  O   UNL     1     -39.426 -44.546  15.311  1.00  0.00    -0.273 OA
HETATM   23  N   UNL     1     -41.484 -44.107  16.066  1.00  0.00    -0.370 N 
HETATM   24  H   UNL     1     -42.430 -43.788  15.888  1.00  0.00     0.159 HD
HETATM   25  H   UNL     1     -41.351 -44.838  16.752  1.00  0.00     0.159 HD
ENDBRANCH   6  21
TORSDOF 6
ENDMDL
