MODEL 1
REMARK VINA RESULT:      -6.5      0.000      0.000
REMARK  2 active torsions:
REMARK  status: ('A' for Active; 'I' for Inactive)
REMARK       I    between atoms: C_2  and  N_3 
REMARK       I    between atoms: C_2  and  N_12 
REMARK    1  A    between atoms: N_3  and  C_4 
REMARK    2  A    between atoms: N_12  and  C_13 
ROOT
HETATM    1  O   UNL     1     -39.892 -48.991  11.688  1.00  0.00    -0.247 OA
HETATM    2  C   UNL     1     -41.047 -48.978  11.262  1.00  0.00     0.322 C 
HETATM    3  N   UNL     1     -41.989 -49.871  11.650  1.00  0.00    -0.330 N 
HETATM    4  N   UNL     1     -41.394 -48.064  10.318  1.00  0.00    -0.295 N 
HETATM    5  H   UNL     1     -42.947 -49.678  11.365  1.00  0.00     0.165 HD
HETATM    6  H   UNL     1     -40.623 -47.466  10.064  1.00  0.00     0.172 HD
ENDROOT
BRANCH   3   7
HETATM    7  C   UNL     1     -41.717 -50.964  12.577  1.00  0.00     0.172 C 
HETATM    8  C   UNL     1     -41.395 -52.231  11.780  1.00  0.00     0.034 C 
HETATM    9  C   UNL     1     -40.772 -53.315  12.651  1.00  0.00     0.004 C 
HETATM   10  C   UNL     1     -41.780 -54.182  13.393  1.00  0.00     0.015 C 
HETATM   11  C   UNL     1     -43.086 -53.512  13.790  1.00  0.00     0.095 C 
HETATM   12  N   UNL     1     -42.959 -52.199  14.381  1.00  0.00    -0.261 NA
HETATM   13  C   UNL     1     -42.880 -51.080  13.584  1.00  0.00     0.220 C 
HETATM   14  H   UNL     1     -43.669 -52.021  15.084  1.00  0.00     0.130 HD
HETATM   15  O   UNL     1     -43.667 -50.159  13.811  1.00  0.00    -0.278 OA
ENDBRANCH   3   7
BRANCH   4  16
HETATM   16  C   UNL     1     -42.610 -47.894   9.651  1.00  0.00     0.108 A 
HETATM   17  C   UNL     1     -43.702 -47.484  10.410  1.00  0.00     0.049 A 
HETATM   18  C   UNL     1     -44.931 -47.296   9.779  1.00  0.00     0.005 A 
HETATM   19  C   UNL     1     -45.038 -47.531   8.414  1.00  0.00     0.017 A 
HETATM   20  C   UNL     1     -43.901 -47.938   7.738  1.00  0.00     0.089 A 
HETATM   21  N   UNL     1     -42.697 -48.116   8.323  1.00  0.00    -0.352 N 
ATOM     22  HN  UNL     1     -41.883 -48.407   7.782  1.00  0.00     0.166 HD
ENDBRANCH   4  16
TORSDOF 2
ENDMDL
MODEL 2
REMARK VINA RESULT:      -6.3      3.878      6.004
REMARK  2 active torsions:
REMARK  status: ('A' for Active; 'I' for Inactive)
REMARK       I    between atoms: C_2  and  N_3 
REMARK       I    between atoms: C_2  and  N_12 
REMARK    1  A    between atoms: N_3  and  C_4 
REMARK    2  A    between atoms: N_12  and  C_13 
ROOT
HETATM    1  O   UNL     1     -44.928 -54.460  12.498  1.00  0.00    -0.247 OA
HETATM    2  C   UNL     1     -44.084 -53.648  12.876  1.00  0.00     0.322 C 
HETATM    3  N   UNL     1     -44.235 -52.886  13.986  1.00  0.00    -0.330 N 
HETATM    4  N   UNL     1     -42.967 -53.457  12.126  1.00  0.00    -0.295 N 
HETATM    5  H   UNL     1     -43.415 -52.367  14.299  1.00  0.00     0.165 HD
HETATM    6  H   UNL     1     -42.956 -54.037  11.302  1.00  0.00     0.172 HD
ENDROOT
BRANCH   3   7
HETATM    7  C   UNL     1     -45.431 -52.920  14.819  1.00  0.00     0.172 C 
HETATM    8  C   UNL     1     -45.901 -51.487  15.083  1.00  0.00     0.034 C 
HETATM    9  C   UNL     1     -47.316 -51.441  15.647  1.00  0.00     0.004 C 
HETATM   10  C   UNL     1     -47.397 -51.618  17.157  1.00  0.00     0.015 C 
HETATM   11  C   UNL     1     -46.327 -52.491  17.794  1.00  0.00     0.095 C 
HETATM   12  N   UNL     1     -46.052 -53.737  17.115  1.00  0.00    -0.261 NA
HETATM   13  C   UNL     1     -45.157 -53.779  16.071  1.00  0.00     0.220 C 
HETATM   14  H   UNL     1     -45.805 -54.482  17.758  1.00  0.00     0.130 HD
HETATM   15  O   UNL     1     -44.248 -54.609  16.131  1.00  0.00    -0.278 OA
ENDBRANCH   3   7
BRANCH   4  16
HETATM   16  C   UNL     1     -41.911 -52.562  12.317  1.00  0.00     0.108 A 
HETATM   17  C   UNL     1     -40.823 -53.007  13.063  1.00  0.00     0.049 A 
HETATM   18  C   UNL     1     -39.747 -52.146  13.268  1.00  0.00     0.005 A 
HETATM   19  C   UNL     1     -39.789 -50.865  12.735  1.00  0.00     0.017 A 
HETATM   20  C   UNL     1     -40.910 -50.504  12.008  1.00  0.00     0.089 A 
HETATM   21  N   UNL     1     -41.960 -51.323  11.784  1.00  0.00    -0.352 N 
ATOM     22  HN  UNL     1     -42.762 -51.017  11.232  1.00  0.00     0.166 HD
ENDBRANCH   4  16
TORSDOF 2
ENDMDL
MODEL 3
REMARK VINA RESULT:      -6.3      3.550      6.771
REMARK  2 active torsions:
REMARK  status: ('A' for Active; 'I' for Inactive)
REMARK       I    between atoms: C_2  and  N_3 
REMARK       I    between atoms: C_2  and  N_12 
REMARK    1  A    between atoms: N_3  and  C_4 
REMARK    2  A    between atoms: N_12  and  C_13 
ROOT
HETATM    1  O   UNL     1     -42.374 -48.047   9.771  1.00  0.00    -0.247 OA
HETATM    2  C   UNL     1     -41.428 -48.250  10.531  1.00  0.00     0.322 C 
HETATM    3  N   UNL     1     -40.879 -47.283  11.304  1.00  0.00    -0.330 N 
HETATM    4  N   UNL     1     -40.864 -49.486  10.569  1.00  0.00    -0.295 N 
HETATM    5  H   UNL     1     -40.211 -47.587  12.011  1.00  0.00     0.165 HD
HETATM    6  H   UNL     1     -41.312 -50.131   9.937  1.00  0.00     0.172 HD
ENDROOT
BRANCH   3   7
HETATM    7  C   UNL     1     -41.323 -45.894  11.278  1.00  0.00     0.172 C 
HETATM    8  C   UNL     1     -40.102 -44.973  11.357  1.00  0.00     0.034 C 
HETATM    9  C   UNL     1     -40.444 -43.533  10.995  1.00  0.00     0.004 C 
HETATM   10  C   UNL     1     -40.992 -42.707  12.151  1.00  0.00     0.015 C 
HETATM   11  C   UNL     1     -41.790 -43.462  13.203  1.00  0.00     0.095 C 
HETATM   12  N   UNL     1     -42.766 -44.398  12.693  1.00  0.00    -0.261 NA
HETATM   13  C   UNL     1     -42.397 -45.682  12.366  1.00  0.00     0.220 C 
HETATM   14  H   UNL     1     -43.588 -44.459  13.285  1.00  0.00     0.130 HD
HETATM   15  O   UNL     1     -43.043 -46.607  12.862  1.00  0.00    -0.278 OA
ENDBRANCH   3   7
BRANCH   4  16
HETATM   16  C   UNL     1     -39.761 -49.936  11.299  1.00  0.00     0.108 A 
HETATM   17  C   UNL     1     -40.012 -50.557  12.519  1.00  0.00     0.049 A 
HETATM   18  C   UNL     1     -38.937 -51.027  13.273  1.00  0.00     0.005 A 
HETATM   19  C   UNL     1     -37.645 -50.857  12.794  1.00  0.00     0.017 A 
HETATM   20  C   UNL     1     -37.486 -50.228  11.571  1.00  0.00     0.089 A 
HETATM   21  N   UNL     1     -38.511 -49.774  10.817  1.00  0.00    -0.352 N 
ATOM     22  HN  UNL     1     -38.346 -49.325   9.916  1.00  0.00     0.166 HD
ENDBRANCH   4  16
TORSDOF 2
ENDMDL
MODEL 4
REMARK VINA RESULT:      -6.0      2.804      5.240
REMARK  2 active torsions:
REMARK  status: ('A' for Active; 'I' for Inactive)
REMARK       I    between atoms: C_2  and  N_3 
REMARK       I    between atoms: C_2  and  N_12 
REMARK    1  A    between atoms: N_3  and  C_4 
REMARK    2  A    between atoms: N_12  and  C_13 
ROOT
HETATM    1  O   UNL     1     -40.901 -53.329  11.913  1.00  0.00    -0.247 OA
HETATM    2  C   UNL     1     -41.891 -52.630  12.126  1.00  0.00     0.322 C 
HETATM    3  N   UNL     1     -41.886 -51.282  11.996  1.00  0.00    -0.330 N 
HETATM    4  N   UNL     1     -43.034 -53.219  12.564  1.00  0.00    -0.295 N 
HETATM    5  H   UNL     1     -42.791 -50.815  12.038  1.00  0.00     0.165 HD
HETATM    6  H   UNL     1     -42.936 -54.217  12.667  1.00  0.00     0.172 HD
ENDROOT
BRANCH   3   7
HETATM    7  C   UNL     1     -40.697 -50.520  11.634  1.00  0.00     0.172 C 
HETATM    8  C   UNL     1     -39.639 -50.688  12.728  1.00  0.00     0.034 C 
HETATM    9  C   UNL     1     -38.263 -50.215  12.275  1.00  0.00     0.004 C 
HETATM   10  C   UNL     1     -38.025 -48.720  12.442  1.00  0.00     0.015 C 
HETATM   11  C   UNL     1     -39.246 -47.822  12.310  1.00  0.00     0.095 C 
HETATM   12  N   UNL     1     -40.116 -48.113  11.193  1.00  0.00    -0.261 NA
HETATM   13  C   UNL     1     -41.101 -49.067  11.307  1.00  0.00     0.220 C 
HETATM   14  H   UNL     1     -40.546 -47.277  10.810  1.00  0.00     0.130 HD
HETATM   15  O   UNL     1     -42.251 -48.741  11.005  1.00  0.00    -0.278 OA
ENDBRANCH   3   7
BRANCH   4  16
HETATM   16  C   UNL     1     -44.252 -52.635  12.924  1.00  0.00     0.108 A 
HETATM   17  C   UNL     1     -44.348 -52.096  14.204  1.00  0.00     0.049 A 
HETATM   18  C   UNL     1     -45.544 -51.498  14.597  1.00  0.00     0.005 A 
HETATM   19  C   UNL     1     -46.611 -51.462  13.709  1.00  0.00     0.017 A 
HETATM   20  C   UNL     1     -46.429 -52.023  12.457  1.00  0.00     0.089 A 
HETATM   21  N   UNL     1     -45.277 -52.598  12.048  1.00  0.00    -0.352 N 
ATOM     22  HN  UNL     1     -45.185 -52.990  11.110  1.00  0.00     0.166 HD
ENDBRANCH   4  16
TORSDOF 2
ENDMDL
MODEL 5
REMARK VINA RESULT:      -6.0      2.363      3.850
REMARK  2 active torsions:
REMARK  status: ('A' for Active; 'I' for Inactive)
REMARK       I    between atoms: C_2  and  N_3 
REMARK       I    between atoms: C_2  and  N_12 
REMARK    1  A    between atoms: N_3  and  C_4 
REMARK    2  A    between atoms: N_12  and  C_13 
ROOT
HETATM    1  O   UNL     1     -41.778 -52.850  12.117  1.00  0.00    -0.247 OA
HETATM    2  C   UNL     1     -41.861 -51.622  12.133  1.00  0.00     0.322 C 
HETATM    3  N   UNL     1     -42.838 -50.955  12.793  1.00  0.00    -0.330 N 
HETATM    4  N   UNL     1     -40.970 -50.889  11.415  1.00  0.00    -0.295 N 
HETATM    5  H   UNL     1     -42.726 -49.946  12.877  1.00  0.00     0.165 HD
HETATM    6  H   UNL     1     -40.303 -51.467  10.928  1.00  0.00     0.172 HD
ENDROOT
BRANCH   3   7
HETATM    7  C   UNL     1     -43.913 -51.626  13.514  1.00  0.00     0.172 C 
HETATM    8  C   UNL     1     -45.251 -50.986  13.133  1.00  0.00     0.034 C 
HETATM    9  C   UNL     1     -46.440 -51.834  13.567  1.00  0.00     0.004 C 
HETATM   10  C   UNL     1     -46.879 -51.611  15.009  1.00  0.00     0.015 C 
HETATM   11  C   UNL     1     -45.789 -51.224  15.996  1.00  0.00     0.095 C 
HETATM   12  N   UNL     1     -44.570 -51.996  15.913  1.00  0.00    -0.261 NA
HETATM   13  C   UNL     1     -43.583 -51.647  15.021  1.00  0.00     0.220 C 
HETATM   14  H   UNL     1     -44.130 -52.122  16.819  1.00  0.00     0.130 HD
HETATM   15  O   UNL     1     -42.440 -51.501  15.460  1.00  0.00    -0.278 OA
ENDBRANCH   3   7
BRANCH   4  16
HETATM   16  C   UNL     1     -40.900 -49.505  11.234  1.00  0.00     0.108 A 
HETATM   17  C   UNL     1     -39.839 -48.836  11.836  1.00  0.00     0.049 A 
HETATM   18  C   UNL     1     -39.730 -47.455  11.672  1.00  0.00     0.005 A 
HETATM   19  C   UNL     1     -40.685 -46.783  10.922  1.00  0.00     0.017 A 
HETATM   20  C   UNL     1     -41.708 -47.527  10.360  1.00  0.00     0.089 A 
HETATM   21  N   UNL     1     -41.829 -48.865  10.494  1.00  0.00    -0.352 N 
ATOM     22  HN  UNL     1     -42.595 -49.374  10.052  1.00  0.00     0.166 HD
ENDBRANCH   4  16
TORSDOF 2
ENDMDL
MODEL 6
REMARK VINA RESULT:      -6.0      2.409      5.706
REMARK  2 active torsions:
REMARK  status: ('A' for Active; 'I' for Inactive)
REMARK       I    between atoms: C_2  and  N_3 
REMARK       I    between atoms: C_2  and  N_12 
REMARK    1  A    between atoms: N_3  and  C_4 
REMARK    2  A    between atoms: N_12  and  C_13 
ROOT
HETATM    1  O   UNL     1     -40.605 -51.076  11.808  1.00  0.00    -0.247 OA
HETATM    2  C   UNL     1     -41.783 -50.814  12.049  1.00  0.00     0.322 C 
HETATM    3  N   UNL     1     -42.367 -49.643  11.698  1.00  0.00    -0.330 N 
HETATM    4  N   UNL     1     -42.531 -51.710  12.745  1.00  0.00    -0.295 N 
HETATM    5  H   UNL     1     -43.380 -49.590  11.799  1.00  0.00     0.165 HD
HETATM    6  H   UNL     1     -42.007 -52.534  12.995  1.00  0.00     0.172 HD
ENDROOT
BRANCH   3   7
HETATM    7  C   UNL     1     -41.648 -48.559  11.042  1.00  0.00     0.172 C 
HETATM    8  C   UNL     1     -40.753 -47.855  12.066  1.00  0.00     0.034 C 
HETATM    9  C   UNL     1     -39.724 -46.947  11.404  1.00  0.00     0.004 C 
HETATM   10  C   UNL     1     -40.238 -45.552  11.072  1.00  0.00     0.015 C 
HETATM   11  C   UNL     1     -41.717 -45.438  10.736  1.00  0.00     0.095 C 
HETATM   12  N   UNL     1     -42.229 -46.436   9.824  1.00  0.00    -0.261 NA
HETATM   13  C   UNL     1     -42.653 -47.657  10.295  1.00  0.00     0.220 C 
HETATM   14  H   UNL     1     -42.959 -46.072   9.222  1.00  0.00     0.130 HD
HETATM   15  O   UNL     1     -43.783 -48.032   9.975  1.00  0.00    -0.278 OA
ENDBRANCH   3   7
BRANCH   4  16
HETATM   16  C   UNL     1     -43.855 -51.612  13.181  1.00  0.00     0.108 A 
HETATM   17  C   UNL     1     -44.070 -51.103  14.459  1.00  0.00     0.049 A 
HETATM   18  C   UNL     1     -45.378 -50.982  14.927  1.00  0.00     0.005 A 
HETATM   19  C   UNL     1     -46.430 -51.381  14.115  1.00  0.00     0.017 A 
HETATM   20  C   UNL     1     -46.126 -51.878  12.860  1.00  0.00     0.089 A 
HETATM   21  N   UNL     1     -44.869 -51.994  12.378  1.00  0.00    -0.352 N 
ATOM     22  HN  UNL     1     -44.693 -52.356  11.441  1.00  0.00     0.166 HD
ENDBRANCH   4  16
TORSDOF 2
ENDMDL
MODEL 7
REMARK VINA RESULT:      -5.6      3.441      6.174
REMARK  2 active torsions:
REMARK  status: ('A' for Active; 'I' for Inactive)
REMARK       I    between atoms: C_2  and  N_3 
REMARK       I    between atoms: C_2  and  N_12 
REMARK    1  A    between atoms: N_3  and  C_4 
REMARK    2  A    between atoms: N_12  and  C_13 
ROOT
HETATM    1  O   UNL     1     -42.504 -45.091   9.748  1.00  0.00    -0.247 OA
HETATM    2  C   UNL     1     -42.188 -46.231  10.087  1.00  0.00     0.322 C 
HETATM    3  N   UNL     1     -42.919 -47.327   9.770  1.00  0.00    -0.330 N 
HETATM    4  N   UNL     1     -41.086 -46.409  10.862  1.00  0.00    -0.295 N 
HETATM    5  H   UNL     1     -42.490 -48.232   9.959  1.00  0.00     0.165 HD
HETATM    6  H   UNL     1     -40.626 -45.538  11.079  1.00  0.00     0.172 HD
ENDROOT
BRANCH   3   7
HETATM    7  C   UNL     1     -44.175 -47.261   9.034  1.00  0.00     0.172 C 
HETATM    8  C   UNL     1     -45.334 -47.570   9.986  1.00  0.00     0.034 C 
HETATM    9  C   UNL     1     -46.684 -47.191   9.391  1.00  0.00     0.004 C 
HETATM   10  C   UNL     1     -47.296 -48.257   8.491  1.00  0.00     0.015 C 
HETATM   11  C   UNL     1     -46.321 -49.138   7.726  1.00  0.00     0.095 C 
HETATM   12  N   UNL     1     -45.228 -48.446   7.081  1.00  0.00    -0.261 NA
HETATM   13  C   UNL     1     -44.079 -48.154   7.779  1.00  0.00     0.220 C 
HETATM   14  H   UNL     1     -44.951 -48.887   6.210  1.00  0.00     0.130 HD
HETATM   15  O   UNL     1     -43.006 -48.509   7.288  1.00  0.00    -0.278 OA
ENDBRANCH   3   7
BRANCH   4  16
HETATM   16  C   UNL     1     -40.568 -47.584  11.413  1.00  0.00     0.108 A 
HETATM   17  C   UNL     1     -40.231 -47.562  12.763  1.00  0.00     0.049 A 
HETATM   18  C   UNL     1     -39.718 -48.717  13.351  1.00  0.00     0.005 A 
HETATM   19  C   UNL     1     -39.548 -49.856  12.576  1.00  0.00     0.017 A 
HETATM   20  C   UNL     1     -39.908 -49.790  11.241  1.00  0.00     0.089 A 
HETATM   21  N   UNL     1     -40.418 -48.687  10.651  1.00  0.00    -0.352 N 
ATOM     22  HN  UNL     1     -40.679 -48.688   9.665  1.00  0.00     0.166 HD
ENDBRANCH   4  16
TORSDOF 2
ENDMDL
MODEL 8
REMARK VINA RESULT:      -5.6      4.742      6.007
REMARK  2 active torsions:
REMARK  status: ('A' for Active; 'I' for Inactive)
REMARK       I    between atoms: C_2  and  N_3 
REMARK       I    between atoms: C_2  and  N_12 
REMARK    1  A    between atoms: N_3  and  C_4 
REMARK    2  A    between atoms: N_12  and  C_13 
ROOT
HETATM    1  O   UNL     1     -42.375 -55.407  15.513  1.00  0.00    -0.247 OA
HETATM    2  C   UNL     1     -42.909 -54.442  14.968  1.00  0.00     0.322 C 
HETATM    3  N   UNL     1     -42.231 -53.323  14.616  1.00  0.00    -0.330 N 
HETATM    4  N   UNL     1     -44.250 -54.463  14.750  1.00  0.00    -0.295 N 
HETATM    5  H   UNL     1     -42.727 -52.653  14.030  1.00  0.00     0.165 HD
HETATM    6  H   UNL     1     -44.677 -55.317  15.075  1.00  0.00     0.172 HD
ENDROOT
BRANCH   3   7
HETATM    7  C   UNL     1     -40.812 -53.132  14.889  1.00  0.00     0.172 C 
HETATM    8  C   UNL     1     -40.637 -51.949  15.845  1.00  0.00     0.034 C 
HETATM    9  C   UNL     1     -39.238 -51.896  16.446  1.00  0.00     0.004 C 
HETATM   10  C   UNL     1     -38.206 -51.191  15.575  1.00  0.00     0.015 C 
HETATM   11  C   UNL     1     -38.412 -51.286  14.071  1.00  0.00     0.095 C 
HETATM   12  N   UNL     1     -38.739 -52.601  13.568  1.00  0.00    -0.261 NA
HETATM   13  C   UNL     1     -40.043 -53.037  13.554  1.00  0.00     0.220 C 
HETATM   14  H   UNL     1     -38.352 -52.769  12.645  1.00  0.00     0.130 HD
HETATM   15  O   UNL     1     -40.493 -53.464  12.489  1.00  0.00    -0.278 OA
ENDBRANCH   3   7
BRANCH   4  16
HETATM   16  C   UNL     1     -45.077 -53.476  14.207  1.00  0.00     0.108 A 
HETATM   17  C   UNL     1     -45.686 -52.594  15.096  1.00  0.00     0.049 A 
HETATM   18  C   UNL     1     -46.512 -51.590  14.592  1.00  0.00     0.005 A 
HETATM   19  C   UNL     1     -46.715 -51.501  13.222  1.00  0.00     0.017 A 
HETATM   20  C   UNL     1     -46.072 -52.419  12.411  1.00  0.00     0.089 A 
HETATM   21  N   UNL     1     -45.257 -53.393  12.873  1.00  0.00    -0.352 N 
ATOM     22  HN  UNL     1     -44.795 -54.043  12.236  1.00  0.00     0.166 HD
ENDBRANCH   4  16
TORSDOF 2
ENDMDL
MODEL 9
REMARK VINA RESULT:      -5.5      4.333      7.024
REMARK  2 active torsions:
REMARK  status: ('A' for Active; 'I' for Inactive)
REMARK       I    between atoms: C_2  and  N_3 
REMARK       I    between atoms: C_2  and  N_12 
REMARK    1  A    between atoms: N_3  and  C_4 
REMARK    2  A    between atoms: N_12  and  C_13 
ROOT
HETATM    1  O   UNL     1     -41.681 -52.389  11.741  1.00  0.00    -0.247 OA
HETATM    2  C   UNL     1     -41.449 -52.955  12.808  1.00  0.00     0.322 C 
HETATM    3  N   UNL     1     -42.423 -53.402  13.636  1.00  0.00    -0.330 N 
HETATM    4  N   UNL     1     -40.160 -53.097  13.215  1.00  0.00    -0.295 N 
HETATM    5  H   UNL     1     -42.129 -53.995  14.411  1.00  0.00     0.165 HD
HETATM    6  H   UNL     1     -39.506 -52.704  12.556  1.00  0.00     0.172 HD
ENDROOT
BRANCH   3   7
HETATM    7  C   UNL     1     -43.844 -53.219  13.366  1.00  0.00     0.172 C 
HETATM    8  C   UNL     1     -44.244 -51.784  13.724  1.00  0.00     0.034 C 
HETATM    9  C   UNL     1     -45.608 -51.409  13.160  1.00  0.00     0.004 C 
HETATM   10  C   UNL     1     -46.786 -51.827  14.031  1.00  0.00     0.015 C 
HETATM   11  C   UNL     1     -46.599 -53.088  14.861  1.00  0.00     0.095 C 
HETATM   12  N   UNL     1     -46.012 -54.212  14.165  1.00  0.00    -0.261 NA
HETATM   13  C   UNL     1     -44.646 -54.335  14.069  1.00  0.00     0.220 C 
HETATM   14  H   UNL     1     -46.376 -55.101  14.492  1.00  0.00     0.130 HD
HETATM   15  O   UNL     1     -44.141 -55.401  14.427  1.00  0.00    -0.278 OA
ENDBRANCH   3   7
BRANCH   4  16
HETATM   16  C   UNL     1     -39.657 -53.645  14.398  1.00  0.00     0.108 A 
HETATM   17  C   UNL     1     -39.772 -52.879  15.555  1.00  0.00     0.049 A 
HETATM   18  C   UNL     1     -39.290 -53.394  16.757  1.00  0.00     0.005 A 
HETATM   19  C   UNL     1     -38.700 -54.651  16.770  1.00  0.00     0.017 A 
HETATM   20  C   UNL     1     -38.626 -55.343  15.574  1.00  0.00     0.089 A 
HETATM   21  N   UNL     1     -39.096 -54.871  14.399  1.00  0.00    -0.352 N 
ATOM     22  HN  UNL     1     -39.029 -55.422  13.543  1.00  0.00     0.166 HD
ENDBRANCH   4  16
TORSDOF 2
ENDMDL
