MODEL 1
REMARK VINA RESULT:      -6.3      0.000      0.000
REMARK  5 active torsions:
REMARK  status: ('A' for Active; 'I' for Inactive)
REMARK    1  A    between atoms: C_3  and  C_4 
REMARK    2  A    between atoms: C_5  and  C_6 
REMARK       I    between atoms: C_6  and  N_8 
REMARK    3  A    between atoms: N_8  and  C_9 
REMARK    4  A    between atoms: C_9  and  C_10 
REMARK    5  A    between atoms: C_10  and  C_11 
ROOT
HETATM    1  C   UNL     1     -43.342 -50.447  13.489  1.00  0.00     0.223 C 
HETATM    2  O   UNL     1     -42.615 -50.710  14.441  1.00  0.00    -0.273 OA
HETATM    3  N   UNL     1     -42.908 -49.808  12.348  1.00  0.00    -0.360 N 
HETATM    4  H   UNL     1     -43.534 -49.756  11.556  1.00  0.00     0.162 HD
ENDROOT
BRANCH   1   5
HETATM    5  C   UNL     1     -44.794 -50.798  13.489  1.00  0.00     0.094 A 
HETATM    6  C   UNL     1     -45.326 -51.868  14.426  1.00  0.00     0.030 A 
HETATM    7  C   UNL     1     -45.317 -52.118  12.926  1.00  0.00    -0.027 A 
HETATM    8  C   UNL     1     -44.391 -53.213  12.456  1.00  0.00     0.016 C 
HETATM    9  C   UNL     1     -46.587 -52.033  12.108  1.00  0.00     0.016 C 
BRANCH   6  10
HETATM   10  C   UNL     1     -46.607 -51.685  15.127  1.00  0.00    -0.019 C 
HETATM   11  C   UNL     1     -46.796 -51.087  16.321  1.00  0.00    -0.091 C 
HETATM   12  C   UNL     1     -45.688 -50.491  17.144  1.00  0.00     0.042 C 
HETATM   13  C   UNL     1     -48.170 -50.982  16.924  1.00  0.00     0.042 C 
ENDBRANCH   6  10
ENDBRANCH   1   5
BRANCH   3  14
HETATM   14  C   UNL     1     -41.502 -49.460  12.171  1.00  0.00     0.128 C 
BRANCH  14  15
HETATM   15  C   UNL     1     -41.165 -49.106  10.725  1.00  0.00     0.076 C 
BRANCH  15  16
HETATM   16  C   UNL     1     -41.975 -47.944  10.207  1.00  0.00     0.010 A 
HETATM   17  C   UNL     1     -41.950 -46.713  10.858  1.00  0.00     0.025 A 
HETATM   18  C   UNL     1     -42.745 -45.675  10.374  1.00  0.00     0.003 A 
HETATM   19  C   UNL     1     -43.536 -45.890   9.252  1.00  0.00     0.017 A 
HETATM   20  C   UNL     1     -43.494 -47.137   8.656  1.00  0.00     0.088 A 
HETATM   21  N   UNL     1     -42.734 -48.164   9.106  1.00  0.00    -0.369 N 
ATOM     22  HN  UNL     1     -42.734 -49.069   8.635  1.00  0.00     0.165 HD
ENDBRANCH  15  16
ENDBRANCH  14  15
ENDBRANCH   3  14
TORSDOF 5
ENDMDL
MODEL 2
REMARK VINA RESULT:      -6.2      1.781      2.332
REMARK  5 active torsions:
REMARK  status: ('A' for Active; 'I' for Inactive)
REMARK    1  A    between atoms: C_3  and  C_4 
REMARK    2  A    between atoms: C_5  and  C_6 
REMARK       I    between atoms: C_6  and  N_8 
REMARK    3  A    between atoms: N_8  and  C_9 
REMARK    4  A    between atoms: C_9  and  C_10 
REMARK    5  A    between atoms: C_10  and  C_11 
ROOT
HETATM    1  C   UNL     1     -41.848 -51.717  12.060  1.00  0.00     0.223 C 
HETATM    2  O   UNL     1     -40.931 -52.378  11.588  1.00  0.00    -0.273 OA
HETATM    3  N   UNL     1     -41.969 -50.353  11.904  1.00  0.00    -0.360 N 
HETATM    4  H   UNL     1     -42.825 -49.906  12.204  1.00  0.00     0.162 HD
ENDROOT
BRANCH   1   5
HETATM    5  C   UNL     1     -42.935 -52.346  12.871  1.00  0.00     0.094 A 
HETATM    6  C   UNL     1     -43.599 -51.573  13.996  1.00  0.00     0.030 A 
HETATM    7  C   UNL     1     -42.729 -52.777  14.321  1.00  0.00    -0.027 A 
HETATM    8  C   UNL     1     -41.458 -52.473  15.077  1.00  0.00     0.016 C 
HETATM    9  C   UNL     1     -43.339 -54.105  14.712  1.00  0.00     0.016 C 
BRANCH   6  10
HETATM   10  C   UNL     1     -45.055 -51.649  14.203  1.00  0.00    -0.019 C 
HETATM   11  C   UNL     1     -45.734 -51.279  15.307  1.00  0.00    -0.091 C 
HETATM   12  C   UNL     1     -45.084 -50.706  16.537  1.00  0.00     0.042 C 
HETATM   13  C   UNL     1     -47.229 -51.426  15.382  1.00  0.00     0.042 C 
ENDBRANCH   6  10
ENDBRANCH   1   5
BRANCH   3  14
HETATM   14  C   UNL     1     -41.021 -49.605  11.084  1.00  0.00     0.128 C 
BRANCH  14  15
HETATM   15  C   UNL     1     -41.390 -48.128  10.966  1.00  0.00     0.076 C 
BRANCH  15  16
HETATM   16  C   UNL     1     -42.609 -47.899  10.108  1.00  0.00     0.010 A 
HETATM   17  C   UNL     1     -43.845 -47.620  10.687  1.00  0.00     0.025 A 
HETATM   18  C   UNL     1     -44.957 -47.457   9.863  1.00  0.00     0.003 A 
HETATM   19  C   UNL     1     -44.806 -47.569   8.486  1.00  0.00     0.017 A 
HETATM   20  C   UNL     1     -43.543 -47.835   7.990  1.00  0.00     0.088 A 
HETATM   21  N   UNL     1     -42.446 -48.002   8.767  1.00  0.00    -0.369 N 
ATOM     22  HN  UNL     1     -41.532 -48.197   8.358  1.00  0.00     0.165 HD
ENDBRANCH  15  16
ENDBRANCH  14  15
ENDBRANCH   3  14
TORSDOF 5
ENDMDL
MODEL 3
REMARK VINA RESULT:      -6.2      1.759      6.382
REMARK  5 active torsions:
REMARK  status: ('A' for Active; 'I' for Inactive)
REMARK    1  A    between atoms: C_3  and  C_4 
REMARK    2  A    between atoms: C_5  and  C_6 
REMARK       I    between atoms: C_6  and  N_8 
REMARK    3  A    between atoms: N_8  and  C_9 
REMARK    4  A    between atoms: C_9  and  C_10 
REMARK    5  A    between atoms: C_10  and  C_11 
ROOT
HETATM    1  C   UNL     1     -42.211 -49.543  12.956  1.00  0.00     0.223 C 
HETATM    2  O   UNL     1     -41.632 -49.602  14.034  1.00  0.00    -0.273 OA
HETATM    3  N   UNL     1     -42.378 -50.622  12.116  1.00  0.00    -0.360 N 
HETATM    4  H   UNL     1     -42.986 -50.521  11.315  1.00  0.00     0.162 HD
ENDROOT
BRANCH   1   5
HETATM    5  C   UNL     1     -42.791 -48.264  12.445  1.00  0.00     0.094 A 
HETATM    6  C   UNL     1     -43.000 -48.056  10.956  1.00  0.00     0.030 A 
HETATM    7  C   UNL     1     -41.958 -47.229  11.692  1.00  0.00    -0.027 A 
HETATM    8  C   UNL     1     -40.525 -47.488  11.295  1.00  0.00     0.016 C 
HETATM    9  C   UNL     1     -42.214 -45.782  12.052  1.00  0.00     0.016 C 
BRANCH   6  10
HETATM   10  C   UNL     1     -44.221 -47.407  10.450  1.00  0.00    -0.019 C 
HETATM   11  C   UNL     1     -44.564 -47.228   9.159  1.00  0.00    -0.091 C 
HETATM   12  C   UNL     1     -43.725 -47.685   7.998  1.00  0.00     0.042 C 
HETATM   13  C   UNL     1     -45.846 -46.532   8.789  1.00  0.00     0.042 C 
ENDBRANCH   6  10
ENDBRANCH   1   5
BRANCH   3  14
HETATM   14  C   UNL     1     -41.923 -51.953  12.505  1.00  0.00     0.128 C 
BRANCH  14  15
HETATM   15  C   UNL     1     -43.052 -52.980  12.500  1.00  0.00     0.076 C 
BRANCH  15  16
HETATM   16  C   UNL     1     -44.348 -52.423  13.033  1.00  0.00     0.010 A 
HETATM   17  C   UNL     1     -44.465 -52.046  14.369  1.00  0.00     0.025 A 
HETATM   18  C   UNL     1     -45.692 -51.575  14.834  1.00  0.00     0.003 A 
HETATM   19  C   UNL     1     -46.764 -51.484  13.955  1.00  0.00     0.017 A 
HETATM   20  C   UNL     1     -46.562 -51.866  12.642  1.00  0.00     0.088 A 
HETATM   21  N   UNL     1     -45.383 -52.331  12.163  1.00  0.00    -0.369 N 
ATOM     22  HN  UNL     1     -45.279 -52.602  11.185  1.00  0.00     0.165 HD
ENDBRANCH  15  16
ENDBRANCH  14  15
ENDBRANCH   3  14
TORSDOF 5
ENDMDL
MODEL 4
REMARK VINA RESULT:      -6.1      2.339      4.260
REMARK  5 active torsions:
REMARK  status: ('A' for Active; 'I' for Inactive)
REMARK    1  A    between atoms: C_3  and  C_4 
REMARK    2  A    between atoms: C_5  and  C_6 
REMARK       I    between atoms: C_6  and  N_8 
REMARK    3  A    between atoms: N_8  and  C_9 
REMARK    4  A    between atoms: C_9  and  C_10 
REMARK    5  A    between atoms: C_10  and  C_11 
ROOT
HETATM    1  C   UNL     1     -43.429 -50.493  13.634  1.00  0.00     0.223 C 
HETATM    2  O   UNL     1     -42.734 -50.750  14.611  1.00  0.00    -0.273 OA
HETATM    3  N   UNL     1     -42.940 -49.934  12.473  1.00  0.00    -0.360 N 
HETATM    4  H   UNL     1     -43.549 -49.884  11.668  1.00  0.00     0.162 HD
ENDROOT
BRANCH   1   5
HETATM    5  C   UNL     1     -44.898 -50.765  13.622  1.00  0.00     0.094 A 
HETATM    6  C   UNL     1     -45.489 -51.833  14.523  1.00  0.00     0.030 A 
HETATM    7  C   UNL     1     -45.491 -52.035  13.015  1.00  0.00    -0.027 A 
HETATM    8  C   UNL     1     -44.625 -53.163  12.511  1.00  0.00     0.016 C 
HETATM    9  C   UNL     1     -46.752 -51.854  12.200  1.00  0.00     0.016 C 
BRANCH   6  10
HETATM   10  C   UNL     1     -46.761 -51.603  15.228  1.00  0.00    -0.019 C 
HETATM   11  C   UNL     1     -46.915 -51.124  16.479  1.00  0.00    -0.091 C 
HETATM   12  C   UNL     1     -45.770 -50.733  17.373  1.00  0.00     0.042 C 
HETATM   13  C   UNL     1     -48.284 -50.952  17.078  1.00  0.00     0.042 C 
ENDBRANCH   6  10
ENDBRANCH   1   5
BRANCH   3  14
HETATM   14  C   UNL     1     -41.514 -49.671  12.309  1.00  0.00     0.128 C 
BRANCH  14  15
HETATM   15  C   UNL     1     -40.801 -50.782  11.542  1.00  0.00     0.076 C 
BRANCH  15  16
HETATM   16  C   UNL     1     -40.479 -51.974  12.408  1.00  0.00     0.010 A 
HETATM   17  C   UNL     1     -39.541 -51.875  13.434  1.00  0.00     0.025 A 
HETATM   18  C   UNL     1     -39.239 -53.010  14.185  1.00  0.00     0.003 A 
HETATM   19  C   UNL     1     -39.884 -54.207  13.900  1.00  0.00     0.017 A 
HETATM   20  C   UNL     1     -40.812 -54.218  12.875  1.00  0.00     0.088 A 
HETATM   21  N   UNL     1     -41.122 -53.132  12.126  1.00  0.00    -0.369 N 
ATOM     22  HN  UNL     1     -41.814 -53.186  11.377  1.00  0.00     0.165 HD
ENDBRANCH  15  16
ENDBRANCH  14  15
ENDBRANCH   3  14
TORSDOF 5
ENDMDL
MODEL 5
REMARK VINA RESULT:      -6.1      3.205      6.929
REMARK  5 active torsions:
REMARK  status: ('A' for Active; 'I' for Inactive)
REMARK    1  A    between atoms: C_3  and  C_4 
REMARK    2  A    between atoms: C_5  and  C_6 
REMARK       I    between atoms: C_6  and  N_8 
REMARK    3  A    between atoms: N_8  and  C_9 
REMARK    4  A    between atoms: C_9  and  C_10 
REMARK    5  A    between atoms: C_10  and  C_11 
ROOT
HETATM    1  C   UNL     1     -41.412 -49.981  11.951  1.00  0.00     0.223 C 
HETATM    2  O   UNL     1     -40.640 -50.055  11.003  1.00  0.00    -0.273 OA
HETATM    3  N   UNL     1     -41.415 -50.864  13.009  1.00  0.00    -0.360 N 
HETATM    4  H   UNL     1     -41.987 -50.652  13.815  1.00  0.00     0.162 HD
ENDROOT
BRANCH   1   5
HETATM    5  C   UNL     1     -42.446 -48.905  12.040  1.00  0.00     0.094 A 
HETATM    6  C   UNL     1     -42.676 -47.963  10.873  1.00  0.00     0.030 A 
HETATM    7  C   UNL     1     -42.081 -47.427  12.166  1.00  0.00    -0.027 A 
HETATM    8  C   UNL     1     -40.655 -46.942  12.072  1.00  0.00     0.016 C 
HETATM    9  C   UNL     1     -42.912 -46.619  13.137  1.00  0.00     0.016 C 
BRANCH   6  10
HETATM   10  C   UNL     1     -44.039 -47.570  10.480  1.00  0.00    -0.019 C 
HETATM   11  C   UNL     1     -44.509 -47.431   9.224  1.00  0.00    -0.091 C 
HETATM   12  C   UNL     1     -43.685 -47.672   7.990  1.00  0.00     0.042 C 
HETATM   13  C   UNL     1     -45.931 -47.009   8.973  1.00  0.00     0.042 C 
ENDBRANCH   6  10
ENDBRANCH   1   5
BRANCH   3  14
HETATM   14  C   UNL     1     -40.422 -51.930  13.098  1.00  0.00     0.128 C 
BRANCH  14  15
HETATM   15  C   UNL     1     -40.900 -53.227  12.449  1.00  0.00     0.076 C 
BRANCH  15  16
HETATM   16  C   UNL     1     -42.145 -53.778  13.097  1.00  0.00     0.010 A 
HETATM   17  C   UNL     1     -42.087 -54.388  14.347  1.00  0.00     0.025 A 
HETATM   18  C   UNL     1     -43.252 -54.923  14.894  1.00  0.00     0.003 A 
HETATM   19  C   UNL     1     -44.443 -54.828  14.185  1.00  0.00     0.017 A 
HETATM   20  C   UNL     1     -44.419 -54.196  12.956  1.00  0.00     0.088 A 
HETATM   21  N   UNL     1     -43.302 -53.670  12.398  1.00  0.00    -0.369 N 
ATOM     22  HN  UNL     1     -43.330 -53.211  11.487  1.00  0.00     0.165 HD
ENDBRANCH  15  16
ENDBRANCH  14  15
ENDBRANCH   3  14
TORSDOF 5
ENDMDL
MODEL 6
REMARK VINA RESULT:      -6.1      2.623      3.755
REMARK  5 active torsions:
REMARK  status: ('A' for Active; 'I' for Inactive)
REMARK    1  A    between atoms: C_3  and  C_4 
REMARK    2  A    between atoms: C_5  and  C_6 
REMARK       I    between atoms: C_6  and  N_8 
REMARK    3  A    between atoms: N_8  and  C_9 
REMARK    4  A    between atoms: C_9  and  C_10 
REMARK    5  A    between atoms: C_10  and  C_11 
ROOT
HETATM    1  C   UNL     1     -40.721 -50.623  11.650  1.00  0.00     0.223 C 
HETATM    2  O   UNL     1     -39.525 -50.377  11.545  1.00  0.00    -0.273 OA
HETATM    3  N   UNL     1     -41.715 -49.685  11.468  1.00  0.00    -0.360 N 
HETATM    4  H   UNL     1     -42.675 -49.999  11.435  1.00  0.00     0.162 HD
ENDROOT
BRANCH   1   5
HETATM    5  C   UNL     1     -41.215 -51.990  12.001  1.00  0.00     0.094 A 
HETATM    6  C   UNL     1     -42.306 -52.168  13.041  1.00  0.00     0.030 A 
HETATM    7  C   UNL     1     -40.897 -52.657  13.336  1.00  0.00    -0.027 A 
HETATM    8  C   UNL     1     -40.177 -51.931  14.446  1.00  0.00     0.016 C 
HETATM    9  C   UNL     1     -40.546 -54.128  13.275  1.00  0.00     0.016 C 
BRANCH   6  10
HETATM   10  C   UNL     1     -43.388 -53.145  12.835  1.00  0.00    -0.019 C 
HETATM   11  C   UNL     1     -44.116 -53.756  13.791  1.00  0.00    -0.091 C 
HETATM   12  C   UNL     1     -43.930 -53.520  15.265  1.00  0.00     0.042 C 
HETATM   13  C   UNL     1     -45.189 -54.747  13.432  1.00  0.00     0.042 C 
ENDBRANCH   6  10
ENDBRANCH   1   5
BRANCH   3  14
HETATM   14  C   UNL     1     -41.393 -48.322  11.059  1.00  0.00     0.128 C 
BRANCH  14  15
HETATM   15  C   UNL     1     -42.622 -47.415  11.035  1.00  0.00     0.076 C 
BRANCH  15  16
HETATM   16  C   UNL     1     -43.490 -47.645   9.824  1.00  0.00     0.010 A 
HETATM   17  C   UNL     1     -44.879 -47.626   9.930  1.00  0.00     0.025 A 
HETATM   18  C   UNL     1     -45.648 -47.885   8.796  1.00  0.00     0.003 A 
HETATM   19  C   UNL     1     -45.013 -48.146   7.588  1.00  0.00     0.017 A 
HETATM   20  C   UNL     1     -43.630 -48.133   7.564  1.00  0.00     0.088 A 
HETATM   21  N   UNL     1     -42.858 -47.889   8.650  1.00  0.00    -0.369 N 
ATOM     22  HN  UNL     1     -41.840 -47.889   8.587  1.00  0.00     0.165 HD
ENDBRANCH  15  16
ENDBRANCH  14  15
ENDBRANCH   3  14
TORSDOF 5
ENDMDL
MODEL 7
REMARK VINA RESULT:      -6.0      1.595      2.086
REMARK  5 active torsions:
REMARK  status: ('A' for Active; 'I' for Inactive)
REMARK    1  A    between atoms: C_3  and  C_4 
REMARK    2  A    between atoms: C_5  and  C_6 
REMARK       I    between atoms: C_6  and  N_8 
REMARK    3  A    between atoms: N_8  and  C_9 
REMARK    4  A    between atoms: C_9  and  C_10 
REMARK    5  A    between atoms: C_10  and  C_11 
ROOT
HETATM    1  C   UNL     1     -43.261 -50.467  13.206  1.00  0.00     0.223 C 
HETATM    2  O   UNL     1     -42.468 -50.906  14.030  1.00  0.00    -0.273 OA
HETATM    3  N   UNL     1     -42.890 -49.734  12.100  1.00  0.00    -0.360 N 
HETATM    4  H   UNL     1     -43.589 -49.531  11.398  1.00  0.00     0.162 HD
ENDROOT
BRANCH   1   5
HETATM    5  C   UNL     1     -44.734 -50.686  13.339  1.00  0.00     0.094 A 
HETATM    6  C   UNL     1     -45.280 -51.597  14.423  1.00  0.00     0.030 A 
HETATM    7  C   UNL     1     -45.401 -52.007  12.964  1.00  0.00    -0.027 A 
HETATM    8  C   UNL     1     -44.604 -53.225  12.564  1.00  0.00     0.016 C 
HETATM    9  C   UNL     1     -46.717 -51.899  12.225  1.00  0.00     0.016 C 
BRANCH   6  10
HETATM   10  C   UNL     1     -46.488 -51.227  15.179  1.00  0.00    -0.019 C 
HETATM   11  C   UNL     1     -46.852 -51.686  16.393  1.00  0.00    -0.091 C 
HETATM   12  C   UNL     1     -46.049 -52.677  17.190  1.00  0.00     0.042 C 
HETATM   13  C   UNL     1     -48.128 -51.225  17.043  1.00  0.00     0.042 C 
ENDBRANCH   6  10
ENDBRANCH   1   5
BRANCH   3  14
HETATM   14  C   UNL     1     -41.483 -49.492  11.798  1.00  0.00     0.128 C 
BRANCH  14  15
HETATM   15  C   UNL     1     -41.293 -48.462  10.688  1.00  0.00     0.076 C 
BRANCH  15  16
HETATM   16  C   UNL     1     -40.663 -47.184  11.182  1.00  0.00     0.010 A 
HETATM   17  C   UNL     1     -40.452 -46.974  12.542  1.00  0.00     0.025 A 
HETATM   18  C   UNL     1     -39.906 -45.762  12.963  1.00  0.00     0.003 A 
HETATM   19  C   UNL     1     -39.580 -44.797  12.018  1.00  0.00     0.017 A 
HETATM   20  C   UNL     1     -39.809 -45.089  10.686  1.00  0.00     0.088 A 
HETATM   21  N   UNL     1     -40.341 -46.256  10.248  1.00  0.00    -0.369 N 
ATOM     22  HN  UNL     1     -40.493 -46.429   9.254  1.00  0.00     0.165 HD
ENDBRANCH  15  16
ENDBRANCH  14  15
ENDBRANCH   3  14
TORSDOF 5
ENDMDL
MODEL 8
REMARK VINA RESULT:      -6.0      2.442      3.454
REMARK  5 active torsions:
REMARK  status: ('A' for Active; 'I' for Inactive)
REMARK    1  A    between atoms: C_3  and  C_4 
REMARK    2  A    between atoms: C_5  and  C_6 
REMARK       I    between atoms: C_6  and  N_8 
REMARK    3  A    between atoms: N_8  and  C_9 
REMARK    4  A    between atoms: C_9  and  C_10 
REMARK    5  A    between atoms: C_10  and  C_11 
ROOT
HETATM    1  C   UNL     1     -40.656 -53.073  13.178  1.00  0.00     0.223 C 
HETATM    2  O   UNL     1     -39.758 -53.897  13.306  1.00  0.00    -0.273 OA
HETATM    3  N   UNL     1     -40.442 -51.715  13.083  1.00  0.00    -0.360 N 
HETATM    4  H   UNL     1     -41.222 -51.119  12.839  1.00  0.00     0.162 HD
ENDROOT
BRANCH   1   5
HETATM    5  C   UNL     1     -42.093 -53.480  13.122  1.00  0.00     0.094 A 
HETATM    6  C   UNL     1     -43.184 -52.499  13.510  1.00  0.00     0.030 A 
HETATM    7  C   UNL     1     -42.926 -53.719  14.379  1.00  0.00    -0.027 A 
HETATM    8  C   UNL     1     -42.394 -53.430  15.761  1.00  0.00     0.016 C 
HETATM    9  C   UNL     1     -43.849 -54.918  14.345  1.00  0.00     0.016 C 
BRANCH   6  10
HETATM   10  C   UNL     1     -44.429 -52.411  12.729  1.00  0.00    -0.019 C 
HETATM   11  C   UNL     1     -45.599 -51.874  13.131  1.00  0.00    -0.091 C 
HETATM   12  C   UNL     1     -45.815 -51.257  14.486  1.00  0.00     0.042 C 
HETATM   13  C   UNL     1     -46.799 -51.865  12.224  1.00  0.00     0.042 C 
ENDBRANCH   6  10
ENDBRANCH   1   5
BRANCH   3  14
HETATM   14  C   UNL     1     -39.089 -51.169  13.057  1.00  0.00     0.128 C 
BRANCH  14  15
HETATM   15  C   UNL     1     -38.798 -50.392  11.775  1.00  0.00     0.076 C 
BRANCH  15  16
HETATM   16  C   UNL     1     -39.727 -49.219  11.582  1.00  0.00     0.010 A 
HETATM   17  C   UNL     1     -39.594 -48.071  12.359  1.00  0.00     0.025 A 
HETATM   18  C   UNL     1     -40.499 -47.025  12.180  1.00  0.00     0.003 A 
HETATM   19  C   UNL     1     -41.504 -47.149  11.229  1.00  0.00     0.017 A 
HETATM   20  C   UNL     1     -41.559 -48.316  10.490  1.00  0.00     0.088 A 
HETATM   21  N   UNL     1     -40.697 -49.350  10.644  1.00  0.00    -0.369 N 
ATOM     22  HN  UNL     1     -40.774 -50.194  10.077  1.00  0.00     0.165 HD
ENDBRANCH  15  16
ENDBRANCH  14  15
ENDBRANCH   3  14
TORSDOF 5
ENDMDL
MODEL 9
REMARK VINA RESULT:      -6.0      4.345      6.111
REMARK  5 active torsions:
REMARK  status: ('A' for Active; 'I' for Inactive)
REMARK    1  A    between atoms: C_3  and  C_4 
REMARK    2  A    between atoms: C_5  and  C_6 
REMARK       I    between atoms: C_6  and  N_8 
REMARK    3  A    between atoms: N_8  and  C_9 
REMARK    4  A    between atoms: C_9  and  C_10 
REMARK    5  A    between atoms: C_10  and  C_11 
ROOT
HETATM    1  C   UNL     1     -45.359 -53.843  16.739  1.00  0.00     0.223 C 
HETATM    2  O   UNL     1     -45.645 -54.582  17.674  1.00  0.00    -0.273 OA
HETATM    3  N   UNL     1     -44.098 -53.753  16.191  1.00  0.00    -0.360 N 
HETATM    4  H   UNL     1     -43.979 -53.227  15.336  1.00  0.00     0.162 HD
ENDROOT
BRANCH   1   5
HETATM    5  C   UNL     1     -46.376 -52.951  16.104  1.00  0.00     0.094 A 
HETATM    6  C   UNL     1     -45.939 -51.765  15.263  1.00  0.00     0.030 A 
HETATM    7  C   UNL     1     -46.637 -51.529  16.593  1.00  0.00    -0.027 A 
HETATM    8  C   UNL     1     -45.793 -50.880  17.663  1.00  0.00     0.016 C 
HETATM    9  C   UNL     1     -48.088 -51.104  16.655  1.00  0.00     0.016 C 
BRANCH   6  10
HETATM   10  C   UNL     1     -46.634 -51.437  14.007  1.00  0.00    -0.019 C 
HETATM   11  C   UNL     1     -46.375 -51.944  12.785  1.00  0.00    -0.091 C 
HETATM   12  C   UNL     1     -45.304 -52.963  12.511  1.00  0.00     0.042 C 
HETATM   13  C   UNL     1     -47.163 -51.503  11.582  1.00  0.00     0.042 C 
ENDBRANCH   6  10
ENDBRANCH   1   5
BRANCH   3  14
HETATM   14  C   UNL     1     -43.013 -54.609  16.661  1.00  0.00     0.128 C 
BRANCH  14  15
HETATM   15  C   UNL     1     -42.254 -55.271  15.513  1.00  0.00     0.076 C 
BRANCH  15  16
HETATM   16  C   UNL     1     -41.494 -54.279  14.669  1.00  0.00     0.010 A 
HETATM   17  C   UNL     1     -40.454 -53.530  15.214  1.00  0.00     0.025 A 
HETATM   18  C   UNL     1     -39.803 -52.593  14.414  1.00  0.00     0.003 A 
HETATM   19  C   UNL     1     -40.201 -52.433  13.092  1.00  0.00     0.017 A 
HETATM   20  C   UNL     1     -41.233 -53.225  12.624  1.00  0.00     0.088 A 
HETATM   21  N   UNL     1     -41.886 -54.140  13.379  1.00  0.00    -0.369 N 
ATOM     22  HN  UNL     1     -42.644 -54.704  12.992  1.00  0.00     0.165 HD
ENDBRANCH  15  16
ENDBRANCH  14  15
ENDBRANCH   3  14
TORSDOF 5
ENDMDL
