MODEL 1
REMARK VINA RESULT:      -6.2      0.000      0.000
REMARK  4 active torsions:
REMARK  status: ('A' for Active; 'I' for Inactive)
REMARK    1  A    between atoms: C_2  and  C_3 
REMARK    2  A    between atoms: C_2  and  N_16 
REMARK    3  A    between atoms: C_3  and  N_4 
REMARK       I    between atoms: N_4  and  C_5 
REMARK       I    between atoms: C_5  and  N_7 
REMARK    4  A    between atoms: N_7  and  C_8 
ROOT
HETATM    1  N   UNL     1     -40.258 -49.846  10.757  1.00  0.00    -0.341 N 
HETATM    2  C   UNL     1     -41.368 -49.063  10.870  1.00  0.00     0.321 C 
HETATM    3  O   UNL     1     -42.076 -48.986  11.860  1.00  0.00    -0.247 OA
HETATM    4  N   UNL     1     -41.660 -48.373   9.666  1.00  0.00    -0.293 N 
HETATM    5  H   UNL     1     -39.562 -49.715  10.035  1.00  0.00     0.164 HD
HETATM    6  H   UNL     1     -41.134 -48.587   8.833  1.00  0.00     0.172 HD
ENDROOT
BRANCH   1   7
HETATM    7  C   UNL     1     -39.869 -50.601  11.931  1.00  0.00     0.159 C 
BRANCH   7   8
HETATM    8  C   UNL     1     -38.690 -49.977  12.706  1.00  0.00     0.236 C 
HETATM    9  C   UNL     1     -37.450 -50.827  12.381  1.00  0.00     0.044 C 
BRANCH   8  10
HETATM   10  N   UNL     1     -39.037 -49.663  14.114  1.00  0.00     0.094 N 
HETATM   11  C   UNL     1     -39.557 -48.306  14.335  1.00  0.00     0.273 C 
HETATM   12  C   UNL     1     -38.492 -47.215  14.492  1.00  0.00     0.031 C 
HETATM   13  C   UNL     1     -37.350 -47.606  15.432  1.00  0.00     0.007 C 
HETATM   14  C   UNL     1     -36.872 -49.046  15.219  1.00  0.00     0.010 C 
HETATM   15  C   UNL     1     -35.875 -49.475  16.293  1.00  0.00     0.011 C 
HETATM   16  C   UNL     1     -38.064 -50.004  15.158  1.00  0.00     0.277 C 
ENDBRANCH   8  10
ENDBRANCH   7   8
ENDBRANCH   1   7
BRANCH   4  17
HETATM   17  C   UNL     1     -42.737 -47.490   9.588  1.00  0.00     0.127 A 
HETATM   18  C   UNL     1     -43.986 -47.734   9.057  1.00  0.00     0.076 A 
HETATM   19  C   UNL     1     -44.708 -46.535   9.199  1.00  0.00     0.025 A 
HETATM   20  C   UNL     1     -46.097 -46.263   8.756  1.00  0.00     0.070 C 
HETATM   21  N   UNL     1     -43.978 -45.591   9.805  1.00  0.00    -0.302 N 
HETATM   22  N   UNL     1     -42.785 -46.186  10.015  1.00  0.00    -0.281 N 
ATOM     23  HN  UNL     1     -44.259 -44.642  10.051  1.00  0.00     0.186 HD
HETATM   24  C   UNL     1     -41.700 -45.393  10.540  1.00  0.00     0.179 C 
ENDBRANCH   4  17
TORSDOF 4
ENDMDL
MODEL 2
REMARK VINA RESULT:      -6.2      3.719      5.581
REMARK  4 active torsions:
REMARK  status: ('A' for Active; 'I' for Inactive)
REMARK    1  A    between atoms: C_2  and  C_3 
REMARK    2  A    between atoms: C_2  and  N_16 
REMARK    3  A    between atoms: C_3  and  N_4 
REMARK       I    between atoms: N_4  and  C_5 
REMARK       I    between atoms: C_5  and  N_7 
REMARK    4  A    between atoms: N_7  and  C_8 
ROOT
HETATM    1  N   UNL     1     -40.640 -51.186  11.257  1.00  0.00    -0.341 N 
HETATM    2  C   UNL     1     -41.582 -51.645  12.129  1.00  0.00     0.321 C 
HETATM    3  O   UNL     1     -42.262 -50.945  12.860  1.00  0.00    -0.247 OA
HETATM    4  N   UNL     1     -41.652 -53.061  12.145  1.00  0.00    -0.293 N 
HETATM    5  H   UNL     1     -40.268 -51.748  10.502  1.00  0.00     0.164 HD
HETATM    6  H   UNL     1     -40.966 -53.596  11.636  1.00  0.00     0.172 HD
ENDROOT
BRANCH   1   7
HETATM    7  C   UNL     1     -40.480 -49.750  11.163  1.00  0.00     0.159 C 
BRANCH   7   8
HETATM    8  C   UNL     1     -39.295 -49.203  11.984  1.00  0.00     0.236 C 
HETATM    9  C   UNL     1     -38.082 -50.088  11.652  1.00  0.00     0.044 C 
BRANCH   8  10
HETATM   10  N   UNL     1     -39.659 -48.927  13.395  1.00  0.00     0.094 N 
HETATM   11  C   UNL     1     -40.504 -47.741  13.596  1.00  0.00     0.273 C 
HETATM   12  C   UNL     1     -39.755 -46.406  13.667  1.00  0.00     0.031 C 
HETATM   13  C   UNL     1     -38.516 -46.448  14.564  1.00  0.00     0.007 C 
HETATM   14  C   UNL     1     -37.688 -47.725  14.376  1.00  0.00     0.010 C 
HETATM   15  C   UNL     1     -36.575 -47.833  15.416  1.00  0.00     0.011 C 
HETATM   16  C   UNL     1     -38.593 -48.958  14.404  1.00  0.00     0.277 C 
ENDBRANCH   8  10
ENDBRANCH   7   8
ENDBRANCH   1   7
BRANCH   4  17
HETATM   17  C   UNL     1     -42.582 -53.725  12.945  1.00  0.00     0.127 A 
HETATM   18  C   UNL     1     -43.929 -53.893  12.705  1.00  0.00     0.076 A 
HETATM   19  C   UNL     1     -44.432 -54.613  13.803  1.00  0.00     0.025 A 
HETATM   20  C   UNL     1     -45.837 -55.023  14.043  1.00  0.00     0.070 C 
HETATM   21  N   UNL     1     -43.465 -54.909  14.680  1.00  0.00    -0.302 N 
HETATM   22  N   UNL     1     -42.359 -54.348  14.149  1.00  0.00    -0.281 N 
ATOM     23  HN  UNL     1     -43.546 -55.438  15.548  1.00  0.00     0.186 HD
HETATM   24  C   UNL     1     -41.139 -54.363  14.917  1.00  0.00     0.179 C 
ENDBRANCH   4  17
TORSDOF 4
ENDMDL
MODEL 3
REMARK VINA RESULT:      -6.2      4.806      5.790
REMARK  4 active torsions:
REMARK  status: ('A' for Active; 'I' for Inactive)
REMARK    1  A    between atoms: C_2  and  C_3 
REMARK    2  A    between atoms: C_2  and  N_16 
REMARK    3  A    between atoms: C_3  and  N_4 
REMARK       I    between atoms: N_4  and  C_5 
REMARK       I    between atoms: C_5  and  N_7 
REMARK    4  A    between atoms: N_7  and  C_8 
ROOT
HETATM    1  N   UNL     1     -42.284 -52.303  11.706  1.00  0.00    -0.341 N 
HETATM    2  C   UNL     1     -43.044 -52.468  12.824  1.00  0.00     0.321 C 
HETATM    3  O   UNL     1     -42.612 -52.718  13.937  1.00  0.00    -0.247 OA
HETATM    4  N   UNL     1     -44.432 -52.377  12.547  1.00  0.00    -0.293 N 
HETATM    5  H   UNL     1     -42.632 -51.865  10.862  1.00  0.00     0.164 HD
HETATM    6  H   UNL     1     -44.741 -52.321  11.589  1.00  0.00     0.172 HD
ENDROOT
BRANCH   1   7
HETATM    7  C   UNL     1     -40.847 -52.381  11.874  1.00  0.00     0.159 C 
BRANCH   7   8
HETATM    8  C   UNL     1     -40.206 -51.060  12.349  1.00  0.00     0.236 C 
HETATM    9  C   UNL     1     -40.497 -50.013  11.260  1.00  0.00     0.044 C 
BRANCH   8  10
HETATM   10  N   UNL     1     -38.827 -51.248  12.861  1.00  0.00     0.094 N 
HETATM   11  C   UNL     1     -38.722 -52.099  14.055  1.00  0.00     0.273 C 
HETATM   12  C   UNL     1     -38.980 -51.391  15.389  1.00  0.00     0.031 C 
HETATM   13  C   UNL     1     -38.261 -50.046  15.516  1.00  0.00     0.007 C 
HETATM   14  C   UNL     1     -38.336 -49.208  14.235  1.00  0.00     0.010 C 
HETATM   15  C   UNL     1     -37.451 -47.967  14.320  1.00  0.00     0.011 C 
HETATM   16  C   UNL     1     -37.979 -50.060  13.016  1.00  0.00     0.277 C 
ENDBRANCH   8  10
ENDBRANCH   7   8
ENDBRANCH   1   7
BRANCH   4  17
HETATM   17  C   UNL     1     -45.377 -52.480  13.567  1.00  0.00     0.127 A 
HETATM   18  C   UNL     1     -45.972 -51.453  14.268  1.00  0.00     0.076 A 
HETATM   19  C   UNL     1     -46.835 -52.066  15.194  1.00  0.00     0.025 A 
HETATM   20  C   UNL     1     -47.687 -51.397  16.209  1.00  0.00     0.070 C 
HETATM   21  N   UNL     1     -46.814 -53.398  15.079  1.00  0.00    -0.302 N 
HETATM   22  N   UNL     1     -45.913 -53.627  14.101  1.00  0.00    -0.281 N 
ATOM     23  HN  UNL     1     -47.355 -54.083  15.607  1.00  0.00     0.186 HD
HETATM   24  C   UNL     1     -45.541 -54.989  13.808  1.00  0.00     0.179 C 
ENDBRANCH   4  17
TORSDOF 4
ENDMDL
MODEL 4
REMARK VINA RESULT:      -6.0      3.485      5.267
REMARK  4 active torsions:
REMARK  status: ('A' for Active; 'I' for Inactive)
REMARK    1  A    between atoms: C_2  and  C_3 
REMARK    2  A    between atoms: C_2  and  N_16 
REMARK    3  A    between atoms: C_3  and  N_4 
REMARK       I    between atoms: N_4  and  C_5 
REMARK       I    between atoms: C_5  and  N_7 
REMARK    4  A    between atoms: N_7  and  C_8 
ROOT
HETATM    1  N   UNL     1     -40.877 -51.047  11.370  1.00  0.00    -0.341 N 
HETATM    2  C   UNL     1     -40.915 -49.703  11.592  1.00  0.00     0.321 C 
HETATM    3  O   UNL     1     -40.601 -49.154  12.634  1.00  0.00    -0.247 OA
HETATM    4  N   UNL     1     -41.426 -48.991  10.477  1.00  0.00    -0.293 N 
HETATM    5  H   UNL     1     -40.906 -51.454  10.444  1.00  0.00     0.164 HD
HETATM    6  H   UNL     1     -41.812 -49.502   9.699  1.00  0.00     0.172 HD
ENDROOT
BRANCH   1   7
HETATM    7  C   UNL     1     -40.373 -51.874  12.448  1.00  0.00     0.159 C 
BRANCH   7   8
HETATM    8  C   UNL     1     -41.452 -52.758  13.107  1.00  0.00     0.236 C 
HETATM    9  C   UNL     1     -41.004 -54.217  12.916  1.00  0.00     0.044 C 
BRANCH   8  10
HETATM   10  N   UNL     1     -42.829 -52.342  12.744  1.00  0.00     0.094 N 
HETATM   11  C   UNL     1     -43.373 -51.237  13.546  1.00  0.00     0.273 C 
HETATM   12  C   UNL     1     -43.992 -51.644  14.888  1.00  0.00     0.031 C 
HETATM   13  C   UNL     1     -44.917 -52.859  14.790  1.00  0.00     0.007 C 
HETATM   14  C   UNL     1     -44.350 -53.969  13.898  1.00  0.00     0.010 C 
HETATM   15  C   UNL     1     -45.371 -55.079  13.660  1.00  0.00     0.011 C 
HETATM   16  C   UNL     1     -43.846 -53.388  12.576  1.00  0.00     0.277 C 
ENDBRANCH   8  10
ENDBRANCH   7   8
ENDBRANCH   1   7
BRANCH   4  17
HETATM   17  C   UNL     1     -41.510 -47.599  10.491  1.00  0.00     0.127 A 
HETATM   18  C   UNL     1     -40.509 -46.701  10.795  1.00  0.00     0.076 A 
HETATM   19  C   UNL     1     -41.088 -45.423  10.682  1.00  0.00     0.025 A 
HETATM   20  C   UNL     1     -40.436 -44.115  10.937  1.00  0.00     0.070 C 
HETATM   21  N   UNL     1     -42.370 -45.497  10.307  1.00  0.00    -0.302 N 
HETATM   22  N   UNL     1     -42.608 -46.821  10.214  1.00  0.00    -0.281 N 
ATOM     23  HN  UNL     1     -43.017 -44.728  10.131  1.00  0.00     0.186 HD
HETATM   24  C   UNL     1     -43.955 -47.266   9.954  1.00  0.00     0.179 C 
ENDBRANCH   4  17
TORSDOF 4
ENDMDL
MODEL 5
REMARK VINA RESULT:      -6.0      4.564      6.399
REMARK  4 active torsions:
REMARK  status: ('A' for Active; 'I' for Inactive)
REMARK    1  A    between atoms: C_2  and  C_3 
REMARK    2  A    between atoms: C_2  and  N_16 
REMARK    3  A    between atoms: C_3  and  N_4 
REMARK       I    between atoms: N_4  and  C_5 
REMARK       I    between atoms: C_5  and  N_7 
REMARK    4  A    between atoms: N_7  and  C_8 
ROOT
HETATM    1  N   UNL     1     -41.901 -53.202  12.386  1.00  0.00    -0.341 N 
HETATM    2  C   UNL     1     -41.487 -51.918  12.577  1.00  0.00     0.321 C 
HETATM    3  O   UNL     1     -41.534 -51.315  13.636  1.00  0.00    -0.247 OA
HETATM    4  N   UNL     1     -41.041 -51.315  11.374  1.00  0.00    -0.293 N 
HETATM    5  H   UNL     1     -41.634 -53.753  11.580  1.00  0.00     0.164 HD
HETATM    6  H   UNL     1     -41.164 -51.803  10.501  1.00  0.00     0.172 HD
ENDROOT
BRANCH   1   7
HETATM    7  C   UNL     1     -42.382 -53.914  13.552  1.00  0.00     0.159 C 
BRANCH   7   8
HETATM    8  C   UNL     1     -43.909 -54.138  13.554  1.00  0.00     0.236 C 
HETATM    9  C   UNL     1     -44.461 -53.427  12.307  1.00  0.00     0.044 C 
BRANCH   8  10
HETATM   10  N   UNL     1     -44.517 -53.900  14.886  1.00  0.00     0.094 N 
HETATM   11  C   UNL     1     -45.978 -54.054  14.935  1.00  0.00     0.273 C 
HETATM   12  C   UNL     1     -46.782 -52.826  14.495  1.00  0.00     0.031 C 
HETATM   13  C   UNL     1     -46.273 -51.515  15.096  1.00  0.00     0.007 C 
HETATM   14  C   UNL     1     -44.744 -51.410  15.086  1.00  0.00     0.010 C 
HETATM   15  C   UNL     1     -44.256 -50.190  15.864  1.00  0.00     0.011 C 
HETATM   16  C   UNL     1     -44.115 -52.696  15.624  1.00  0.00     0.277 C 
ENDBRANCH   8  10
ENDBRANCH   7   8
ENDBRANCH   1   7
BRANCH   4  17
HETATM   17  C   UNL     1     -40.542 -50.013  11.365  1.00  0.00     0.127 A 
HETATM   18  C   UNL     1     -41.230 -48.851  11.086  1.00  0.00     0.076 A 
HETATM   19  C   UNL     1     -40.291 -47.809  11.194  1.00  0.00     0.025 A 
HETATM   20  C   UNL     1     -40.521 -46.362  10.959  1.00  0.00     0.070 C 
HETATM   21  N   UNL     1     -39.085 -48.269  11.544  1.00  0.00    -0.302 N 
HETATM   22  N   UNL     1     -39.256 -49.605  11.626  1.00  0.00    -0.281 N 
ATOM     23  HN  UNL     1     -38.233 -47.734  11.712  1.00  0.00     0.186 HD
HETATM   24  C   UNL     1     -38.101 -50.438  11.857  1.00  0.00     0.179 C 
ENDBRANCH   4  17
TORSDOF 4
ENDMDL
MODEL 6
REMARK VINA RESULT:      -6.0      4.433      6.073
REMARK  4 active torsions:
REMARK  status: ('A' for Active; 'I' for Inactive)
REMARK    1  A    between atoms: C_2  and  C_3 
REMARK    2  A    between atoms: C_2  and  N_16 
REMARK    3  A    between atoms: C_3  and  N_4 
REMARK       I    between atoms: N_4  and  C_5 
REMARK       I    between atoms: C_5  and  N_7 
REMARK    4  A    between atoms: N_7  and  C_8 
ROOT
HETATM    1  N   UNL     1     -42.650 -50.966  12.615  1.00  0.00    -0.341 N 
HETATM    2  C   UNL     1     -42.475 -49.629  12.414  1.00  0.00     0.321 C 
HETATM    3  O   UNL     1     -42.838 -48.751  13.179  1.00  0.00    -0.247 OA
HETATM    4  N   UNL     1     -41.866 -49.351  11.165  1.00  0.00    -0.293 N 
HETATM    5  H   UNL     1     -42.138 -51.672  12.102  1.00  0.00     0.164 HD
HETATM    6  H   UNL     1     -41.724 -50.100  10.506  1.00  0.00     0.172 HD
ENDROOT
BRANCH   1   7
HETATM    7  C   UNL     1     -43.270 -51.364  13.862  1.00  0.00     0.159 C 
BRANCH   7   8
HETATM    8  C   UNL     1     -43.305 -52.892  14.076  1.00  0.00     0.236 C 
HETATM    9  C   UNL     1     -42.358 -53.506  13.031  1.00  0.00     0.044 C 
BRANCH   8  10
HETATM   10  N   UNL     1     -44.684 -53.413  14.238  1.00  0.00     0.094 N 
HETATM   11  C   UNL     1     -45.515 -53.350  13.026  1.00  0.00     0.273 C 
HETATM   12  C   UNL     1     -46.195 -52.002  12.767  1.00  0.00     0.031 C 
HETATM   13  C   UNL     1     -46.858 -51.403  14.009  1.00  0.00     0.007 C 
HETATM   14  C   UNL     1     -45.994 -51.538  15.268  1.00  0.00     0.010 C 
HETATM   15  C   UNL     1     -46.755 -51.115  16.523  1.00  0.00     0.011 C 
HETATM   16  C   UNL     1     -45.460 -52.966  15.401  1.00  0.00     0.277 C 
ENDBRANCH   8  10
ENDBRANCH   7   8
ENDBRANCH   1   7
BRANCH   4  17
HETATM   17  C   UNL     1     -41.567 -48.042  10.788  1.00  0.00     0.127 A 
HETATM   18  C   UNL     1     -40.474 -47.289  11.162  1.00  0.00     0.076 A 
HETATM   19  C   UNL     1     -40.631 -46.039  10.536  1.00  0.00     0.025 A 
HETATM   20  C   UNL     1     -39.738 -44.860  10.643  1.00  0.00     0.070 C 
HETATM   21  N   UNL     1     -41.741 -46.001   9.788  1.00  0.00    -0.302 N 
HETATM   22  N   UNL     1     -42.298 -47.216   9.970  1.00  0.00    -0.281 N 
ATOM     23  HN  UNL     1     -42.084 -45.231   9.214  1.00  0.00     0.186 HD
HETATM   24  C   UNL     1     -43.600 -47.471   9.402  1.00  0.00     0.179 C 
ENDBRANCH   4  17
TORSDOF 4
ENDMDL
MODEL 7
REMARK VINA RESULT:      -5.9      3.612      6.457
REMARK  4 active torsions:
REMARK  status: ('A' for Active; 'I' for Inactive)
REMARK    1  A    between atoms: C_2  and  C_3 
REMARK    2  A    between atoms: C_2  and  N_16 
REMARK    3  A    between atoms: C_3  and  N_4 
REMARK       I    between atoms: N_4  and  C_5 
REMARK       I    between atoms: C_5  and  N_7 
REMARK    4  A    between atoms: N_7  and  C_8 
ROOT
HETATM    1  N   UNL     1     -40.783 -50.362  11.079  1.00  0.00    -0.341 N 
HETATM    2  C   UNL     1     -41.403 -51.074  12.062  1.00  0.00     0.321 C 
HETATM    3  O   UNL     1     -41.429 -50.767  13.242  1.00  0.00    -0.247 OA
HETATM    4  N   UNL     1     -41.979 -52.273  11.572  1.00  0.00    -0.293 N 
HETATM    5  H   UNL     1     -40.975 -50.498  10.095  1.00  0.00     0.164 HD
HETATM    6  H   UNL     1     -41.800 -52.555  10.621  1.00  0.00     0.172 HD
ENDROOT
BRANCH   1   7
HETATM    7  C   UNL     1     -40.154 -49.117  11.471  1.00  0.00     0.159 C 
BRANCH   7   8
HETATM    8  C   UNL     1     -41.058 -47.881  11.285  1.00  0.00     0.236 C 
HETATM    9  C   UNL     1     -41.979 -48.184  10.091  1.00  0.00     0.044 C 
BRANCH   8  10
HETATM   10  N   UNL     1     -40.301 -46.607  11.346  1.00  0.00     0.094 N 
HETATM   11  C   UNL     1     -39.676 -46.320  12.645  1.00  0.00     0.273 C 
HETATM   12  C   UNL     1     -40.596 -45.669  13.685  1.00  0.00     0.031 C 
HETATM   13  C   UNL     1     -41.430 -44.516  13.125  1.00  0.00     0.007 C 
HETATM   14  C   UNL     1     -42.018 -44.822  11.743  1.00  0.00     0.010 C 
HETATM   15  C   UNL     1     -42.676 -43.591  11.124  1.00  0.00     0.011 C 
HETATM   16  C   UNL     1     -40.942 -45.396  10.819  1.00  0.00     0.277 C 
ENDBRANCH   8  10
ENDBRANCH   7   8
ENDBRANCH   1   7
BRANCH   4  17
HETATM   17  C   UNL     1     -42.693 -53.124  12.415  1.00  0.00     0.127 A 
HETATM   18  C   UNL     1     -44.061 -53.268  12.501  1.00  0.00     0.076 A 
HETATM   19  C   UNL     1     -44.288 -54.230  13.502  1.00  0.00     0.025 A 
HETATM   20  C   UNL     1     -45.597 -54.720  13.999  1.00  0.00     0.070 C 
HETATM   21  N   UNL     1     -43.138 -54.692  14.008  1.00  0.00    -0.302 N 
HETATM   22  N   UNL     1     -42.189 -53.997  13.348  1.00  0.00    -0.281 N 
ATOM     23  HN  UNL     1     -43.010 -55.404  14.726  1.00  0.00     0.186 HD
HETATM   24  C   UNL     1     -40.812 -54.153  13.751  1.00  0.00     0.179 C 
ENDBRANCH   4  17
TORSDOF 4
ENDMDL
MODEL 8
REMARK VINA RESULT:      -5.8      4.965      6.976
REMARK  4 active torsions:
REMARK  status: ('A' for Active; 'I' for Inactive)
REMARK    1  A    between atoms: C_2  and  C_3 
REMARK    2  A    between atoms: C_2  and  N_16 
REMARK    3  A    between atoms: C_3  and  N_4 
REMARK       I    between atoms: N_4  and  C_5 
REMARK       I    between atoms: C_5  and  N_7 
REMARK    4  A    between atoms: N_7  and  C_8 
ROOT
HETATM    1  N   UNL     1     -42.729 -52.801  11.832  1.00  0.00    -0.341 N 
HETATM    2  C   UNL     1     -42.186 -51.628  12.264  1.00  0.00     0.321 C 
HETATM    3  O   UNL     1     -42.742 -50.820  12.988  1.00  0.00    -0.247 OA
HETATM    4  N   UNL     1     -40.894 -51.405  11.722  1.00  0.00    -0.293 N 
HETATM    5  H   UNL     1     -42.177 -53.554  11.442  1.00  0.00     0.164 HD
HETATM    6  H   UNL     1     -40.543 -52.027  11.011  1.00  0.00     0.172 HD
ENDROOT
BRANCH   1   7
HETATM    7  C   UNL     1     -44.053 -53.128  12.323  1.00  0.00     0.159 C 
BRANCH   7   8
HETATM    8  C   UNL     1     -44.093 -53.444  13.832  1.00  0.00     0.236 C 
HETATM    9  C   UNL     1     -43.000 -54.494  14.093  1.00  0.00     0.044 C 
BRANCH   8  10
HETATM   10  N   UNL     1     -45.473 -53.657  14.332  1.00  0.00     0.094 N 
HETATM   11  C   UNL     1     -46.492 -52.789  13.725  1.00  0.00     0.273 C 
HETATM   12  C   UNL     1     -46.622 -51.395  14.350  1.00  0.00     0.031 C 
HETATM   13  C   UNL     1     -46.648 -51.412  15.879  1.00  0.00     0.007 C 
HETATM   14  C   UNL     1     -45.616 -52.372  16.481  1.00  0.00     0.010 C 
HETATM   15  C   UNL     1     -45.794 -52.517  17.991  1.00  0.00     0.011 C 
HETATM   16  C   UNL     1     -45.679 -53.732  15.784  1.00  0.00     0.277 C 
ENDBRANCH   8  10
ENDBRANCH   7   8
ENDBRANCH   1   7
BRANCH   4  17
HETATM   17  C   UNL     1     -40.154 -50.276  12.072  1.00  0.00     0.127 A 
HETATM   18  C   UNL     1     -39.118 -50.199  12.978  1.00  0.00     0.076 A 
HETATM   19  C   UNL     1     -38.711 -48.853  12.988  1.00  0.00     0.025 A 
HETATM   20  C   UNL     1     -37.648 -48.240  13.821  1.00  0.00     0.070 C 
HETATM   21  N   UNL     1     -39.423 -48.118  12.125  1.00  0.00    -0.302 N 
HETATM   22  N   UNL     1     -40.300 -48.996  11.595  1.00  0.00    -0.281 N 
ATOM     23  HN  UNL     1     -39.325 -47.125  11.917  1.00  0.00     0.186 HD
HETATM   24  C   UNL     1     -41.325 -48.501  10.710  1.00  0.00     0.179 C 
ENDBRANCH   4  17
TORSDOF 4
ENDMDL
MODEL 9
REMARK VINA RESULT:      -5.7      2.921      4.164
REMARK  4 active torsions:
REMARK  status: ('A' for Active; 'I' for Inactive)
REMARK    1  A    between atoms: C_2  and  C_3 
REMARK    2  A    between atoms: C_2  and  N_16 
REMARK    3  A    between atoms: C_3  and  N_4 
REMARK       I    between atoms: N_4  and  C_5 
REMARK       I    between atoms: C_5  and  N_7 
REMARK    4  A    between atoms: N_7  and  C_8 
ROOT
HETATM    1  N   UNL     1     -40.978 -50.380  11.346  1.00  0.00    -0.341 N 
HETATM    2  C   UNL     1     -41.731 -49.247  11.425  1.00  0.00     0.321 C 
HETATM    3  O   UNL     1     -42.764 -49.132  12.064  1.00  0.00    -0.247 OA
HETATM    4  N   UNL     1     -41.213 -48.202  10.618  1.00  0.00    -0.293 N 
HETATM    5  H   UNL     1     -40.020 -50.383  11.019  1.00  0.00     0.164 HD
HETATM    6  H   UNL     1     -40.446 -48.394   9.994  1.00  0.00     0.172 HD
ENDROOT
BRANCH   1   7
HETATM    7  C   UNL     1     -41.421 -51.515  12.130  1.00  0.00     0.159 C 
BRANCH   7   8
HETATM    8  C   UNL     1     -40.351 -52.050  13.104  1.00  0.00     0.236 C 
HETATM    9  C   UNL     1     -39.084 -51.207  12.874  1.00  0.00     0.044 C 
BRANCH   8  10
HETATM   10  N   UNL     1     -40.276 -53.531  13.109  1.00  0.00     0.094 N 
HETATM   11  C   UNL     1     -41.573 -54.216  13.216  1.00  0.00     0.273 C 
HETATM   12  C   UNL     1     -42.117 -54.369  14.641  1.00  0.00     0.031 C 
HETATM   13  C   UNL     1     -41.071 -54.855  15.646  1.00  0.00     0.007 C 
HETATM   14  C   UNL     1     -39.713 -54.167  15.470  1.00  0.00     0.010 C 
HETATM   15  C   UNL     1     -38.638 -54.806  16.347  1.00  0.00     0.011 C 
HETATM   16  C   UNL     1     -39.297 -54.171  13.997  1.00  0.00     0.277 C 
ENDBRANCH   8  10
ENDBRANCH   7   8
ENDBRANCH   1   7
BRANCH   4  17
HETATM   17  C   UNL     1     -41.820 -46.947  10.591  1.00  0.00     0.127 A 
HETATM   18  C   UNL     1     -41.502 -45.843  11.352  1.00  0.00     0.076 A 
HETATM   19  C   UNL     1     -42.404 -44.834  10.969  1.00  0.00     0.025 A 
HETATM   20  C   UNL     1     -42.501 -43.458  11.515  1.00  0.00     0.070 C 
HETATM   21  N   UNL     1     -43.232 -45.256  10.006  1.00  0.00    -0.302 N 
HETATM   22  N   UNL     1     -42.872 -46.541   9.806  1.00  0.00    -0.281 N 
ATOM     23  HN  UNL     1     -43.966 -44.729   9.534  1.00  0.00     0.186 HD
HETATM   24  C   UNL     1     -43.664 -47.350   8.912  1.00  0.00     0.179 C 
ENDBRANCH   4  17
TORSDOF 4
ENDMDL
