MODEL 1
REMARK VINA RESULT:      -5.9      0.000      0.000
REMARK  3 active torsions:
REMARK  status: ('A' for Active; 'I' for Inactive)
REMARK       I    between atoms: C_2  and  N_3 
REMARK       I    between atoms: C_2  and  N_10 
REMARK    1  A    between atoms: N_3  and  C_4 
REMARK    2  A    between atoms: C_4  and  C_5 
REMARK    3  A    between atoms: N_10  and  C_11 
ROOT
HETATM    1  O   UNL     1     -42.350 -48.346  11.826  1.00  0.00    -0.247 OA
HETATM    2  C   UNL     1     -41.863 -48.643  10.740  1.00  0.00     0.320 C 
HETATM    3  N   UNL     1     -40.868 -49.588  10.608  1.00  0.00    -0.340 N 
HETATM    4  N   UNL     1     -42.207 -48.099   9.525  1.00  0.00    -0.306 N 
HETATM    5  H   UNL     1     -40.917 -50.145   9.765  1.00  0.00     0.164 HD
HETATM    6  H   UNL     1     -41.610 -48.288   8.736  1.00  0.00     0.171 HD
ENDROOT
BRANCH   3   7
HETATM    7  C   UNL     1     -40.463 -50.342  11.787  1.00  0.00     0.156 C 
BRANCH   7   8
HETATM    8  C   UNL     1     -41.015 -51.765  11.793  1.00  0.00     0.139 C 
HETATM    9  C   UNL     1     -42.344 -51.945  12.513  1.00  0.00     0.035 C 
HETATM   10  C   UNL     1     -42.239 -53.308  13.168  1.00  0.00     0.029 C 
HETATM   11  C   UNL     1     -40.858 -53.814  12.801  1.00  0.00     0.168 C 
HETATM   12  O   UNL     1     -40.098 -52.652  12.461  1.00  0.00    -0.384 OA
ENDBRANCH   7   8
ENDBRANCH   3   7
BRANCH   4  13
HETATM   13  C   UNL     1     -43.250 -47.212   9.347  1.00  0.00     0.070 A 
HETATM   14  C   UNL     1     -44.589 -47.418   8.945  1.00  0.00     0.138 A 
HETATM   15  N   UNL     1     -45.281 -46.275   8.870  1.00  0.00    -0.310 N 
HETATM   16  N   UNL     1     -44.385 -45.343   9.226  1.00  0.00    -0.310 N 
ATOM     17  HN  UNL     1     -46.258 -46.144   8.605  1.00  0.00     0.186 HD
HETATM   18  C   UNL     1     -43.153 -45.853   9.528  1.00  0.00     0.138 A 
HETATM   19  H   UNL     1     -44.684 -44.373   9.238  1.00  0.00     0.186 HD
ENDBRANCH   4  13
TORSDOF 3
ENDMDL
MODEL 2
REMARK VINA RESULT:      -5.7      1.577      2.600
REMARK  3 active torsions:
REMARK  status: ('A' for Active; 'I' for Inactive)
REMARK       I    between atoms: C_2  and  N_3 
REMARK       I    between atoms: C_2  and  N_10 
REMARK    1  A    between atoms: N_3  and  C_4 
REMARK    2  A    between atoms: C_4  and  C_5 
REMARK    3  A    between atoms: N_10  and  C_11 
ROOT
HETATM    1  O   UNL     1     -42.778 -48.067  12.041  1.00  0.00    -0.247 OA
HETATM    2  C   UNL     1     -42.340 -48.550  11.002  1.00  0.00     0.320 C 
HETATM    3  N   UNL     1     -41.451 -49.603  10.992  1.00  0.00    -0.340 N 
HETATM    4  N   UNL     1     -42.643 -48.132   9.727  1.00  0.00    -0.306 N 
HETATM    5  H   UNL     1     -41.569 -50.254  10.227  1.00  0.00     0.164 HD
HETATM    6  H   UNL     1     -42.081 -48.482   8.968  1.00  0.00     0.171 HD
ENDROOT
BRANCH   3   7
HETATM    7  C   UNL     1     -41.109 -50.238  12.257  1.00  0.00     0.156 C 
BRANCH   7   8
HETATM    8  C   UNL     1     -39.634 -50.076  12.616  1.00  0.00     0.139 C 
HETATM    9  C   UNL     1     -38.847 -49.129  11.722  1.00  0.00     0.035 C 
HETATM   10  C   UNL     1     -37.473 -49.761  11.616  1.00  0.00     0.029 C 
HETATM   11  C   UNL     1     -37.563 -51.033  12.434  1.00  0.00     0.168 C 
HETATM   12  O   UNL     1     -38.956 -51.343  12.517  1.00  0.00    -0.384 OA
ENDBRANCH   7   8
ENDBRANCH   3   7
BRANCH   4  13
HETATM   13  C   UNL     1     -43.591 -47.171   9.437  1.00  0.00     0.070 A 
HETATM   14  C   UNL     1     -43.509 -45.761   9.410  1.00  0.00     0.138 A 
HETATM   15  N   UNL     1     -44.679 -45.188   9.102  1.00  0.00    -0.310 N 
HETATM   16  N   UNL     1     -45.503 -46.232   8.932  1.00  0.00    -0.310 N 
ATOM     17  HN  UNL     1     -44.892 -44.194   9.017  1.00  0.00     0.186 HD
HETATM   18  C   UNL     1     -44.900 -47.444   9.115  1.00  0.00     0.138 A 
HETATM   19  H   UNL     1     -46.472 -46.041   8.693  1.00  0.00     0.186 HD
ENDBRANCH   4  13
TORSDOF 3
ENDMDL
MODEL 3
REMARK VINA RESULT:      -5.4      3.759      6.214
REMARK  3 active torsions:
REMARK  status: ('A' for Active; 'I' for Inactive)
REMARK       I    between atoms: C_2  and  N_3 
REMARK       I    between atoms: C_2  and  N_10 
REMARK    1  A    between atoms: N_3  and  C_4 
REMARK    2  A    between atoms: C_4  and  C_5 
REMARK    3  A    between atoms: N_10  and  C_11 
ROOT
HETATM    1  O   UNL     1     -42.689 -51.809  13.668  1.00  0.00    -0.247 OA
HETATM    2  C   UNL     1     -42.751 -52.288  12.540  1.00  0.00     0.320 C 
HETATM    3  N   UNL     1     -41.764 -52.094  11.598  1.00  0.00    -0.340 N 
HETATM    4  N   UNL     1     -43.779 -53.057  12.046  1.00  0.00    -0.306 N 
HETATM    5  H   UNL     1     -41.599 -52.882  10.985  1.00  0.00     0.164 HD
HETATM    6  H   UNL     1     -43.804 -53.232  11.054  1.00  0.00     0.171 HD
ENDROOT
BRANCH   3   7
HETATM    7  C   UNL     1     -40.551 -51.393  11.994  1.00  0.00     0.156 C 
BRANCH   7   8
HETATM    8  C   UNL     1     -40.378 -50.062  11.267  1.00  0.00     0.139 C 
HETATM    9  C   UNL     1     -39.300 -49.148  11.831  1.00  0.00     0.035 C 
HETATM   10  C   UNL     1     -39.862 -47.750  11.662  1.00  0.00     0.029 C 
HETATM   11  C   UNL     1     -41.226 -47.949  11.035  1.00  0.00     0.168 C 
HETATM   12  O   UNL     1     -41.597 -49.297  11.332  1.00  0.00    -0.384 OA
ENDBRANCH   7   8
ENDBRANCH   3   7
BRANCH   4  13
HETATM   13  C   UNL     1     -44.843 -53.500  12.806  1.00  0.00     0.070 A 
HETATM   14  C   UNL     1     -45.048 -54.713  13.503  1.00  0.00     0.138 A 
HETATM   15  N   UNL     1     -46.243 -54.760  14.103  1.00  0.00    -0.310 N 
HETATM   16  N   UNL     1     -46.796 -53.579  13.792  1.00  0.00    -0.310 N 
ATOM     17  HN  UNL     1     -46.638 -55.515  14.665  1.00  0.00     0.186 HD
HETATM   18  C   UNL     1     -45.996 -52.784  13.021  1.00  0.00     0.138 A 
HETATM   19  H   UNL     1     -47.730 -53.383  14.139  1.00  0.00     0.186 HD
ENDBRANCH   4  13
TORSDOF 3
ENDMDL
MODEL 4
REMARK VINA RESULT:      -5.3      1.622      1.950
REMARK  3 active torsions:
REMARK  status: ('A' for Active; 'I' for Inactive)
REMARK       I    between atoms: C_2  and  N_3 
REMARK       I    between atoms: C_2  and  N_10 
REMARK    1  A    between atoms: N_3  and  C_4 
REMARK    2  A    between atoms: C_4  and  C_5 
REMARK    3  A    between atoms: N_10  and  C_11 
ROOT
HETATM    1  O   UNL     1     -43.072 -47.836  12.424  1.00  0.00    -0.247 OA
HETATM    2  C   UNL     1     -42.755 -48.552  11.479  1.00  0.00     0.320 C 
HETATM    3  N   UNL     1     -42.070 -49.736  11.644  1.00  0.00    -0.340 N 
HETATM    4  N   UNL     1     -43.011 -48.297  10.152  1.00  0.00    -0.306 N 
HETATM    5  H   UNL     1     -42.323 -50.470  10.995  1.00  0.00     0.164 HD
HETATM    6  H   UNL     1     -42.540 -48.860   9.462  1.00  0.00     0.171 HD
ENDROOT
BRANCH   3   7
HETATM    7  C   UNL     1     -41.815 -50.211  12.997  1.00  0.00     0.156 C 
BRANCH   7   8
HETATM    8  C   UNL     1     -42.663 -51.427  13.362  1.00  0.00     0.139 C 
HETATM    9  C   UNL     1     -42.584 -52.592  12.386  1.00  0.00     0.035 C 
HETATM   10  C   UNL     1     -43.985 -53.171  12.373  1.00  0.00     0.029 C 
HETATM   11  C   UNL     1     -44.780 -52.296  13.321  1.00  0.00     0.168 C 
HETATM   12  O   UNL     1     -44.056 -51.066  13.412  1.00  0.00    -0.384 OA
ENDBRANCH   7   8
ENDBRANCH   3   7
BRANCH   4  13
HETATM   13  C   UNL     1     -43.778 -47.239   9.706  1.00  0.00     0.070 A 
HETATM   14  C   UNL     1     -45.120 -47.182   9.268  1.00  0.00     0.138 A 
HETATM   15  N   UNL     1     -45.482 -45.950   8.889  1.00  0.00    -0.310 N 
HETATM   16  N   UNL     1     -44.372 -45.224   9.088  1.00  0.00    -0.310 N 
ATOM     17  HN  UNL     1     -46.386 -45.638   8.534  1.00  0.00     0.186 HD
HETATM   18  C   UNL     1     -43.323 -45.947   9.582  1.00  0.00     0.138 A 
HETATM   19  H   UNL     1     -44.401 -44.235   8.859  1.00  0.00     0.186 HD
ENDBRANCH   4  13
TORSDOF 3
ENDMDL
MODEL 5
REMARK VINA RESULT:      -5.1      4.448      5.266
REMARK  3 active torsions:
REMARK  status: ('A' for Active; 'I' for Inactive)
REMARK       I    between atoms: C_2  and  N_3 
REMARK       I    between atoms: C_2  and  N_10 
REMARK    1  A    between atoms: N_3  and  C_4 
REMARK    2  A    between atoms: C_4  and  C_5 
REMARK    3  A    between atoms: N_10  and  C_11 
ROOT
HETATM    1  O   UNL     1     -42.252 -44.838  10.192  1.00  0.00    -0.247 OA
HETATM    2  C   UNL     1     -41.556 -45.846  10.262  1.00  0.00     0.320 C 
HETATM    3  N   UNL     1     -40.271 -45.826  10.762  1.00  0.00    -0.340 N 
HETATM    4  N   UNL     1     -41.922 -47.109   9.860  1.00  0.00    -0.306 N 
HETATM    5  H   UNL     1     -40.001 -46.653  11.277  1.00  0.00     0.164 HD
HETATM    6  H   UNL     1     -41.204 -47.812   9.795  1.00  0.00     0.171 HD
ENDROOT
BRANCH   3   7
HETATM    7  C   UNL     1     -39.766 -44.586  11.333  1.00  0.00     0.156 C 
BRANCH   7   8
HETATM    8  C   UNL     1     -39.309 -44.749  12.781  1.00  0.00     0.139 C 
HETATM    9  C   UNL     1     -39.307 -46.177  13.305  1.00  0.00     0.035 C 
HETATM   10  C   UNL     1     -39.728 -46.049  14.756  1.00  0.00     0.029 C 
HETATM   11  C   UNL     1     -39.964 -44.568  14.966  1.00  0.00     0.168 C 
HETATM   12  O   UNL     1     -40.184 -44.021  13.663  1.00  0.00    -0.384 OA
ENDBRANCH   7   8
ENDBRANCH   3   7
BRANCH   4  13
HETATM   13  C   UNL     1     -43.190 -47.441   9.426  1.00  0.00     0.070 A 
HETATM   14  C   UNL     1     -44.396 -47.640  10.138  1.00  0.00     0.138 A 
HETATM   15  N   UNL     1     -45.411 -47.981   9.335  1.00  0.00    -0.310 N 
HETATM   16  N   UNL     1     -44.854 -47.996   8.115  1.00  0.00    -0.310 N 
ATOM     17  HN  UNL     1     -46.378 -48.181   9.590  1.00  0.00     0.186 HD
HETATM   18  C   UNL     1     -43.526 -47.674   8.114  1.00  0.00     0.138 A 
HETATM   19  H   UNL     1     -45.442 -48.240   7.325  1.00  0.00     0.186 HD
ENDBRANCH   4  13
TORSDOF 3
ENDMDL
MODEL 6
REMARK VINA RESULT:      -5.1      3.130      4.821
REMARK  3 active torsions:
REMARK  status: ('A' for Active; 'I' for Inactive)
REMARK       I    between atoms: C_2  and  N_3 
REMARK       I    between atoms: C_2  and  N_10 
REMARK    1  A    between atoms: N_3  and  C_4 
REMARK    2  A    between atoms: C_4  and  C_5 
REMARK    3  A    between atoms: N_10  and  C_11 
ROOT
HETATM    1  O   UNL     1     -41.589 -51.544  13.692  1.00  0.00    -0.247 OA
HETATM    2  C   UNL     1     -41.914 -51.856  12.551  1.00  0.00     0.320 C 
HETATM    3  N   UNL     1     -42.755 -52.916  12.284  1.00  0.00    -0.340 N 
HETATM    4  N   UNL     1     -41.503 -51.234  11.396  1.00  0.00    -0.306 N 
HETATM    5  H   UNL     1     -43.375 -52.780  11.497  1.00  0.00     0.164 HD
HETATM    6  H   UNL     1     -41.687 -51.694  10.519  1.00  0.00     0.171 HD
ENDROOT
BRANCH   3   7
HETATM    7  C   UNL     1     -43.369 -53.617  13.403  1.00  0.00     0.156 C 
BRANCH   7   8
HETATM    8  C   UNL     1     -44.809 -53.176  13.654  1.00  0.00     0.139 C 
HETATM    9  C   UNL     1     -45.575 -52.723  12.419  1.00  0.00     0.035 C 
HETATM   10  C   UNL     1     -46.452 -51.589  12.912  1.00  0.00     0.029 C 
HETATM   11  C   UNL     1     -46.122 -51.450  14.384  1.00  0.00     0.168 C 
HETATM   12  O   UNL     1     -44.836 -52.051  14.552  1.00  0.00    -0.384 OA
ENDBRANCH   7   8
ENDBRANCH   3   7
BRANCH   4  13
HETATM   13  C   UNL     1     -40.750 -50.077  11.372  1.00  0.00     0.070 A 
HETATM   14  C   UNL     1     -41.110 -48.736  11.105  1.00  0.00     0.138 A 
HETATM   15  N   UNL     1     -40.061 -47.906  11.158  1.00  0.00    -0.310 N 
HETATM   16  N   UNL     1     -39.036 -48.717  11.460  1.00  0.00    -0.310 N 
ATOM     17  HN  UNL     1     -40.045 -46.898  11.005  1.00  0.00     0.186 HD
HETATM   18  C   UNL     1     -39.396 -50.027  11.605  1.00  0.00     0.138 A 
HETATM   19  H   UNL     1     -38.112 -48.305  11.550  1.00  0.00     0.186 HD
ENDBRANCH   4  13
TORSDOF 3
ENDMDL
MODEL 7
REMARK VINA RESULT:      -5.0      2.595      3.795
REMARK  3 active torsions:
REMARK  status: ('A' for Active; 'I' for Inactive)
REMARK       I    between atoms: C_2  and  N_3 
REMARK       I    between atoms: C_2  and  N_10 
REMARK    1  A    between atoms: N_3  and  C_4 
REMARK    2  A    between atoms: C_4  and  C_5 
REMARK    3  A    between atoms: N_10  and  C_11 
ROOT
HETATM    1  O   UNL     1     -42.426 -50.563  13.057  1.00  0.00    -0.247 OA
HETATM    2  C   UNL     1     -41.949 -51.182  12.112  1.00  0.00     0.320 C 
HETATM    3  N   UNL     1     -42.223 -52.514  11.885  1.00  0.00    -0.340 N 
HETATM    4  N   UNL     1     -41.089 -50.675  11.166  1.00  0.00    -0.306 N 
HETATM    5  H   UNL     1     -42.281 -52.777  10.910  1.00  0.00     0.164 HD
HETATM    6  H   UNL     1     -40.623 -51.324  10.553  1.00  0.00     0.171 HD
ENDROOT
BRANCH   3   7
HETATM    7  C   UNL     1     -43.204 -53.177  12.732  1.00  0.00     0.156 C 
BRANCH   7   8
HETATM    8  C   UNL     1     -42.588 -54.275  13.595  1.00  0.00     0.139 C 
HETATM    9  C   UNL     1     -43.543 -54.947  14.572  1.00  0.00     0.035 C 
HETATM   10  C   UNL     1     -42.696 -55.226  15.799  1.00  0.00     0.029 C 
HETATM   11  C   UNL     1     -41.323 -54.682  15.459  1.00  0.00     0.168 C 
HETATM   12  O   UNL     1     -41.531 -53.734  14.409  1.00  0.00    -0.384 OA
ENDBRANCH   7   8
ENDBRANCH   3   7
BRANCH   4  13
HETATM   13  C   UNL     1     -40.735 -49.343  11.084  1.00  0.00     0.070 A 
HETATM   14  C   UNL     1     -41.395 -48.237  10.501  1.00  0.00     0.138 A 
HETATM   15  N   UNL     1     -40.692 -47.104  10.617  1.00  0.00    -0.310 N 
HETATM   16  N   UNL     1     -39.587 -47.487  11.274  1.00  0.00    -0.310 N 
ATOM     17  HN  UNL     1     -40.938 -46.171  10.285  1.00  0.00     0.186 HD
HETATM   18  C   UNL     1     -39.566 -48.818  11.583  1.00  0.00     0.138 A 
HETATM   19  H   UNL     1     -38.884 -46.784  11.476  1.00  0.00     0.186 HD
ENDBRANCH   4  13
TORSDOF 3
ENDMDL
MODEL 8
REMARK VINA RESULT:      -4.6      1.949      2.861
REMARK  3 active torsions:
REMARK  status: ('A' for Active; 'I' for Inactive)
REMARK       I    between atoms: C_2  and  N_3 
REMARK       I    between atoms: C_2  and  N_10 
REMARK    1  A    between atoms: N_3  and  C_4 
REMARK    2  A    between atoms: C_4  and  C_5 
REMARK    3  A    between atoms: N_10  and  C_11 
ROOT
HETATM    1  O   UNL     1     -41.747 -50.071  12.738  1.00  0.00    -0.247 OA
HETATM    2  C   UNL     1     -41.188 -50.438  11.709  1.00  0.00     0.320 C 
HETATM    3  N   UNL     1     -40.771 -51.738  11.516  1.00  0.00    -0.340 N 
HETATM    4  N   UNL     1     -40.888 -49.645  10.626  1.00  0.00    -0.306 N 
HETATM    5  H   UNL     1     -40.850 -52.074  10.565  1.00  0.00     0.164 HD
HETATM    6  H   UNL     1     -40.266 -50.015   9.926  1.00  0.00     0.171 HD
ENDROOT
BRANCH   3   7
HETATM    7  C   UNL     1     -41.110 -52.734  12.522  1.00  0.00     0.156 C 
BRANCH   7   8
HETATM    8  C   UNL     1     -40.003 -52.924  13.557  1.00  0.00     0.139 C 
HETATM    9  C   UNL     1     -39.608 -54.368  13.830  1.00  0.00     0.035 C 
HETATM   10  C   UNL     1     -39.296 -54.402  15.313  1.00  0.00     0.029 C 
HETATM   11  C   UNL     1     -39.549 -52.990  15.799  1.00  0.00     0.168 C 
HETATM   12  O   UNL     1     -40.418 -52.397  14.831  1.00  0.00    -0.384 OA
ENDBRANCH   7   8
ENDBRANCH   3   7
BRANCH   4  13
HETATM   13  C   UNL     1     -41.290 -48.330  10.501  1.00  0.00     0.070 A 
HETATM   14  C   UNL     1     -42.386 -47.752   9.821  1.00  0.00     0.138 A 
HETATM   15  N   UNL     1     -42.405 -46.418   9.926  1.00  0.00    -0.310 N 
HETATM   16  N   UNL     1     -41.325 -46.147  10.672  1.00  0.00    -0.310 N 
ATOM     17  HN  UNL     1     -43.081 -45.763   9.531  1.00  0.00     0.186 HD
HETATM   18  C   UNL     1     -40.625 -47.259  11.049  1.00  0.00     0.138 A 
HETATM   19  H   UNL     1     -41.122 -45.175  10.885  1.00  0.00     0.186 HD
ENDBRANCH   4  13
TORSDOF 3
ENDMDL
MODEL 9
REMARK VINA RESULT:      -4.6      4.314      7.978
REMARK  3 active torsions:
REMARK  status: ('A' for Active; 'I' for Inactive)
REMARK       I    between atoms: C_2  and  N_3 
REMARK       I    between atoms: C_2  and  N_10 
REMARK    1  A    between atoms: N_3  and  C_4 
REMARK    2  A    between atoms: C_4  and  C_5 
REMARK    3  A    between atoms: N_10  and  C_11 
ROOT
HETATM    1  O   UNL     1     -41.063 -44.376  10.487  1.00  0.00    -0.247 OA
HETATM    2  C   UNL     1     -42.118 -44.490  11.102  1.00  0.00     0.320 C 
HETATM    3  N   UNL     1     -42.473 -43.640  12.128  1.00  0.00    -0.340 N 
HETATM    4  N   UNL     1     -43.078 -45.450  10.886  1.00  0.00    -0.306 N 
HETATM    5  H   UNL     1     -43.462 -43.435  12.189  1.00  0.00     0.164 HD
HETATM    6  H   UNL     1     -43.807 -45.554  11.574  1.00  0.00     0.171 HD
ENDROOT
BRANCH   3   7
HETATM    7  C   UNL     1     -41.616 -42.497  12.414  1.00  0.00     0.156 C 
BRANCH   7   8
HETATM    8  C   UNL     1     -42.380 -41.175  12.410  1.00  0.00     0.139 C 
HETATM    9  C   UNL     1     -43.896 -41.300  12.416  1.00  0.00     0.035 C 
HETATM   10  C   UNL     1     -44.374 -40.151  11.549  1.00  0.00     0.029 C 
HETATM   11  C   UNL     1     -43.110 -39.456  11.087  1.00  0.00     0.168 C 
HETATM   12  O   UNL     1     -42.065 -40.422  11.224  1.00  0.00    -0.384 OA
ENDBRANCH   7   8
ENDBRANCH   3   7
BRANCH   4  13
HETATM   13  C   UNL     1     -43.037 -46.360   9.849  1.00  0.00     0.070 A 
HETATM   14  C   UNL     1     -43.462 -46.261   8.505  1.00  0.00     0.138 A 
HETATM   15  N   UNL     1     -43.264 -47.394   7.822  1.00  0.00    -0.310 N 
HETATM   16  N   UNL     1     -42.711 -48.213   8.729  1.00  0.00    -0.310 N 
ATOM     17  HN  UNL     1     -43.481 -47.589   6.844  1.00  0.00     0.186 HD
HETATM   18  C   UNL     1     -42.548 -47.641   9.958  1.00  0.00     0.138 A 
HETATM   19  H   UNL     1     -42.473 -49.156   8.438  1.00  0.00     0.186 HD
ENDBRANCH   4  13
TORSDOF 3
ENDMDL
