MODEL 1
REMARK VINA RESULT:      -6.1      0.000      0.000
REMARK  6 active torsions:
REMARK  status: ('A' for Active; 'I' for Inactive)
REMARK    1  A    between atoms: C_2  and  N_3 
REMARK    2  A    between atoms: N_3  and  C_4 
REMARK    3  A    between atoms: N_3  and  C_6 
REMARK    4  A    between atoms: C_9  and  N_10 
REMARK       I    between atoms: N_10  and  C_11 
REMARK       I    between atoms: C_11  and  N_13 
REMARK    5  A    between atoms: N_13  and  C_14 
REMARK    6  A    between atoms: C_17  and  O_18 
ROOT
HETATM    1  N   UNL     1     -43.276 -49.061  11.601  1.00  0.00    -0.308 N 
HETATM    2  C   UNL     1     -43.291 -49.532  12.897  1.00  0.00     0.321 C 
HETATM    3  O   UNL     1     -42.862 -48.937  13.881  1.00  0.00    -0.247 OA
HETATM    4  N   UNL     1     -43.893 -50.765  12.995  1.00  0.00    -0.338 N 
HETATM    5  H   UNL     1     -43.971 -49.451  10.981  1.00  0.00     0.170 HD
HETATM    6  H   UNL     1     -44.025 -51.302  12.152  1.00  0.00     0.164 HD
ENDROOT
BRANCH   1   7
HETATM    7  C   UNL     1     -42.579 -47.912  11.152  1.00  0.00     0.051 A 
HETATM    8  C   UNL     1     -43.176 -46.667  11.011  1.00  0.00     0.034 A 
HETATM    9  C   UNL     1     -42.406 -45.564  10.640  1.00  0.00     0.044 A 
HETATM   10  C   UNL     1     -41.038 -45.711  10.417  1.00  0.00     0.082 A 
HETATM   11  N   UNL     1     -40.441 -46.919  10.518  1.00  0.00    -0.354 N 
HETATM   12  C   UNL     1     -41.215 -47.977  10.882  1.00  0.00     0.119 A 
ATOM     13  HN  UNL     1     -39.445 -47.032  10.328  1.00  0.00     0.166 HD
BRANCH  10  14
HETATM   14  N   UNL     1     -40.276 -44.526  10.185  1.00  0.00    -0.270 NA
BRANCH  14  15
HETATM   15  C   UNL     1     -38.885 -44.888   9.850  1.00  0.00     0.092 C 
HETATM   16  C   UNL     1     -38.493 -44.471   8.440  1.00  0.00     0.021 C 
ENDBRANCH  14  15
BRANCH  14  17
HETATM   17  C   UNL     1     -40.472 -43.639  11.351  1.00  0.00     0.092 C 
HETATM   18  C   UNL     1     -39.500 -43.979  12.474  1.00  0.00     0.021 C 
ENDBRANCH  14  17
ENDBRANCH  10  14
ENDBRANCH   1   7
BRANCH   4  19
HETATM   19  C   UNL     1     -44.182 -51.374  14.293  1.00  0.00     0.086 C 
HETATM   20  C   UNL     1     -43.385 -52.660  14.584  1.00  0.00     0.028 C 
HETATM   21  C   UNL     1     -43.918 -53.922  13.902  1.00  0.00     0.034 C 
HETATM   22  C   UNL     1     -45.435 -54.087  14.009  1.00  0.00     0.118 C 
HETATM   23  C   UNL     1     -46.179 -52.808  13.641  1.00  0.00     0.034 C 
HETATM   24  C   UNL     1     -45.689 -51.606  14.451  1.00  0.00     0.028 C 
BRANCH  22  25
HETATM   25  O   UNL     1     -45.805 -54.503  15.321  1.00  0.00    -0.396 OA
HETATM   26  H   UNL     1     -46.724 -54.814  15.313  1.00  0.00     0.210 HD
ENDBRANCH  22  25
ENDBRANCH   4  19
TORSDOF 6
ENDMDL
MODEL 2
REMARK VINA RESULT:      -5.9      3.505      8.533
REMARK  6 active torsions:
REMARK  status: ('A' for Active; 'I' for Inactive)
REMARK    1  A    between atoms: C_2  and  N_3 
REMARK    2  A    between atoms: N_3  and  C_4 
REMARK    3  A    between atoms: N_3  and  C_6 
REMARK    4  A    between atoms: C_9  and  N_10 
REMARK       I    between atoms: N_10  and  C_11 
REMARK       I    between atoms: C_11  and  N_13 
REMARK    5  A    between atoms: N_13  and  C_14 
REMARK    6  A    between atoms: C_17  and  O_18 
ROOT
HETATM    1  N   UNL     1     -41.294 -50.541  11.718  1.00  0.00    -0.308 N 
HETATM    2  C   UNL     1     -42.317 -49.668  12.022  1.00  0.00     0.321 C 
HETATM    3  O   UNL     1     -42.911 -49.604  13.094  1.00  0.00    -0.247 OA
HETATM    4  N   UNL     1     -42.594 -48.811  10.983  1.00  0.00    -0.338 N 
HETATM    5  H   UNL     1     -40.663 -50.246  10.986  1.00  0.00     0.170 HD
HETATM    6  H   UNL     1     -42.244 -49.040  10.066  1.00  0.00     0.164 HD
ENDROOT
BRANCH   1   7
HETATM    7  C   UNL     1     -40.897 -51.648  12.508  1.00  0.00     0.051 A 
HETATM    8  C   UNL     1     -39.925 -51.569  13.495  1.00  0.00     0.034 A 
HETATM    9  C   UNL     1     -39.644 -52.684  14.286  1.00  0.00     0.044 A 
HETATM   10  C   UNL     1     -40.343 -53.873  14.089  1.00  0.00     0.082 A 
HETATM   11  N   UNL     1     -41.272 -53.984  13.115  1.00  0.00    -0.354 N 
HETATM   12  C   UNL     1     -41.527 -52.881  12.358  1.00  0.00     0.119 A 
ATOM     13  HN  UNL     1     -41.765 -54.862  12.952  1.00  0.00     0.166 HD
BRANCH  10  14
HETATM   14  N   UNL     1     -40.120 -54.932  15.021  1.00  0.00    -0.270 NA
BRANCH  14  15
HETATM   15  C   UNL     1     -40.986 -54.747  16.201  1.00  0.00     0.092 C 
HETATM   16  C   UNL     1     -42.198 -55.668  16.193  1.00  0.00     0.021 C 
ENDBRANCH  14  15
BRANCH  14  17
HETATM   17  C   UNL     1     -38.664 -55.006  15.267  1.00  0.00     0.092 C 
HETATM   18  C   UNL     1     -38.353 -55.856  16.493  1.00  0.00     0.021 C 
ENDBRANCH  14  17
ENDBRANCH  10  14
ENDBRANCH   1   7
BRANCH   4  19
HETATM   19  C   UNL     1     -43.514 -47.685  11.143  1.00  0.00     0.086 C 
HETATM   20  C   UNL     1     -44.604 -47.594  10.058  1.00  0.00     0.028 C 
HETATM   21  C   UNL     1     -44.144 -46.994   8.727  1.00  0.00     0.034 C 
HETATM   22  C   UNL     1     -43.304 -45.726   8.879  1.00  0.00     0.118 C 
HETATM   23  C   UNL     1     -42.195 -45.893   9.913  1.00  0.00     0.034 C 
HETATM   24  C   UNL     1     -42.736 -46.370  11.262  1.00  0.00     0.028 C 
BRANCH  22  25
HETATM   25  O   UNL     1     -44.126 -44.614   9.225  1.00  0.00    -0.396 OA
HETATM   26  H   UNL     1     -43.566 -43.875   9.509  1.00  0.00     0.210 HD
ENDBRANCH  22  25
ENDBRANCH   4  19
TORSDOF 6
ENDMDL
MODEL 3
REMARK VINA RESULT:      -5.8      3.214      4.497
REMARK  6 active torsions:
REMARK  status: ('A' for Active; 'I' for Inactive)
REMARK    1  A    between atoms: C_2  and  N_3 
REMARK    2  A    between atoms: N_3  and  C_4 
REMARK    3  A    between atoms: N_3  and  C_6 
REMARK    4  A    between atoms: C_9  and  N_10 
REMARK       I    between atoms: N_10  and  C_11 
REMARK       I    between atoms: C_11  and  N_13 
REMARK    5  A    between atoms: N_13  and  C_14 
REMARK    6  A    between atoms: C_17  and  O_18 
ROOT
HETATM    1  N   UNL     1     -41.238 -50.748  13.131  1.00  0.00    -0.308 N 
HETATM    2  C   UNL     1     -41.427 -52.108  13.006  1.00  0.00     0.321 C 
HETATM    3  O   UNL     1     -41.834 -52.687  12.003  1.00  0.00    -0.247 OA
HETATM    4  N   UNL     1     -41.064 -52.790  14.144  1.00  0.00    -0.338 N 
HETATM    5  H   UNL     1     -40.568 -50.457  13.828  1.00  0.00     0.170 HD
HETATM    6  H   UNL     1     -40.950 -52.268  14.999  1.00  0.00     0.164 HD
ENDROOT
BRANCH   1   7
HETATM    7  C   UNL     1     -41.677 -49.769  12.206  1.00  0.00     0.051 A 
HETATM    8  C   UNL     1     -42.841 -49.032  12.373  1.00  0.00     0.034 A 
HETATM    9  C   UNL     1     -43.168 -48.029  11.460  1.00  0.00     0.044 A 
HETATM   10  C   UNL     1     -42.324 -47.765  10.383  1.00  0.00     0.082 A 
HETATM   11  N   UNL     1     -41.202 -48.489  10.181  1.00  0.00    -0.354 N 
HETATM   12  C   UNL     1     -40.906 -49.460  11.088  1.00  0.00     0.119 A 
ATOM     13  HN  UNL     1     -40.597 -48.315   9.378  1.00  0.00     0.166 HD
BRANCH  10  14
HETATM   14  N   UNL     1     -42.630 -46.634   9.565  1.00  0.00    -0.270 NA
BRANCH  14  15
HETATM   15  C   UNL     1     -42.651 -45.414  10.394  1.00  0.00     0.092 C 
HETATM   16  C   UNL     1     -41.258 -44.949  10.793  1.00  0.00     0.021 C 
ENDBRANCH  14  15
BRANCH  14  17
HETATM   17  C   UNL     1     -43.863 -46.952   8.814  1.00  0.00     0.092 C 
HETATM   18  C   UNL     1     -43.571 -47.873   7.636  1.00  0.00     0.021 C 
ENDBRANCH  14  17
ENDBRANCH  10  14
ENDBRANCH   1   7
BRANCH   4  19
HETATM   19  C   UNL     1     -41.007 -54.251  14.176  1.00  0.00     0.086 C 
HETATM   20  C   UNL     1     -41.789 -54.892  15.339  1.00  0.00     0.028 C 
HETATM   21  C   UNL     1     -41.075 -54.861  16.693  1.00  0.00     0.034 C 
HETATM   22  C   UNL     1     -39.603 -55.271  16.625  1.00  0.00     0.118 C 
HETATM   23  C   UNL     1     -38.860 -54.554  15.503  1.00  0.00     0.034 C 
HETATM   24  C   UNL     1     -39.552 -54.732  14.151  1.00  0.00     0.028 C 
BRANCH  22  25
HETATM   25  O   UNL     1     -39.480 -56.682  16.465  1.00  0.00    -0.396 OA
HETATM   26  H   UNL     1     -39.223 -56.881  15.551  1.00  0.00     0.210 HD
ENDBRANCH  22  25
ENDBRANCH   4  19
TORSDOF 6
ENDMDL
MODEL 4
REMARK VINA RESULT:      -5.5      3.271      4.499
REMARK  6 active torsions:
REMARK  status: ('A' for Active; 'I' for Inactive)
REMARK    1  A    between atoms: C_2  and  N_3 
REMARK    2  A    between atoms: N_3  and  C_4 
REMARK    3  A    between atoms: N_3  and  C_6 
REMARK    4  A    between atoms: C_9  and  N_10 
REMARK       I    between atoms: N_10  and  C_11 
REMARK       I    between atoms: C_11  and  N_13 
REMARK    5  A    between atoms: N_13  and  C_14 
REMARK    6  A    between atoms: C_17  and  O_18 
ROOT
HETATM    1  N   UNL     1     -40.880 -50.807  12.892  1.00  0.00    -0.308 N 
HETATM    2  C   UNL     1     -41.242 -52.138  12.931  1.00  0.00     0.321 C 
HETATM    3  O   UNL     1     -42.054 -52.683  12.190  1.00  0.00    -0.247 OA
HETATM    4  N   UNL     1     -40.548 -52.836  13.892  1.00  0.00    -0.338 N 
HETATM    5  H   UNL     1     -39.971 -50.585  13.270  1.00  0.00     0.170 HD
HETATM    6  H   UNL     1     -40.067 -52.316  14.609  1.00  0.00     0.164 HD
ENDROOT
BRANCH   1   7
HETATM    7  C   UNL     1     -41.533 -49.801  12.138  1.00  0.00     0.051 A 
HETATM    8  C   UNL     1     -42.693 -49.166  12.560  1.00  0.00     0.034 A 
HETATM    9  C   UNL     1     -43.234 -48.129  11.800  1.00  0.00     0.044 A 
HETATM   10  C   UNL     1     -42.608 -47.726  10.622  1.00  0.00     0.082 A 
HETATM   11  N   UNL     1     -41.496 -48.349  10.175  1.00  0.00    -0.354 N 
HETATM   12  C   UNL     1     -40.988 -49.357  10.936  1.00  0.00     0.119 A 
ATOM     13  HN  UNL     1     -41.052 -48.074   9.298  1.00  0.00     0.166 HD
BRANCH  10  14
HETATM   14  N   UNL     1     -43.120 -46.567   9.964  1.00  0.00    -0.270 NA
BRANCH  14  15
HETATM   15  C   UNL     1     -43.612 -46.933   8.622  1.00  0.00     0.092 C 
HETATM   16  C   UNL     1     -44.989 -47.581   8.657  1.00  0.00     0.021 C 
ENDBRANCH  14  15
BRANCH  14  17
HETATM   17  C   UNL     1     -42.075 -45.523  10.030  1.00  0.00     0.092 C 
HETATM   18  C   UNL     1     -42.320 -44.567  11.190  1.00  0.00     0.021 C 
ENDBRANCH  14  17
ENDBRANCH  10  14
ENDBRANCH   1   7
BRANCH   4  19
HETATM   19  C   UNL     1     -40.635 -54.293  13.992  1.00  0.00     0.086 C 
HETATM   20  C   UNL     1     -41.631 -54.800  15.053  1.00  0.00     0.028 C 
HETATM   21  C   UNL     1     -41.119 -54.758  16.494  1.00  0.00     0.034 C 
HETATM   22  C   UNL     1     -39.697 -55.298  16.660  1.00  0.00     0.118 C 
HETATM   23  C   UNL     1     -38.737 -54.709  15.632  1.00  0.00     0.034 C 
HETATM   24  C   UNL     1     -39.243 -54.899  14.200  1.00  0.00     0.028 C 
BRANCH  22  25
HETATM   25  O   UNL     1     -39.685 -56.720  16.578  1.00  0.00    -0.396 OA
HETATM   26  H   UNL     1     -40.036 -56.996  15.717  1.00  0.00     0.210 HD
ENDBRANCH  22  25
ENDBRANCH   4  19
TORSDOF 6
ENDMDL
MODEL 5
REMARK VINA RESULT:      -5.4      1.402      2.009
REMARK  6 active torsions:
REMARK  status: ('A' for Active; 'I' for Inactive)
REMARK    1  A    between atoms: C_2  and  N_3 
REMARK    2  A    between atoms: N_3  and  C_4 
REMARK    3  A    between atoms: N_3  and  C_6 
REMARK    4  A    between atoms: C_9  and  N_10 
REMARK       I    between atoms: N_10  and  C_11 
REMARK       I    between atoms: C_11  and  N_13 
REMARK    5  A    between atoms: N_13  and  C_14 
REMARK    6  A    between atoms: C_17  and  O_18 
ROOT
HETATM    1  N   UNL     1     -43.272 -49.163  11.881  1.00  0.00    -0.308 N 
HETATM    2  C   UNL     1     -42.910 -49.996  12.919  1.00  0.00     0.321 C 
HETATM    3  O   UNL     1     -42.265 -49.667  13.910  1.00  0.00    -0.247 OA
HETATM    4  N   UNL     1     -43.395 -51.272  12.754  1.00  0.00    -0.338 N 
HETATM    5  H   UNL     1     -44.086 -49.442  11.353  1.00  0.00     0.170 HD
HETATM    6  H   UNL     1     -43.721 -51.547  11.841  1.00  0.00     0.164 HD
ENDROOT
BRANCH   1   7
HETATM    7  C   UNL     1     -42.785 -47.849  11.675  1.00  0.00     0.051 A 
HETATM    8  C   UNL     1     -41.943 -47.505  10.627  1.00  0.00     0.034 A 
HETATM    9  C   UNL     1     -41.569 -46.173  10.442  1.00  0.00     0.044 A 
HETATM   10  C   UNL     1     -42.045 -45.189  11.306  1.00  0.00     0.082 A 
HETATM   11  N   UNL     1     -42.841 -45.503  12.351  1.00  0.00    -0.354 N 
HETATM   12  C   UNL     1     -43.191 -46.809  12.507  1.00  0.00     0.119 A 
ATOM     13  HN  UNL     1     -43.168 -44.786  13.000  1.00  0.00     0.166 HD
BRANCH  10  14
HETATM   14  N   UNL     1     -41.751 -43.829  10.984  1.00  0.00    -0.270 NA
BRANCH  14  15
HETATM   15  C   UNL     1     -40.290 -43.622  10.987  1.00  0.00     0.092 C 
HETATM   16  C   UNL     1     -39.708 -43.561  12.392  1.00  0.00     0.021 C 
ENDBRANCH  14  15
BRANCH  14  17
HETATM   17  C   UNL     1     -42.547 -42.976  11.892  1.00  0.00     0.092 C 
HETATM   18  C   UNL     1     -43.531 -42.109  11.116  1.00  0.00     0.021 C 
ENDBRANCH  14  17
ENDBRANCH  10  14
ENDBRANCH   1   7
BRANCH   4  19
HETATM   19  C   UNL     1     -43.290 -52.274  13.815  1.00  0.00     0.086 C 
HETATM   20  C   UNL     1     -43.208 -53.728  13.311  1.00  0.00     0.028 C 
HETATM   21  C   UNL     1     -44.546 -54.345  12.896  1.00  0.00     0.034 C 
HETATM   22  C   UNL     1     -45.679 -54.089  13.891  1.00  0.00     0.118 C 
HETATM   23  C   UNL     1     -45.761 -52.622  14.302  1.00  0.00     0.034 C 
HETATM   24  C   UNL     1     -44.424 -52.099  14.831  1.00  0.00     0.028 C 
BRANCH  22  25
HETATM   25  O   UNL     1     -45.530 -54.909  15.047  1.00  0.00    -0.396 OA
HETATM   26  H   UNL     1     -46.397 -55.255  15.311  1.00  0.00     0.210 HD
ENDBRANCH  22  25
ENDBRANCH   4  19
TORSDOF 6
ENDMDL
MODEL 6
REMARK VINA RESULT:      -5.3      2.458      8.910
REMARK  6 active torsions:
REMARK  status: ('A' for Active; 'I' for Inactive)
REMARK    1  A    between atoms: C_2  and  N_3 
REMARK    2  A    between atoms: N_3  and  C_4 
REMARK    3  A    between atoms: N_3  and  C_6 
REMARK    4  A    between atoms: C_9  and  N_10 
REMARK       I    between atoms: N_10  and  C_11 
REMARK       I    between atoms: C_11  and  N_13 
REMARK    5  A    between atoms: N_13  and  C_14 
REMARK    6  A    between atoms: C_17  and  O_18 
ROOT
HETATM    1  N   UNL     1     -41.543 -48.856  12.552  1.00  0.00    -0.308 N 
HETATM    2  C   UNL     1     -41.691 -48.115  11.398  1.00  0.00     0.321 C 
HETATM    3  O   UNL     1     -42.384 -48.421  10.432  1.00  0.00    -0.247 OA
HETATM    4  N   UNL     1     -40.993 -46.931  11.448  1.00  0.00    -0.338 N 
HETATM    5  H   UNL     1     -41.277 -48.340  13.378  1.00  0.00     0.170 HD
HETATM    6  H   UNL     1     -40.277 -46.826  12.150  1.00  0.00     0.164 HD
ENDROOT
BRANCH   1   7
HETATM    7  C   UNL     1     -41.991 -50.187  12.735  1.00  0.00     0.051 A 
HETATM    8  C   UNL     1     -41.320 -51.292  12.230  1.00  0.00     0.034 A 
HETATM    9  C   UNL     1     -41.778 -52.577  12.520  1.00  0.00     0.044 A 
HETATM   10  C   UNL     1     -42.906 -52.752  13.320  1.00  0.00     0.082 A 
HETATM   11  N   UNL     1     -43.594 -51.692  13.797  1.00  0.00    -0.354 N 
HETATM   12  C   UNL     1     -43.124 -50.450  13.500  1.00  0.00     0.119 A 
ATOM     13  HN  UNL     1     -44.436 -51.819  14.360  1.00  0.00     0.166 HD
BRANCH  10  14
HETATM   14  N   UNL     1     -43.243 -54.086  13.704  1.00  0.00    -0.270 NA
BRANCH  14  15
HETATM   15  C   UNL     1     -44.539 -54.087  14.409  1.00  0.00     0.092 C 
HETATM   16  C   UNL     1     -45.554 -55.027  13.774  1.00  0.00     0.021 C 
ENDBRANCH  14  15
BRANCH  14  17
HETATM   17  C   UNL     1     -42.085 -54.642  14.436  1.00  0.00     0.092 C 
HETATM   18  C   UNL     1     -42.521 -55.322  15.727  1.00  0.00     0.021 C 
ENDBRANCH  14  17
ENDBRANCH  10  14
ENDBRANCH   1   7
BRANCH   4  19
HETATM   19  C   UNL     1     -41.148 -45.906  10.415  1.00  0.00     0.086 C 
HETATM   20  C   UNL     1     -39.927 -44.981  10.249  1.00  0.00     0.028 C 
HETATM   21  C   UNL     1     -39.809 -43.870  11.296  1.00  0.00     0.034 C 
HETATM   22  C   UNL     1     -41.122 -43.134  11.565  1.00  0.00     0.118 C 
HETATM   23  C   UNL     1     -42.283 -44.097  11.794  1.00  0.00     0.034 C 
HETATM   24  C   UNL     1     -42.430 -45.100  10.649  1.00  0.00     0.028 C 
BRANCH  22  25
HETATM   25  O   UNL     1     -41.432 -42.246  10.494  1.00  0.00    -0.396 OA
HETATM   26  H   UNL     1     -41.509 -42.751   9.669  1.00  0.00     0.210 HD
ENDBRANCH  22  25
ENDBRANCH   4  19
TORSDOF 6
ENDMDL
MODEL 7
REMARK VINA RESULT:      -4.9      6.141     10.020
REMARK  6 active torsions:
REMARK  status: ('A' for Active; 'I' for Inactive)
REMARK    1  A    between atoms: C_2  and  N_3 
REMARK    2  A    between atoms: N_3  and  C_4 
REMARK    3  A    between atoms: N_3  and  C_6 
REMARK    4  A    between atoms: C_9  and  N_10 
REMARK       I    between atoms: N_10  and  C_11 
REMARK       I    between atoms: C_11  and  N_13 
REMARK    5  A    between atoms: N_13  and  C_14 
REMARK    6  A    between atoms: C_17  and  O_18 
ROOT
HETATM    1  N   UNL     1     -41.327 -54.363  15.876  1.00  0.00    -0.308 N 
HETATM    2  C   UNL     1     -41.536 -53.914  14.589  1.00  0.00     0.321 C 
HETATM    3  O   UNL     1     -40.860 -54.208  13.608  1.00  0.00    -0.247 OA
HETATM    4  N   UNL     1     -42.644 -53.105  14.495  1.00  0.00    -0.338 N 
HETATM    5  H   UNL     1     -42.135 -54.364  16.481  1.00  0.00     0.170 HD
HETATM    6  H   UNL     1     -43.030 -52.719  15.343  1.00  0.00     0.164 HD
ENDROOT
BRANCH   1   7
HETATM    7  C   UNL     1     -40.181 -55.064  16.325  1.00  0.00     0.051 A 
HETATM    8  C   UNL     1     -38.904 -54.519  16.317  1.00  0.00     0.034 A 
HETATM    9  C   UNL     1     -37.836 -55.242  16.849  1.00  0.00     0.044 A 
HETATM   10  C   UNL     1     -38.051 -56.507  17.393  1.00  0.00     0.082 A 
HETATM   11  N   UNL     1     -39.278 -57.070  17.384  1.00  0.00    -0.354 N 
HETATM   12  C   UNL     1     -40.303 -56.344  16.860  1.00  0.00     0.119 A 
ATOM     13  HN  UNL     1     -39.431 -58.008  17.757  1.00  0.00     0.166 HD
BRANCH  10  14
HETATM   14  N   UNL     1     -36.953 -57.136  18.054  1.00  0.00    -0.270 NA
BRANCH  14  15
HETATM   15  C   UNL     1     -37.439 -57.865  19.241  1.00  0.00     0.092 C 
HETATM   16  C   UNL     1     -36.991 -59.319  19.264  1.00  0.00     0.021 C 
ENDBRANCH  14  15
BRANCH  14  17
HETATM   17  C   UNL     1     -35.921 -56.102  18.282  1.00  0.00     0.092 C 
HETATM   18  C   UNL     1     -34.562 -56.552  17.762  1.00  0.00     0.021 C 
ENDBRANCH  14  17
ENDBRANCH  10  14
ENDBRANCH   1   7
BRANCH   4  19
HETATM   19  C   UNL     1     -43.162 -52.662  13.200  1.00  0.00     0.086 C 
HETATM   20  C   UNL     1     -43.990 -51.364  13.256  1.00  0.00     0.028 C 
HETATM   21  C   UNL     1     -45.431 -51.535  13.743  1.00  0.00     0.034 C 
HETATM   22  C   UNL     1     -46.161 -52.718  13.106  1.00  0.00     0.118 C 
HETATM   23  C   UNL     1     -45.327 -53.994  13.142  1.00  0.00     0.034 C 
HETATM   24  C   UNL     1     -43.943 -53.792  12.521  1.00  0.00     0.028 C 
BRANCH  22  25
HETATM   25  O   UNL     1     -46.532 -52.418  11.763  1.00  0.00    -0.396 OA
HETATM   26  H   UNL     1     -45.732 -52.305  11.226  1.00  0.00     0.210 HD
ENDBRANCH  22  25
ENDBRANCH   4  19
TORSDOF 6
ENDMDL
MODEL 8
REMARK VINA RESULT:      -4.8      8.066     12.431
REMARK  6 active torsions:
REMARK  status: ('A' for Active; 'I' for Inactive)
REMARK    1  A    between atoms: C_2  and  N_3 
REMARK    2  A    between atoms: N_3  and  C_4 
REMARK    3  A    between atoms: N_3  and  C_6 
REMARK    4  A    between atoms: C_9  and  N_10 
REMARK       I    between atoms: N_10  and  C_11 
REMARK       I    between atoms: C_11  and  N_13 
REMARK    5  A    between atoms: N_13  and  C_14 
REMARK    6  A    between atoms: C_17  and  O_18 
ROOT
HETATM    1  N   UNL     1     -39.863 -56.004  16.875  1.00  0.00    -0.308 N 
HETATM    2  C   UNL     1     -39.409 -55.410  15.715  1.00  0.00     0.321 C 
HETATM    3  O   UNL     1     -38.451 -55.784  15.046  1.00  0.00    -0.247 OA
HETATM    4  N   UNL     1     -40.188 -54.340  15.341  1.00  0.00    -0.338 N 
HETATM    5  H   UNL     1     -40.835 -55.849  17.100  1.00  0.00     0.170 HD
HETATM    6  H   UNL     1     -40.814 -53.941  16.023  1.00  0.00     0.164 HD
ENDROOT
BRANCH   1   7
HETATM    7  C   UNL     1     -39.181 -57.008  17.604  1.00  0.00     0.051 A 
HETATM    8  C   UNL     1     -39.600 -58.331  17.652  1.00  0.00     0.034 A 
HETATM    9  C   UNL     1     -38.832 -59.281  18.326  1.00  0.00     0.044 A 
HETATM   10  C   UNL     1     -37.642 -58.903  18.947  1.00  0.00     0.082 A 
HETATM   11  N   UNL     1     -37.230 -57.617  18.940  1.00  0.00    -0.354 N 
HETATM   12  C   UNL     1     -37.997 -56.712  18.275  1.00  0.00     0.119 A 
ATOM     13  HN  UNL     1     -36.373 -57.335  19.418  1.00  0.00     0.166 HD
BRANCH  10  14
HETATM   14  N   UNL     1     -36.825 -59.939  19.493  1.00  0.00    -0.270 NA
BRANCH  14  15
HETATM   15  C   UNL     1     -37.014 -60.002  20.955  1.00  0.00     0.092 C 
HETATM   16  C   UNL     1     -36.694 -61.374  21.531  1.00  0.00     0.021 C 
ENDBRANCH  14  15
BRANCH  14  17
HETATM   17  C   UNL     1     -35.446 -59.718  19.008  1.00  0.00     0.092 C 
HETATM   18  C   UNL     1     -34.951 -60.902  18.188  1.00  0.00     0.021 C 
ENDBRANCH  14  17
ENDBRANCH  10  14
ENDBRANCH   1   7
BRANCH   4  19
HETATM   19  C   UNL     1     -40.005 -53.674  14.052  1.00  0.00     0.086 C 
HETATM   20  C   UNL     1     -40.138 -52.140  14.103  1.00  0.00     0.028 C 
HETATM   21  C   UNL     1     -41.576 -51.616  14.140  1.00  0.00     0.034 C 
HETATM   22  C   UNL     1     -42.506 -52.293  13.131  1.00  0.00     0.118 C 
HETATM   23  C   UNL     1     -42.386 -53.813  13.171  1.00  0.00     0.034 C 
HETATM   24  C   UNL     1     -40.939 -54.280  12.999  1.00  0.00     0.028 C 
BRANCH  22  25
HETATM   25  O   UNL     1     -42.247 -51.821  11.811  1.00  0.00    -0.396 OA
HETATM   26  H   UNL     1     -42.092 -50.864  11.836  1.00  0.00     0.210 HD
ENDBRANCH  22  25
ENDBRANCH   4  19
TORSDOF 6
ENDMDL
MODEL 9
REMARK VINA RESULT:      -4.7      3.465      8.983
REMARK  6 active torsions:
REMARK  status: ('A' for Active; 'I' for Inactive)
REMARK    1  A    between atoms: C_2  and  N_3 
REMARK    2  A    between atoms: N_3  and  C_4 
REMARK    3  A    between atoms: N_3  and  C_6 
REMARK    4  A    between atoms: C_9  and  N_10 
REMARK       I    between atoms: N_10  and  C_11 
REMARK       I    between atoms: C_11  and  N_13 
REMARK    5  A    between atoms: N_13  and  C_14 
REMARK    6  A    between atoms: C_17  and  O_18 
ROOT
HETATM    1  N   UNL     1     -40.982 -48.949  13.142  1.00  0.00    -0.308 N 
HETATM    2  C   UNL     1     -40.148 -48.135  12.404  1.00  0.00     0.321 C 
HETATM    3  O   UNL     1     -39.169 -48.503  11.763  1.00  0.00    -0.247 OA
HETATM    4  N   UNL     1     -40.558 -46.821  12.420  1.00  0.00    -0.338 N 
HETATM    5  H   UNL     1     -41.920 -48.604  13.289  1.00  0.00     0.170 HD
HETATM    6  H   UNL     1     -41.221 -46.535  13.123  1.00  0.00     0.164 HD
ENDROOT
BRANCH   1   7
HETATM    7  C   UNL     1     -40.733 -50.306  13.460  1.00  0.00     0.051 A 
HETATM    8  C   UNL     1     -40.276 -50.725  14.702  1.00  0.00     0.034 A 
HETATM    9  C   UNL     1     -40.129 -52.087  14.967  1.00  0.00     0.044 A 
HETATM   10  C   UNL     1     -40.446 -53.026  13.987  1.00  0.00     0.082 A 
HETATM   11  N   UNL     1     -40.862 -52.642  12.761  1.00  0.00    -0.354 N 
HETATM   12  C   UNL     1     -40.998 -51.308  12.530  1.00  0.00     0.119 A 
ATOM     13  HN  UNL     1     -41.068 -53.329  12.035  1.00  0.00     0.166 HD
BRANCH  10  14
HETATM   14  N   UNL     1     -40.418 -54.405  14.361  1.00  0.00    -0.270 NA
BRANCH  14  15
HETATM   15  C   UNL     1     -41.261 -54.614  15.553  1.00  0.00     0.092 C 
HETATM   16  C   UNL     1     -42.669 -55.077  15.204  1.00  0.00     0.021 C 
ENDBRANCH  14  15
BRANCH  14  17
HETATM   17  C   UNL     1     -38.999 -54.805  14.469  1.00  0.00     0.092 C 
HETATM   18  C   UNL     1     -38.684 -55.360  15.852  1.00  0.00     0.021 C 
ENDBRANCH  14  17
ENDBRANCH  10  14
ENDBRANCH   1   7
BRANCH   4  19
HETATM   19  C   UNL     1     -39.933 -45.815  11.562  1.00  0.00     0.086 C 
HETATM   20  C   UNL     1     -39.372 -44.595  12.318  1.00  0.00     0.028 C 
HETATM   21  C   UNL     1     -40.415 -43.555  12.735  1.00  0.00     0.034 C 
HETATM   22  C   UNL     1     -41.411 -43.203  11.630  1.00  0.00     0.118 C 
HETATM   23  C   UNL     1     -41.991 -44.446  10.963  1.00  0.00     0.034 C 
HETATM   24  C   UNL     1     -40.897 -45.385  10.451  1.00  0.00     0.028 C 
BRANCH  22  25
HETATM   25  O   UNL     1     -40.803 -42.366  10.650  1.00  0.00    -0.396 OA
HETATM   26  H   UNL     1     -39.846 -42.332  10.804  1.00  0.00     0.210 HD
ENDBRANCH  22  25
ENDBRANCH   4  19
TORSDOF 6
ENDMDL
