MODEL 1
REMARK VINA RESULT:      -6.4      0.000      0.000
REMARK  5 active torsions:
REMARK  status: ('A' for Active; 'I' for Inactive)
REMARK    1  A    between atoms: N_2  and  C_4 
REMARK    2  A    between atoms: C_11  and  N_12 
REMARK       I    between atoms: N_12  and  C_13 
REMARK       I    between atoms: C_13  and  N_15 
REMARK    3  A    between atoms: N_15  and  C_16 
REMARK    4  A    between atoms: C_16  and  C_17 
REMARK    5  A    between atoms: C_17  and  C_20 
ROOT
HETATM    1  N   UNL     1     -42.202 -49.397  11.342  1.00  0.00    -0.305 N 
HETATM    2  C   UNL     1     -42.937 -49.503  12.500  1.00  0.00     0.320 C 
HETATM    3  O   UNL     1     -43.178 -48.566  13.255  1.00  0.00    -0.247 OA
HETATM    4  N   UNL     1     -43.342 -50.795  12.760  1.00  0.00    -0.342 N 
HETATM    5  H   UNL     1     -41.615 -50.193  11.123  1.00  0.00     0.171 HD
HETATM    6  H   UNL     1     -43.619 -51.319  11.943  1.00  0.00     0.164 HD
ENDROOT
BRANCH   1   7
HETATM    7  C   UNL     1     -41.689 -48.141  10.924  1.00  0.00     0.090 A 
HETATM    8  C   UNL     1     -42.357 -47.327  10.000  1.00  0.00     0.111 A 
HETATM    9  N   UNL     1     -41.887 -46.086   9.724  1.00  0.00    -0.341 N 
HETATM   10  C   UNL     1     -40.741 -45.704  10.308  1.00  0.00     0.181 A 
ATOM     11  HN  UNL     1     -42.390 -45.462   9.092  1.00  0.00     0.167 HD
HETATM   12  N   UNL     1     -40.008 -46.422  11.168  1.00  0.00    -0.360 N 
HETATM   13  C   UNL     1     -40.509 -47.635  11.454  1.00  0.00     0.121 A 
ATOM     14  HN  UNL     1     -39.139 -46.076  11.573  1.00  0.00     0.166 HD
BRANCH   8  15
HETATM   15  N   UNL     1     -43.500 -47.788   9.291  1.00  0.00    -0.276 NA
HETATM   16  C   UNL     1     -44.773 -47.322   9.856  1.00  0.00     0.118 C 
HETATM   17  C   UNL     1     -43.394 -47.678   7.830  1.00  0.00     0.118 C 
ENDBRANCH   8  15
ENDBRANCH   1   7
BRANCH   4  18
HETATM   18  C   UNL     1     -44.129 -50.996  13.964  1.00  0.00     0.134 C 
BRANCH  18  19
HETATM   19  C   UNL     1     -45.298 -51.950  13.757  1.00  0.00    -0.021 A 
HETATM   20  C   UNL     1     -46.363 -51.542  12.746  1.00  0.00     0.012 A 
HETATM   21  C   UNL     1     -46.652 -51.406  14.208  1.00  0.00     0.012 A 
BRANCH  19  22
HETATM   22  C   UNL     1     -44.955 -53.450  13.947  1.00  0.00    -0.004 A 
HETATM   23  C   UNL     1     -43.548 -53.972  14.155  1.00  0.00     0.006 A 
HETATM   24  C   UNL     1     -44.263 -54.263  12.872  1.00  0.00     0.006 A 
ENDBRANCH  19  22
ENDBRANCH  18  19
ENDBRANCH   4  18
TORSDOF 5
ENDMDL
MODEL 2
REMARK VINA RESULT:      -6.1      3.346      5.063
REMARK  5 active torsions:
REMARK  status: ('A' for Active; 'I' for Inactive)
REMARK    1  A    between atoms: N_2  and  C_4 
REMARK    2  A    between atoms: C_11  and  N_12 
REMARK       I    between atoms: N_12  and  C_13 
REMARK       I    between atoms: C_13  and  N_15 
REMARK    3  A    between atoms: N_15  and  C_16 
REMARK    4  A    between atoms: C_16  and  C_17 
REMARK    5  A    between atoms: C_17  and  C_20 
ROOT
HETATM    1  N   UNL     1     -41.314 -50.810  12.784  1.00  0.00    -0.305 N 
HETATM    2  C   UNL     1     -41.983 -51.937  12.367  1.00  0.00     0.320 C 
HETATM    3  O   UNL     1     -41.492 -52.815  11.664  1.00  0.00    -0.247 OA
HETATM    4  N   UNL     1     -43.297 -51.964  12.785  1.00  0.00    -0.342 N 
HETATM    5  H   UNL     1     -41.871 -49.967  12.839  1.00  0.00     0.171 HD
HETATM    6  H   UNL     1     -43.448 -51.609  13.717  1.00  0.00     0.164 HD
ENDROOT
BRANCH   1   7
HETATM    7  C   UNL     1     -39.953 -50.607  12.435  1.00  0.00     0.090 A 
HETATM    8  C   UNL     1     -38.898 -51.172  13.164  1.00  0.00     0.111 A 
HETATM    9  N   UNL     1     -37.623 -51.048  12.721  1.00  0.00    -0.341 N 
HETATM   10  C   UNL     1     -37.411 -50.318  11.616  1.00  0.00     0.181 A 
ATOM     11  HN  UNL     1     -36.850 -51.496  13.213  1.00  0.00     0.167 HD
HETATM   12  N   UNL     1     -38.343 -49.705  10.875  1.00  0.00    -0.360 N 
HETATM   13  C   UNL     1     -39.602 -49.869  11.311  1.00  0.00     0.121 A 
ATOM     14  HN  UNL     1     -38.114 -49.157  10.046  1.00  0.00     0.166 HD
BRANCH   8  15
HETATM   15  N   UNL     1     -39.120 -51.836  14.402  1.00  0.00    -0.276 NA
HETATM   16  C   UNL     1     -39.059 -53.299  14.306  1.00  0.00     0.118 C 
HETATM   17  C   UNL     1     -38.392 -51.259  15.540  1.00  0.00     0.118 C 
ENDBRANCH   8  15
ENDBRANCH   1   7
BRANCH   4  18
HETATM   18  C   UNL     1     -44.078 -53.124  12.391  1.00  0.00     0.134 C 
BRANCH  18  19
HETATM   19  C   UNL     1     -45.077 -53.555  13.456  1.00  0.00    -0.021 A 
HETATM   20  C   UNL     1     -44.515 -54.053  14.782  1.00  0.00     0.012 A 
HETATM   21  C   UNL     1     -45.045 -55.045  13.794  1.00  0.00     0.012 A 
BRANCH  19  22
HETATM   22  C   UNL     1     -46.424 -52.787  13.433  1.00  0.00    -0.004 A 
HETATM   23  C   UNL     1     -46.678 -51.559  12.585  1.00  0.00     0.006 A 
HETATM   24  C   UNL     1     -46.588 -51.424  14.074  1.00  0.00     0.006 A 
ENDBRANCH  19  22
ENDBRANCH  18  19
ENDBRANCH   4  18
TORSDOF 5
ENDMDL
MODEL 3
REMARK VINA RESULT:      -6.0      1.056      2.726
REMARK  5 active torsions:
REMARK  status: ('A' for Active; 'I' for Inactive)
REMARK    1  A    between atoms: N_2  and  C_4 
REMARK    2  A    between atoms: C_11  and  N_12 
REMARK       I    between atoms: N_12  and  C_13 
REMARK       I    between atoms: C_13  and  N_15 
REMARK    3  A    between atoms: N_15  and  C_16 
REMARK    4  A    between atoms: C_16  and  C_17 
REMARK    5  A    between atoms: C_17  and  C_20 
ROOT
HETATM    1  N   UNL     1     -42.229 -49.379  11.409  1.00  0.00    -0.305 N 
HETATM    2  C   UNL     1     -42.924 -49.537  12.584  1.00  0.00     0.320 C 
HETATM    3  O   UNL     1     -43.034 -48.671  13.446  1.00  0.00    -0.247 OA
HETATM    4  N   UNL     1     -43.456 -50.802  12.725  1.00  0.00    -0.342 N 
HETATM    5  H   UNL     1     -41.740 -50.201  11.076  1.00  0.00     0.171 HD
HETATM    6  H   UNL     1     -43.819 -51.201  11.872  1.00  0.00     0.164 HD
ENDROOT
BRANCH   1   7
HETATM    7  C   UNL     1     -41.600 -48.144  11.101  1.00  0.00     0.090 A 
HETATM    8  C   UNL     1     -40.287 -47.852  11.493  1.00  0.00     0.111 A 
HETATM    9  N   UNL     1     -39.690 -46.710  11.073  1.00  0.00    -0.341 N 
HETATM   10  C   UNL     1     -40.418 -45.855  10.339  1.00  0.00     0.181 A 
ATOM     11  HN  UNL     1     -38.718 -46.507  11.307  1.00  0.00     0.167 HD
HETATM   12  N   UNL     1     -41.689 -46.021   9.950  1.00  0.00    -0.360 N 
HETATM   13  C   UNL     1     -42.250 -47.175  10.347  1.00  0.00     0.121 A 
ATOM     14  HN  UNL     1     -42.190 -45.327   9.396  1.00  0.00     0.166 HD
BRANCH   8  15
HETATM   15  N   UNL     1     -39.565 -48.704  12.374  1.00  0.00    -0.276 NA
HETATM   16  C   UNL     1     -38.388 -49.330  11.760  1.00  0.00     0.118 C 
HETATM   17  C   UNL     1     -39.340 -48.142  13.713  1.00  0.00     0.118 C 
ENDBRANCH   8  15
ENDBRANCH   1   7
BRANCH   4  18
HETATM   18  C   UNL     1     -44.213 -51.054  13.939  1.00  0.00     0.134 C 
BRANCH  18  19
HETATM   19  C   UNL     1     -45.401 -51.980  13.716  1.00  0.00    -0.021 A 
HETATM   20  C   UNL     1     -46.449 -51.542  12.701  1.00  0.00     0.012 A 
HETATM   21  C   UNL     1     -46.746 -51.409  14.161  1.00  0.00     0.012 A 
BRANCH  19  22
HETATM   22  C   UNL     1     -45.092 -53.489  13.899  1.00  0.00    -0.004 A 
HETATM   23  C   UNL     1     -43.735 -54.028  14.299  1.00  0.00     0.006 A 
HETATM   24  C   UNL     1     -44.246 -54.266  12.911  1.00  0.00     0.006 A 
ENDBRANCH  19  22
ENDBRANCH  18  19
ENDBRANCH   4  18
TORSDOF 5
ENDMDL
MODEL 4
REMARK VINA RESULT:      -5.7      2.955      6.736
REMARK  5 active torsions:
REMARK  status: ('A' for Active; 'I' for Inactive)
REMARK    1  A    between atoms: N_2  and  C_4 
REMARK    2  A    between atoms: C_11  and  N_12 
REMARK       I    between atoms: N_12  and  C_13 
REMARK       I    between atoms: C_13  and  N_15 
REMARK    3  A    between atoms: N_15  and  C_16 
REMARK    4  A    between atoms: C_16  and  C_17 
REMARK    5  A    between atoms: C_17  and  C_20 
ROOT
HETATM    1  N   UNL     1     -40.867 -50.837  11.419  1.00  0.00    -0.305 N 
HETATM    2  C   UNL     1     -41.742 -49.865  11.844  1.00  0.00     0.320 C 
HETATM    3  O   UNL     1     -42.257 -49.835  12.958  1.00  0.00    -0.247 OA
HETATM    4  N   UNL     1     -42.028 -48.937  10.865  1.00  0.00    -0.342 N 
HETATM    5  H   UNL     1     -40.946 -51.100  10.444  1.00  0.00     0.171 HD
HETATM    6  H   UNL     1     -41.242 -48.682  10.287  1.00  0.00     0.164 HD
ENDROOT
BRANCH   1   7
HETATM    7  C   UNL     1     -40.470 -51.885  12.291  1.00  0.00     0.090 A 
HETATM    8  C   UNL     1     -39.400 -51.752  13.185  1.00  0.00     0.111 A 
HETATM    9  N   UNL     1     -39.136 -52.735  14.080  1.00  0.00    -0.341 N 
HETATM   10  C   UNL     1     -39.884 -53.848  14.029  1.00  0.00     0.181 A 
ATOM     11  HN  UNL     1     -38.392 -52.633  14.771  1.00  0.00     0.167 HD
HETATM   12  N   UNL     1     -40.898 -54.088  13.187  1.00  0.00    -0.360 N 
HETATM   13  C   UNL     1     -41.165 -53.087  12.332  1.00  0.00     0.121 A 
ATOM     14  HN  UNL     1     -41.425 -54.961  13.195  1.00  0.00     0.166 HD
BRANCH   8  15
HETATM   15  N   UNL     1     -38.534 -50.625  13.149  1.00  0.00    -0.276 NA
HETATM   16  C   UNL     1     -38.335 -49.990  14.457  1.00  0.00     0.118 C 
HETATM   17  C   UNL     1     -37.307 -50.826  12.365  1.00  0.00     0.118 C 
ENDBRANCH   8  15
ENDBRANCH   1   7
BRANCH   4  18
HETATM   18  C   UNL     1     -42.943 -47.870  11.232  1.00  0.00     0.134 C 
BRANCH  18  19
HETATM   19  C   UNL     1     -42.756 -46.613  10.393  1.00  0.00    -0.021 A 
HETATM   20  C   UNL     1     -41.365 -45.991  10.365  1.00  0.00     0.012 A 
HETATM   21  C   UNL     1     -42.435 -45.354  11.196  1.00  0.00     0.012 A 
BRANCH  19  22
HETATM   22  C   UNL     1     -43.659 -46.531   9.135  1.00  0.00    -0.004 A 
HETATM   23  C   UNL     1     -44.827 -47.459   8.876  1.00  0.00     0.006 A 
HETATM   24  C   UNL     1     -43.597 -47.562   8.027  1.00  0.00     0.006 A 
ENDBRANCH  19  22
ENDBRANCH  18  19
ENDBRANCH   4  18
TORSDOF 5
ENDMDL
MODEL 5
REMARK VINA RESULT:      -5.6      2.497      4.240
REMARK  5 active torsions:
REMARK  status: ('A' for Active; 'I' for Inactive)
REMARK    1  A    between atoms: N_2  and  C_4 
REMARK    2  A    between atoms: C_11  and  N_12 
REMARK       I    between atoms: N_12  and  C_13 
REMARK       I    between atoms: C_13  and  N_15 
REMARK    3  A    between atoms: N_15  and  C_16 
REMARK    4  A    between atoms: C_16  and  C_17 
REMARK    5  A    between atoms: C_17  and  C_20 
ROOT
HETATM    1  N   UNL     1     -40.962 -50.565  11.045  1.00  0.00    -0.305 N 
HETATM    2  C   UNL     1     -41.736 -51.195  11.992  1.00  0.00     0.320 C 
HETATM    3  O   UNL     1     -42.300 -50.621  12.919  1.00  0.00    -0.247 OA
HETATM    4  N   UNL     1     -41.779 -52.563  11.824  1.00  0.00    -0.342 N 
HETATM    5  H   UNL     1     -40.156 -51.087  10.723  1.00  0.00     0.171 HD
HETATM    6  H   UNL     1     -41.821 -52.865  10.862  1.00  0.00     0.164 HD
ENDROOT
BRANCH   1   7
HETATM    7  C   UNL     1     -40.791 -49.156  11.071  1.00  0.00     0.090 A 
HETATM    8  C   UNL     1     -39.710 -48.542  11.718  1.00  0.00     0.111 A 
HETATM    9  N   UNL     1     -39.526 -47.204  11.612  1.00  0.00    -0.341 N 
HETATM   10  C   UNL     1     -40.443 -46.496  10.936  1.00  0.00     0.181 A 
ATOM     11  HN  UNL     1     -38.717 -46.749  12.035  1.00  0.00     0.167 HD
HETATM   12  N   UNL     1     -41.530 -46.981  10.322  1.00  0.00    -0.360 N 
HETATM   13  C   UNL     1     -41.675 -48.313  10.408  1.00  0.00     0.121 A 
ATOM     14  HN  UNL     1     -42.194 -46.386   9.828  1.00  0.00     0.166 HD
BRANCH   8  15
HETATM   15  N   UNL     1     -38.814 -49.283  12.537  1.00  0.00    -0.276 NA
HETATM   16  C   UNL     1     -37.621 -49.759  11.828  1.00  0.00     0.118 C 
HETATM   17  C   UNL     1     -38.554 -48.680  13.851  1.00  0.00     0.118 C 
ENDBRANCH   8  15
ENDBRANCH   1   7
BRANCH   4  18
HETATM   18  C   UNL     1     -42.580 -53.307  12.780  1.00  0.00     0.134 C 
BRANCH  18  19
HETATM   19  C   UNL     1     -41.749 -53.926  13.896  1.00  0.00    -0.021 A 
HETATM   20  C   UNL     1     -42.456 -54.888  14.844  1.00  0.00     0.012 A 
HETATM   21  C   UNL     1     -42.153 -53.496  15.305  1.00  0.00     0.012 A 
BRANCH  19  22
HETATM   22  C   UNL     1     -40.256 -54.153  13.545  1.00  0.00    -0.004 A 
HETATM   23  C   UNL     1     -39.251 -54.765  14.498  1.00  0.00     0.006 A 
HETATM   24  C   UNL     1     -39.148 -53.313  14.146  1.00  0.00     0.006 A 
ENDBRANCH  19  22
ENDBRANCH  18  19
ENDBRANCH   4  18
TORSDOF 5
ENDMDL
MODEL 6
REMARK VINA RESULT:      -5.5      1.902      2.585
REMARK  5 active torsions:
REMARK  status: ('A' for Active; 'I' for Inactive)
REMARK    1  A    between atoms: N_2  and  C_4 
REMARK    2  A    between atoms: C_11  and  N_12 
REMARK       I    between atoms: N_12  and  C_13 
REMARK       I    between atoms: C_13  and  N_15 
REMARK    3  A    between atoms: N_15  and  C_16 
REMARK    4  A    between atoms: C_16  and  C_17 
REMARK    5  A    between atoms: C_17  and  C_20 
ROOT
HETATM    1  N   UNL     1     -42.149 -50.619  12.017  1.00  0.00    -0.305 N 
HETATM    2  C   UNL     1     -42.606 -50.821  13.298  1.00  0.00     0.320 C 
HETATM    3  O   UNL     1     -41.934 -50.642  14.310  1.00  0.00    -0.247 OA
HETATM    4  N   UNL     1     -43.900 -51.298  13.336  1.00  0.00    -0.342 N 
HETATM    5  H   UNL     1     -42.496 -51.268  11.322  1.00  0.00     0.171 HD
HETATM    6  H   UNL     1     -44.514 -50.896  12.643  1.00  0.00     0.164 HD
ENDROOT
BRANCH   1   7
HETATM    7  C   UNL     1     -40.831 -50.144  11.786  1.00  0.00     0.090 A 
HETATM    8  C   UNL     1     -40.552 -48.793  11.542  1.00  0.00     0.111 A 
HETATM    9  N   UNL     1     -39.268 -48.370  11.448  1.00  0.00    -0.341 N 
HETATM   10  C   UNL     1     -38.296 -49.292  11.527  1.00  0.00     0.181 A 
ATOM     11  HN  UNL     1     -39.047 -47.382  11.321  1.00  0.00     0.167 HD
HETATM   12  N   UNL     1     -38.460 -50.608  11.714  1.00  0.00    -0.360 N 
HETATM   13  C   UNL     1     -39.738 -51.001  11.840  1.00  0.00     0.121 A 
ATOM     14  HN  UNL     1     -37.677 -51.259  11.758  1.00  0.00     0.166 HD
BRANCH   8  15
HETATM   15  N   UNL     1     -41.590 -47.844  11.335  1.00  0.00    -0.276 NA
HETATM   16  C   UNL     1     -41.293 -46.513  11.879  1.00  0.00     0.118 C 
HETATM   17  C   UNL     1     -42.153 -47.846   9.978  1.00  0.00     0.118 C 
ENDBRANCH   8  15
ENDBRANCH   1   7
BRANCH   4  18
HETATM   18  C   UNL     1     -44.464 -51.535  14.653  1.00  0.00     0.134 C 
BRANCH  18  19
HETATM   19  C   UNL     1     -45.813 -52.240  14.602  1.00  0.00    -0.021 A 
HETATM   20  C   UNL     1     -46.875 -51.653  13.681  1.00  0.00     0.012 A 
HETATM   21  C   UNL     1     -46.980 -51.425  15.156  1.00  0.00     0.012 A 
BRANCH  19  22
HETATM   22  C   UNL     1     -45.753 -53.773  14.826  1.00  0.00    -0.004 A 
HETATM   23  C   UNL     1     -44.466 -54.571  14.849  1.00  0.00     0.006 A 
HETATM   24  C   UNL     1     -45.421 -54.741  13.708  1.00  0.00     0.006 A 
ENDBRANCH  19  22
ENDBRANCH  18  19
ENDBRANCH   4  18
TORSDOF 5
ENDMDL
MODEL 7
REMARK VINA RESULT:      -5.3      2.079      6.502
REMARK  5 active torsions:
REMARK  status: ('A' for Active; 'I' for Inactive)
REMARK    1  A    between atoms: N_2  and  C_4 
REMARK    2  A    between atoms: C_11  and  N_12 
REMARK       I    between atoms: N_12  and  C_13 
REMARK       I    between atoms: C_13  and  N_15 
REMARK    3  A    between atoms: N_15  and  C_16 
REMARK    4  A    between atoms: C_16  and  C_17 
REMARK    5  A    between atoms: C_17  and  C_20 
ROOT
HETATM    1  N   UNL     1     -41.820 -51.463  11.600  1.00  0.00    -0.305 N 
HETATM    2  C   UNL     1     -41.540 -50.144  11.875  1.00  0.00     0.320 C 
HETATM    3  O   UNL     1     -41.309 -49.705  12.998  1.00  0.00    -0.247 OA
HETATM    4  N   UNL     1     -41.590 -49.342  10.755  1.00  0.00    -0.342 N 
HETATM    5  H   UNL     1     -42.496 -51.621  10.863  1.00  0.00     0.171 HD
HETATM    6  H   UNL     1     -41.220 -49.767   9.918  1.00  0.00     0.164 HD
ENDROOT
BRANCH   1   7
HETATM    7  C   UNL     1     -41.828 -52.432  12.638  1.00  0.00     0.090 A 
HETATM    8  C   UNL     1     -42.999 -52.799  13.313  1.00  0.00     0.111 A 
HETATM    9  N   UNL     1     -42.976 -53.814  14.211  1.00  0.00    -0.341 N 
HETATM   10  C   UNL     1     -41.795 -54.393  14.473  1.00  0.00     0.181 A 
ATOM     11  HN  UNL     1     -43.830 -54.126  14.674  1.00  0.00     0.167 HD
HETATM   12  N   UNL     1     -40.617 -54.087  13.916  1.00  0.00    -0.360 N 
HETATM   13  C   UNL     1     -40.668 -53.103  13.003  1.00  0.00     0.121 A 
ATOM     14  HN  UNL     1     -39.750 -54.563  14.164  1.00  0.00     0.166 HD
BRANCH   8  15
HETATM   15  N   UNL     1     -44.221 -52.096  13.122  1.00  0.00    -0.276 NA
HETATM   16  C   UNL     1     -45.357 -52.965  12.791  1.00  0.00     0.118 C 
HETATM   17  C   UNL     1     -44.499 -51.074  14.140  1.00  0.00     0.118 C 
ENDBRANCH   8  15
ENDBRANCH   1   7
BRANCH   4  18
HETATM   18  C   UNL     1     -41.302 -47.932  10.955  1.00  0.00     0.134 C 
BRANCH  18  19
HETATM   19  C   UNL     1     -42.557 -47.072  11.014  1.00  0.00    -0.021 A 
HETATM   20  C   UNL     1     -42.387 -45.615  11.424  1.00  0.00     0.012 A 
HETATM   21  C   UNL     1     -42.935 -46.593  12.415  1.00  0.00     0.012 A 
BRANCH  19  22
HETATM   22  C   UNL     1     -43.659 -47.460   9.995  1.00  0.00    -0.004 A 
HETATM   23  C   UNL     1     -43.436 -47.529   8.499  1.00  0.00     0.006 A 
HETATM   24  C   UNL     1     -44.298 -46.445   9.070  1.00  0.00     0.006 A 
ENDBRANCH  19  22
ENDBRANCH  18  19
ENDBRANCH   4  18
TORSDOF 5
ENDMDL
MODEL 8
REMARK VINA RESULT:      -5.3      1.965      2.714
REMARK  5 active torsions:
REMARK  status: ('A' for Active; 'I' for Inactive)
REMARK    1  A    between atoms: N_2  and  C_4 
REMARK    2  A    between atoms: C_11  and  N_12 
REMARK       I    between atoms: N_12  and  C_13 
REMARK       I    between atoms: C_13  and  N_15 
REMARK    3  A    between atoms: N_15  and  C_16 
REMARK    4  A    between atoms: C_16  and  C_17 
REMARK    5  A    between atoms: C_17  and  C_20 
ROOT
HETATM    1  N   UNL     1     -43.120 -48.744  11.820  1.00  0.00    -0.305 N 
HETATM    2  C   UNL     1     -42.103 -49.668  11.762  1.00  0.00     0.320 C 
HETATM    3  O   UNL     1     -40.965 -49.423  11.371  1.00  0.00    -0.247 OA
HETATM    4  N   UNL     1     -42.504 -50.929  12.148  1.00  0.00    -0.342 N 
HETATM    5  H   UNL     1     -44.044 -49.097  11.604  1.00  0.00     0.171 HD
HETATM    6  H   UNL     1     -43.149 -50.945  12.923  1.00  0.00     0.164 HD
ENDROOT
BRANCH   1   7
HETATM    7  C   UNL     1     -42.892 -47.393  11.445  1.00  0.00     0.090 A 
HETATM    8  C   UNL     1     -43.437 -46.836  10.280  1.00  0.00     0.111 A 
HETATM    9  N   UNL     1     -43.290 -45.512  10.028  1.00  0.00    -0.341 N 
HETATM   10  C   UNL     1     -42.557 -44.787  10.886  1.00  0.00     0.181 A 
ATOM     11  HN  UNL     1     -43.723 -45.081   9.211  1.00  0.00     0.167 HD
HETATM   12  N   UNL     1     -41.961 -45.233  11.999  1.00  0.00    -0.360 N 
HETATM   13  C   UNL     1     -42.148 -46.539  12.250  1.00  0.00     0.121 A 
ATOM     14  HN  UNL     1     -41.410 -44.629  12.609  1.00  0.00     0.166 HD
BRANCH   8  15
HETATM   15  N   UNL     1     -44.104 -47.636   9.313  1.00  0.00    -0.276 NA
HETATM   16  C   UNL     1     -45.562 -47.467   9.310  1.00  0.00     0.118 C 
HETATM   17  C   UNL     1     -43.478 -47.632   7.984  1.00  0.00     0.118 C 
ENDBRANCH   8  15
ENDBRANCH   1   7
BRANCH   4  18
HETATM   18  C   UNL     1     -41.488 -51.968  12.120  1.00  0.00     0.134 C 
BRANCH  18  19
HETATM   19  C   UNL     1     -41.702 -53.035  13.185  1.00  0.00    -0.021 A 
HETATM   20  C   UNL     1     -40.591 -53.235  14.209  1.00  0.00     0.012 A 
HETATM   21  C   UNL     1     -40.748 -54.224  13.096  1.00  0.00     0.012 A 
BRANCH  19  22
HETATM   22  C   UNL     1     -43.180 -53.247  13.605  1.00  0.00    -0.004 A 
HETATM   23  C   UNL     1     -43.730 -54.563  14.114  1.00  0.00     0.006 A 
HETATM   24  C   UNL     1     -44.149 -54.056  12.768  1.00  0.00     0.006 A 
ENDBRANCH  19  22
ENDBRANCH  18  19
ENDBRANCH   4  18
TORSDOF 5
ENDMDL
MODEL 9
REMARK VINA RESULT:      -5.1      2.171      3.934
REMARK  5 active torsions:
REMARK  status: ('A' for Active; 'I' for Inactive)
REMARK    1  A    between atoms: N_2  and  C_4 
REMARK    2  A    between atoms: C_11  and  N_12 
REMARK       I    between atoms: N_12  and  C_13 
REMARK       I    between atoms: C_13  and  N_15 
REMARK    3  A    between atoms: N_15  and  C_16 
REMARK    4  A    between atoms: C_16  and  C_17 
REMARK    5  A    between atoms: C_17  and  C_20 
ROOT
HETATM    1  N   UNL     1     -42.044 -48.795  12.011  1.00  0.00    -0.305 N 
HETATM    2  C   UNL     1     -41.441 -50.003  11.748  1.00  0.00     0.320 C 
HETATM    3  O   UNL     1     -40.362 -50.130  11.179  1.00  0.00    -0.247 OA
HETATM    4  N   UNL     1     -42.203 -51.080  12.152  1.00  0.00    -0.342 N 
HETATM    5  H   UNL     1     -43.054 -48.786  11.943  1.00  0.00     0.171 HD
HETATM    6  H   UNL     1     -42.691 -50.944  13.024  1.00  0.00     0.164 HD
ENDROOT
BRANCH   1   7
HETATM    7  C   UNL     1     -41.409 -47.577  11.651  1.00  0.00     0.090 A 
HETATM    8  C   UNL     1     -40.470 -46.947  12.478  1.00  0.00     0.111 A 
HETATM    9  N   UNL     1     -39.803 -45.852  12.037  1.00  0.00    -0.341 N 
HETATM   10  C   UNL     1     -40.125 -45.366  10.829  1.00  0.00     0.181 A 
ATOM     11  HN  UNL     1     -39.081 -45.411  12.607  1.00  0.00     0.167 HD
HETATM   12  N   UNL     1     -41.034 -45.868   9.984  1.00  0.00    -0.360 N 
HETATM   13  C   UNL     1     -41.658 -46.973  10.425  1.00  0.00     0.121 A 
ATOM     14  HN  UNL     1     -41.237 -45.446   9.079  1.00  0.00     0.166 HD
BRANCH   8  15
HETATM   15  N   UNL     1     -40.227 -47.394  13.805  1.00  0.00    -0.276 NA
HETATM   16  C   UNL     1     -38.956 -48.110  13.965  1.00  0.00     0.118 C 
HETATM   17  C   UNL     1     -40.510 -46.395  14.844  1.00  0.00     0.118 C 
ENDBRANCH   8  15
ENDBRANCH   1   7
BRANCH   4  18
HETATM   18  C   UNL     1     -41.639 -52.397  11.916  1.00  0.00     0.134 C 
BRANCH  18  19
HETATM   19  C   UNL     1     -41.591 -53.256  13.172  1.00  0.00    -0.021 A 
HETATM   20  C   UNL     1     -40.803 -52.716  14.359  1.00  0.00     0.012 A 
HETATM   21  C   UNL     1     -40.207 -53.802  13.518  1.00  0.00     0.012 A 
BRANCH  19  22
HETATM   22  C   UNL     1     -42.857 -54.118  13.419  1.00  0.00    -0.004 A 
HETATM   23  C   UNL     1     -44.160 -53.931  12.671  1.00  0.00     0.006 A 
HETATM   24  C   UNL     1     -44.082 -53.571  14.123  1.00  0.00     0.006 A 
ENDBRANCH  19  22
ENDBRANCH  18  19
ENDBRANCH   4  18
TORSDOF 5
ENDMDL
