MODEL 1
REMARK VINA RESULT:      -7.2      0.000      0.000
REMARK  6 active torsions:
REMARK  status: ('A' for Active; 'I' for Inactive)
REMARK    1  A    between atoms: N_3  and  C_15 
REMARK    2  A    between atoms: N_6  and  C_12 
REMARK    3  A    between atoms: C_12  and  C_13 
REMARK    4  A    between atoms: C_13  and  C_14 
REMARK    5  A    between atoms: C_13  and  O_18 
REMARK    6  A    between atoms: C_14  and  O_17 
ROOT
HETATM    1  C   UNL     1     -41.316 -50.207  12.159  1.00  0.00     0.147 A 
HETATM    2  C   UNL     1     -42.647 -49.901  12.357  1.00  0.00     0.147 A 
HETATM    3  N   UNL     1     -43.153 -50.945  13.127  1.00  0.00    -0.292 N 
HETATM    4  N   UNL     1     -43.278 -48.767  11.959  1.00  0.00    -0.336 N 
ATOM      5  HN  UNL     1     -44.284 -48.628  12.049  1.00  0.00     0.168 HD
HETATM    6  N   UNL     1     -41.106 -48.003  11.304  1.00  0.00    -0.306 N 
HETATM    7  C   UNL     1     -40.437 -49.200  11.592  1.00  0.00     0.279 A 
HETATM    8  N   UNL     1     -40.997 -51.441  12.642  1.00  0.00    -0.344 N 
ATOM      9  HN  UNL     1     -40.098 -51.919  12.600  1.00  0.00     0.167 HD
HETATM   10  C   UNL     1     -42.120 -51.872  13.175  1.00  0.00     0.191 C 
HETATM   11  C   UNL     1     -42.482 -47.874  11.454  1.00  0.00     0.187 A 
HETATM   12  O   UNL     1     -39.219 -49.330  11.478  1.00  0.00    -0.265 OA
ENDROOT
BRANCH   6  13
HETATM   13  C   UNL     1     -40.310 -46.841  10.949  1.00  0.00     0.168 C 
BRANCH  13  14
HETATM   14  C   UNL     1     -41.121 -45.546  10.707  1.00  0.00     0.170 C 
BRANCH  14  15
HETATM   15  C   UNL     1     -40.423 -44.184  10.978  1.00  0.00     0.085 C 
HETATM   16  C   UNL     1     -39.459 -44.132  12.177  1.00  0.00     0.040 C 
HETATM   17  C   UNL     1     -39.704 -42.803  12.900  1.00  0.00     0.003 C 
HETATM   18  C   UNL     1     -40.650 -42.013  12.016  1.00  0.00     0.003 C 
HETATM   19  C   UNL     1     -41.456 -43.088  11.304  1.00  0.00     0.040 C 
BRANCH  15  20
HETATM   20  O   UNL     1     -39.744 -43.783   9.779  1.00  0.00    -0.387 OA
HETATM   21  H   UNL     1     -40.271 -43.081   9.340  1.00  0.00     0.210 HD
ENDBRANCH  15  20
ENDBRANCH  14  15
BRANCH  14  22
HETATM   22  O   UNL     1     -41.494 -45.578   9.313  1.00  0.00    -0.391 OA
HETATM   23  H   UNL     1     -41.159 -44.741   8.927  1.00  0.00     0.210 HD
ENDBRANCH  14  22
ENDBRANCH  13  14
ENDBRANCH   6  13
BRANCH   3  24
HETATM   24  C   UNL     1     -44.407 -51.044  13.813  1.00  0.00     0.042 A 
HETATM   25  C   UNL     1     -44.499 -50.838  15.196  1.00  0.00     0.030 A 
HETATM   26  C   UNL     1     -45.711 -51.023  15.869  1.00  0.00     0.002 A 
HETATM   27  C   UNL     1     -46.850 -51.409  15.171  1.00  0.00     0.000 A 
HETATM   28  C   UNL     1     -46.780 -51.606  13.796  1.00  0.00     0.002 A 
HETATM   29  C   UNL     1     -45.568 -51.424  13.119  1.00  0.00     0.030 A 
ENDBRANCH   3  24
TORSDOF 6
ENDMDL
MODEL 2
REMARK VINA RESULT:      -7.1      3.187      7.618
REMARK  6 active torsions:
REMARK  status: ('A' for Active; 'I' for Inactive)
REMARK    1  A    between atoms: N_3  and  C_15 
REMARK    2  A    between atoms: N_6  and  C_12 
REMARK    3  A    between atoms: C_12  and  C_13 
REMARK    4  A    between atoms: C_13  and  C_14 
REMARK    5  A    between atoms: C_13  and  O_18 
REMARK    6  A    between atoms: C_14  and  O_17 
ROOT
HETATM    1  C   UNL     1     -40.012 -51.103  12.523  1.00  0.00     0.147 A 
HETATM    2  C   UNL     1     -40.771 -49.956  12.639  1.00  0.00     0.147 A 
HETATM    3  N   UNL     1     -40.135 -49.013  11.836  1.00  0.00    -0.292 N 
HETATM    4  N   UNL     1     -41.940 -49.832  13.317  1.00  0.00    -0.336 N 
ATOM      5  HN  UNL     1     -42.416 -48.940  13.448  1.00  0.00     0.168 HD
HETATM    6  N   UNL     1     -41.796 -52.199  13.641  1.00  0.00    -0.306 N 
HETATM    7  C   UNL     1     -40.534 -52.351  13.050  1.00  0.00     0.279 A 
HETATM    8  N   UNL     1     -38.871 -50.892  11.809  1.00  0.00    -0.344 N 
ATOM      9  HN  UNL     1     -38.127 -51.557  11.601  1.00  0.00     0.167 HD
HETATM   10  C   UNL     1     -38.952 -49.629  11.448  1.00  0.00     0.191 C 
HETATM   11  C   UNL     1     -42.397 -50.954  13.784  1.00  0.00     0.187 A 
HETATM   12  O   UNL     1     -39.992 -53.445  12.903  1.00  0.00    -0.265 OA
ENDROOT
BRANCH   6  13
HETATM   13  C   UNL     1     -42.533 -53.398  14.001  1.00  0.00     0.168 C 
BRANCH  13  14
HETATM   14  C   UNL     1     -43.661 -53.789  13.018  1.00  0.00     0.170 C 
BRANCH  14  15
HETATM   15  C   UNL     1     -45.126 -53.452  13.414  1.00  0.00     0.085 C 
HETATM   16  C   UNL     1     -45.799 -52.299  12.647  1.00  0.00     0.040 C 
HETATM   17  C   UNL     1     -46.583 -51.471  13.670  1.00  0.00     0.003 C 
HETATM   18  C   UNL     1     -46.530 -52.249  14.971  1.00  0.00     0.003 C 
HETATM   19  C   UNL     1     -45.210 -52.999  14.885  1.00  0.00     0.040 C 
BRANCH  15  20
HETATM   20  O   UNL     1     -45.908 -54.650  13.295  1.00  0.00    -0.387 OA
HETATM   21  H   UNL     1     -45.302 -55.406  13.139  1.00  0.00     0.210 HD
ENDBRANCH  15  20
ENDBRANCH  14  15
BRANCH  14  22
HETATM   22  O   UNL     1     -43.365 -53.088  11.792  1.00  0.00    -0.391 OA
HETATM   23  H   UNL     1     -43.349 -52.136  12.026  1.00  0.00     0.210 HD
ENDBRANCH  14  22
ENDBRANCH  13  14
ENDBRANCH   6  13
BRANCH   3  24
HETATM   24  C   UNL     1     -40.597 -47.728  11.403  1.00  0.00     0.042 A 
HETATM   25  C   UNL     1     -40.003 -46.545  11.865  1.00  0.00     0.030 A 
HETATM   26  C   UNL     1     -40.518 -45.296  11.503  1.00  0.00     0.002 A 
HETATM   27  C   UNL     1     -41.627 -45.208  10.670  1.00  0.00     0.000 A 
HETATM   28  C   UNL     1     -42.222 -46.371  10.191  1.00  0.00     0.002 A 
HETATM   29  C   UNL     1     -41.711 -47.624  10.553  1.00  0.00     0.030 A 
ENDBRANCH   3  24
TORSDOF 6
ENDMDL
MODEL 3
REMARK VINA RESULT:      -7.0      5.164      7.224
REMARK  6 active torsions:
REMARK  status: ('A' for Active; 'I' for Inactive)
REMARK    1  A    between atoms: N_3  and  C_15 
REMARK    2  A    between atoms: N_6  and  C_12 
REMARK    3  A    between atoms: C_12  and  C_13 
REMARK    4  A    between atoms: C_13  and  C_14 
REMARK    5  A    between atoms: C_13  and  O_18 
REMARK    6  A    between atoms: C_14  and  O_17 
ROOT
HETATM    1  C   UNL     1     -45.455 -52.864  13.705  1.00  0.00     0.147 A 
HETATM    2  C   UNL     1     -45.449 -51.699  14.445  1.00  0.00     0.147 A 
HETATM    3  N   UNL     1     -46.448 -51.864  15.400  1.00  0.00    -0.292 N 
HETATM    4  N   UNL     1     -44.575 -50.669  14.312  1.00  0.00    -0.336 N 
ATOM      5  HN  UNL     1     -44.668 -49.790  14.821  1.00  0.00     0.168 HD
HETATM    6  N   UNL     1     -43.428 -52.078  12.753  1.00  0.00    -0.306 N 
HETATM    7  C   UNL     1     -44.370 -53.116  12.774  1.00  0.00     0.279 A 
HETATM    8  N   UNL     1     -46.485 -53.685  14.054  1.00  0.00    -0.344 N 
ATOM      9  HN  UNL     1     -46.736 -54.587  13.648  1.00  0.00     0.167 HD
HETATM   10  C   UNL     1     -47.082 -53.045  15.037  1.00  0.00     0.191 C 
HETATM   11  C   UNL     1     -43.609 -50.904  13.476  1.00  0.00     0.187 A 
HETATM   12  O   UNL     1     -44.223 -54.166  12.152  1.00  0.00    -0.265 OA
ENDROOT
BRANCH   6  13
HETATM   13  C   UNL     1     -42.181 -52.298  12.042  1.00  0.00     0.168 C 
BRANCH  13  14
HETATM   14  C   UNL     1     -40.931 -52.420  12.945  1.00  0.00     0.170 C 
BRANCH  14  15
HETATM   15  C   UNL     1     -40.571 -53.822  13.510  1.00  0.00     0.085 C 
HETATM   16  C   UNL     1     -41.404 -54.317  14.707  1.00  0.00     0.040 C 
HETATM   17  C   UNL     1     -40.435 -54.979  15.692  1.00  0.00     0.003 C 
HETATM   18  C   UNL     1     -39.096 -55.046  14.984  1.00  0.00     0.003 C 
HETATM   19  C   UNL     1     -39.126 -53.848  14.047  1.00  0.00     0.040 C 
BRANCH  15  20
HETATM   20  O   UNL     1     -40.639 -54.770  12.434  1.00  0.00    -0.387 OA
HETATM   21  H   UNL     1     -41.270 -55.480  12.681  1.00  0.00     0.210 HD
ENDBRANCH  15  20
ENDBRANCH  14  15
BRANCH  14  22
HETATM   22  O   UNL     1     -39.823 -51.976  12.133  1.00  0.00    -0.391 OA
HETATM   23  H   UNL     1     -39.214 -52.742  12.070  1.00  0.00     0.210 HD
ENDBRANCH  14  22
ENDBRANCH  13  14
ENDBRANCH   6  13
BRANCH   3  24
HETATM   24  C   UNL     1     -46.733 -51.078  16.563  1.00  0.00     0.042 A 
HETATM   25  C   UNL     1     -48.042 -50.939  17.046  1.00  0.00     0.030 A 
HETATM   26  C   UNL     1     -48.321 -50.100  18.130  1.00  0.00     0.002 A 
HETATM   27  C   UNL     1     -47.299 -49.393  18.751  1.00  0.00     0.000 A 
HETATM   28  C   UNL     1     -45.991 -49.529  18.294  1.00  0.00     0.002 A 
HETATM   29  C   UNL     1     -45.708 -50.366  17.208  1.00  0.00     0.030 A 
ENDBRANCH   3  24
TORSDOF 6
ENDMDL
MODEL 4
REMARK VINA RESULT:      -6.9      3.114      7.712
REMARK  6 active torsions:
REMARK  status: ('A' for Active; 'I' for Inactive)
REMARK    1  A    between atoms: N_3  and  C_15 
REMARK    2  A    between atoms: N_6  and  C_12 
REMARK    3  A    between atoms: C_12  and  C_13 
REMARK    4  A    between atoms: C_13  and  C_14 
REMARK    5  A    between atoms: C_13  and  O_18 
REMARK    6  A    between atoms: C_14  and  O_17 
ROOT
HETATM    1  C   UNL     1     -39.924 -51.217  12.654  1.00  0.00     0.147 A 
HETATM    2  C   UNL     1     -40.394 -49.987  13.066  1.00  0.00     0.147 A 
HETATM    3  N   UNL     1     -39.653 -49.051  12.351  1.00  0.00    -0.292 N 
HETATM    4  N   UNL     1     -41.431 -49.767  13.915  1.00  0.00    -0.336 N 
ATOM      5  HN  UNL     1     -41.682 -48.840  14.260  1.00  0.00     0.168 HD
HETATM    6  N   UNL     1     -41.781 -52.133  13.814  1.00  0.00    -0.306 N 
HETATM    7  C   UNL     1     -40.651 -52.415  13.034  1.00  0.00     0.279 A 
HETATM    8  N   UNL     1     -38.845 -51.101  11.831  1.00  0.00    -0.344 N 
ATOM      9  HN  UNL     1     -38.291 -51.848  11.411  1.00  0.00     0.167 HD
HETATM   10  C   UNL     1     -38.682 -49.802  11.701  1.00  0.00     0.191 C 
HETATM   11  C   UNL     1     -42.074 -50.845  14.248  1.00  0.00     0.187 A 
HETATM   12  O   UNL     1     -40.382 -53.544  12.630  1.00  0.00    -0.265 OA
ENDROOT
BRANCH   6  13
HETATM   13  C   UNL     1     -42.723 -53.208  14.070  1.00  0.00     0.168 C 
BRANCH  13  14
HETATM   14  C   UNL     1     -43.792 -53.413  12.971  1.00  0.00     0.170 C 
BRANCH  14  15
HETATM   15  C   UNL     1     -45.234 -52.906  13.250  1.00  0.00     0.085 C 
HETATM   16  C   UNL     1     -45.384 -51.415  13.604  1.00  0.00     0.040 C 
HETATM   17  C   UNL     1     -46.400 -51.319  14.747  1.00  0.00     0.003 C 
HETATM   18  C   UNL     1     -46.979 -52.711  14.912  1.00  0.00     0.003 C 
HETATM   19  C   UNL     1     -45.847 -53.624  14.469  1.00  0.00     0.040 C 
BRANCH  15  20
HETATM   20  O   UNL     1     -46.050 -53.230  12.114  1.00  0.00    -0.387 OA
HETATM   21  H   UNL     1     -46.177 -52.417  11.578  1.00  0.00     0.210 HD
ENDBRANCH  15  20
ENDBRANCH  14  15
BRANCH  14  22
HETATM   22  O   UNL     1     -43.295 -52.709  11.813  1.00  0.00    -0.391 OA
HETATM   23  H   UNL     1     -43.201 -51.772  12.090  1.00  0.00     0.210 HD
ENDBRANCH  14  22
ENDBRANCH  13  14
ENDBRANCH   6  13
BRANCH   3  24
HETATM   24  C   UNL     1     -39.862 -47.641  12.208  1.00  0.00     0.042 A 
HETATM   25  C   UNL     1     -40.491 -47.108  11.075  1.00  0.00     0.030 A 
HETATM   26  C   UNL     1     -40.612 -45.725  10.906  1.00  0.00     0.002 A 
HETATM   27  C   UNL     1     -40.113 -44.854  11.867  1.00  0.00     0.000 A 
HETATM   28  C   UNL     1     -39.497 -45.365  13.005  1.00  0.00     0.002 A 
HETATM   29  C   UNL     1     -39.371 -46.749  13.177  1.00  0.00     0.030 A 
ENDBRANCH   3  24
TORSDOF 6
ENDMDL
MODEL 5
REMARK VINA RESULT:      -6.8      3.628      4.822
REMARK  6 active torsions:
REMARK  status: ('A' for Active; 'I' for Inactive)
REMARK    1  A    between atoms: N_3  and  C_15 
REMARK    2  A    between atoms: N_6  and  C_12 
REMARK    3  A    between atoms: C_12  and  C_13 
REMARK    4  A    between atoms: C_13  and  C_14 
REMARK    5  A    between atoms: C_13  and  O_18 
REMARK    6  A    between atoms: C_14  and  O_17 
ROOT
HETATM    1  C   UNL     1     -43.229 -53.575  14.044  1.00  0.00     0.147 A 
HETATM    2  C   UNL     1     -44.023 -52.462  14.229  1.00  0.00     0.147 A 
HETATM    3  N   UNL     1     -44.827 -52.762  15.325  1.00  0.00    -0.292 N 
HETATM    4  N   UNL     1     -43.946 -51.296  13.537  1.00  0.00    -0.336 N 
ATOM      5  HN  UNL     1     -44.616 -50.536  13.650  1.00  0.00     0.168 HD
HETATM    6  N   UNL     1     -41.996 -52.239  12.518  1.00  0.00    -0.306 N 
HETATM    7  C   UNL     1     -42.108 -53.498  13.124  1.00  0.00     0.279 A 
HETATM    8  N   UNL     1     -43.583 -54.599  14.870  1.00  0.00    -0.344 N 
ATOM      9  HN  UNL     1     -43.182 -55.535  14.918  1.00  0.00     0.167 HD
HETATM   10  C   UNL     1     -44.563 -54.099  15.593  1.00  0.00     0.191 C 
HETATM   11  C   UNL     1     -42.941 -51.238  12.717  1.00  0.00     0.187 A 
HETATM   12  O   UNL     1     -41.277 -54.391  12.970  1.00  0.00    -0.265 OA
ENDROOT
BRANCH   6  13
HETATM   13  C   UNL     1     -40.794 -51.950  11.755  1.00  0.00     0.168 C 
BRANCH  13  14
HETATM   14  C   UNL     1     -40.408 -50.453  11.691  1.00  0.00     0.170 C 
BRANCH  14  15
HETATM   15  C   UNL     1     -38.969 -50.050  12.116  1.00  0.00     0.085 C 
HETATM   16  C   UNL     1     -38.252 -50.993  13.101  1.00  0.00     0.040 C 
HETATM   17  C   UNL     1     -37.527 -50.113  14.124  1.00  0.00     0.003 C 
HETATM   18  C   UNL     1     -37.655 -48.689  13.620  1.00  0.00     0.003 C 
HETATM   19  C   UNL     1     -38.968 -48.697  12.854  1.00  0.00     0.040 C 
BRANCH  15  20
HETATM   20  O   UNL     1     -38.181 -49.885  10.927  1.00  0.00    -0.387 OA
HETATM   21  H   UNL     1     -38.016 -48.927  10.792  1.00  0.00     0.210 HD
ENDBRANCH  15  20
ENDBRANCH  14  15
BRANCH  14  22
HETATM   22  O   UNL     1     -40.583 -50.068  10.311  1.00  0.00    -0.391 OA
HETATM   23  H   UNL     1     -39.679 -50.000   9.937  1.00  0.00     0.210 HD
ENDBRANCH  14  22
ENDBRANCH  13  14
ENDBRANCH   6  13
BRANCH   3  24
HETATM   24  C   UNL     1     -45.674 -51.901  16.095  1.00  0.00     0.042 A 
HETATM   25  C   UNL     1     -45.150 -51.061  17.089  1.00  0.00     0.030 A 
HETATM   26  C   UNL     1     -45.995 -50.290  17.893  1.00  0.00     0.002 A 
HETATM   27  C   UNL     1     -47.373 -50.339  17.714  1.00  0.00     0.000 A 
HETATM   28  C   UNL     1     -47.910 -51.156  16.725  1.00  0.00     0.002 A 
HETATM   29  C   UNL     1     -47.067 -51.932  15.919  1.00  0.00     0.030 A 
ENDBRANCH   3  24
TORSDOF 6
ENDMDL
MODEL 6
REMARK VINA RESULT:      -6.5      4.613      6.273
REMARK  6 active torsions:
REMARK  status: ('A' for Active; 'I' for Inactive)
REMARK    1  A    between atoms: N_3  and  C_15 
REMARK    2  A    between atoms: N_6  and  C_12 
REMARK    3  A    between atoms: C_12  and  C_13 
REMARK    4  A    between atoms: C_13  and  C_14 
REMARK    5  A    between atoms: C_13  and  O_18 
REMARK    6  A    between atoms: C_14  and  O_17 
ROOT
HETATM    1  C   UNL     1     -45.406 -53.091  13.983  1.00  0.00     0.147 A 
HETATM    2  C   UNL     1     -45.287 -52.344  15.137  1.00  0.00     0.147 A 
HETATM    3  N   UNL     1     -46.545 -52.386  15.733  1.00  0.00    -0.292 N 
HETATM    4  N   UNL     1     -44.148 -51.781  15.616  1.00  0.00    -0.336 N 
ATOM      5  HN  UNL     1     -44.131 -51.161  16.426  1.00  0.00     0.168 HD
HETATM    6  N   UNL     1     -43.041 -52.943  13.840  1.00  0.00    -0.306 N 
HETATM    7  C   UNL     1     -44.207 -53.447  13.246  1.00  0.00     0.279 A 
HETATM    8  N   UNL     1     -46.691 -53.482  13.757  1.00  0.00    -0.344 N 
ATOM      9  HN  UNL     1     -47.057 -54.014  12.967  1.00  0.00     0.167 HD
HETATM   10  C   UNL     1     -47.353 -53.013  14.793  1.00  0.00     0.191 C 
HETATM   11  C   UNL     1     -43.083 -52.105  14.949  1.00  0.00     0.187 A 
HETATM   12  O   UNL     1     -44.190 -54.198  12.273  1.00  0.00    -0.265 OA
ENDROOT
BRANCH   6  13
HETATM   13  C   UNL     1     -41.760 -53.411  13.341  1.00  0.00     0.168 C 
BRANCH  13  14
HETATM   14  C   UNL     1     -41.056 -52.449  12.354  1.00  0.00     0.170 C 
BRANCH  14  15
HETATM   15  C   UNL     1     -39.854 -51.615  12.878  1.00  0.00     0.085 C 
HETATM   16  C   UNL     1     -39.070 -52.206  14.063  1.00  0.00     0.040 C 
HETATM   17  C   UNL     1     -38.764 -51.053  15.025  1.00  0.00     0.003 C 
HETATM   18  C   UNL     1     -39.187 -49.785  14.310  1.00  0.00     0.003 C 
HETATM   19  C   UNL     1     -40.322 -50.245  13.407  1.00  0.00     0.040 C 
BRANCH  15  20
HETATM   20  O   UNL     1     -38.970 -51.363  11.775  1.00  0.00    -0.387 OA
HETATM   21  H   UNL     1     -39.453 -51.538  10.939  1.00  0.00     0.210 HD
ENDBRANCH  15  20
ENDBRANCH  14  15
BRANCH  14  22
HETATM   22  O   UNL     1     -40.576 -53.283  11.278  1.00  0.00    -0.391 OA
HETATM   23  H   UNL     1     -41.367 -53.741  10.921  1.00  0.00     0.210 HD
ENDBRANCH  14  22
ENDBRANCH  13  14
ENDBRANCH   6  13
BRANCH   3  24
HETATM   24  C   UNL     1     -46.942 -51.979  17.048  1.00  0.00     0.042 A 
HETATM   25  C   UNL     1     -46.580 -52.721  18.181  1.00  0.00     0.030 A 
HETATM   26  C   UNL     1     -47.046 -52.363  19.451  1.00  0.00     0.002 A 
HETATM   27  C   UNL     1     -47.875 -51.258  19.609  1.00  0.00     0.000 A 
HETATM   28  C   UNL     1     -48.234 -50.502  18.497  1.00  0.00     0.002 A 
HETATM   29  C   UNL     1     -47.771 -50.858  17.224  1.00  0.00     0.030 A 
ENDBRANCH   3  24
TORSDOF 6
ENDMDL
MODEL 7
REMARK VINA RESULT:      -6.5      4.243      8.370
REMARK  6 active torsions:
REMARK  status: ('A' for Active; 'I' for Inactive)
REMARK    1  A    between atoms: N_3  and  C_15 
REMARK    2  A    between atoms: N_6  and  C_12 
REMARK    3  A    between atoms: C_12  and  C_13 
REMARK    4  A    between atoms: C_13  and  C_14 
REMARK    5  A    between atoms: C_13  and  O_18 
REMARK    6  A    between atoms: C_14  and  O_17 
ROOT
HETATM    1  C   UNL     1     -40.918 -51.772  12.374  1.00  0.00     0.147 A 
HETATM    2  C   UNL     1     -39.975 -51.595  13.366  1.00  0.00     0.147 A 
HETATM    3  N   UNL     1     -39.290 -50.434  13.019  1.00  0.00    -0.292 N 
HETATM    4  N   UNL     1     -39.834 -52.352  14.484  1.00  0.00    -0.336 N 
ATOM      5  HN  UNL     1     -39.064 -52.236  15.142  1.00  0.00     0.168 HD
HETATM    6  N   UNL     1     -41.844 -53.445  13.780  1.00  0.00    -0.306 N 
HETATM    7  C   UNL     1     -41.960 -52.766  12.559  1.00  0.00     0.279 A 
HETATM    8  N   UNL     1     -40.771 -50.871  11.363  1.00  0.00    -0.344 N 
ATOM      9  HN  UNL     1     -41.312 -50.799  10.501  1.00  0.00     0.167 HD
HETATM   10  C   UNL     1     -39.769 -50.113  11.755  1.00  0.00     0.191 C 
HETATM   11  C   UNL     1     -40.771 -53.237  14.639  1.00  0.00     0.187 A 
HETATM   12  O   UNL     1     -42.907 -52.926  11.792  1.00  0.00    -0.265 OA
ENDROOT
BRANCH   6  13
HETATM   13  C   UNL     1     -42.943 -54.298  14.196  1.00  0.00     0.168 C 
BRANCH  13  14
HETATM   14  C   UNL     1     -43.827 -53.717  15.324  1.00  0.00     0.170 C 
BRANCH  14  15
HETATM   15  C   UNL     1     -45.262 -53.244  14.959  1.00  0.00     0.085 C 
HETATM   16  C   UNL     1     -45.731 -53.517  13.518  1.00  0.00     0.040 C 
HETATM   17  C   UNL     1     -46.474 -52.266  13.038  1.00  0.00     0.003 C 
HETATM   18  C   UNL     1     -46.609 -51.366  14.251  1.00  0.00     0.003 C 
HETATM   19  C   UNL     1     -45.391 -51.714  15.092  1.00  0.00     0.040 C 
BRANCH  15  20
HETATM   20  O   UNL     1     -46.178 -53.830  15.896  1.00  0.00    -0.387 OA
HETATM   21  H   UNL     1     -45.791 -54.667  16.232  1.00  0.00     0.210 HD
ENDBRANCH  15  20
ENDBRANCH  14  15
BRANCH  14  22
HETATM   22  O   UNL     1     -43.948 -54.772  16.303  1.00  0.00    -0.391 OA
HETATM   23  H   UNL     1     -44.347 -54.355  17.096  1.00  0.00     0.210 HD
ENDBRANCH  14  22
ENDBRANCH  13  14
ENDBRANCH   6  13
BRANCH   3  24
HETATM   24  C   UNL     1     -38.366 -49.657  13.791  1.00  0.00     0.042 A 
HETATM   25  C   UNL     1     -37.521 -50.257  14.736  1.00  0.00     0.030 A 
HETATM   26  C   UNL     1     -36.686 -49.479  15.545  1.00  0.00     0.002 A 
HETATM   27  C   UNL     1     -36.677 -48.095  15.420  1.00  0.00     0.000 A 
HETATM   28  C   UNL     1     -37.500 -47.484  14.480  1.00  0.00     0.002 A 
HETATM   29  C   UNL     1     -38.339 -48.258  13.669  1.00  0.00     0.030 A 
ENDBRANCH   3  24
TORSDOF 6
ENDMDL
MODEL 8
REMARK VINA RESULT:      -6.4      4.364      8.252
REMARK  6 active torsions:
REMARK  status: ('A' for Active; 'I' for Inactive)
REMARK    1  A    between atoms: N_3  and  C_15 
REMARK    2  A    between atoms: N_6  and  C_12 
REMARK    3  A    between atoms: C_12  and  C_13 
REMARK    4  A    between atoms: C_13  and  C_14 
REMARK    5  A    between atoms: C_13  and  O_18 
REMARK    6  A    between atoms: C_14  and  O_17 
ROOT
HETATM    1  C   UNL     1     -39.475 -51.073  12.715  1.00  0.00     0.147 A 
HETATM    2  C   UNL     1     -38.769 -51.150  13.897  1.00  0.00     0.147 A 
HETATM    3  N   UNL     1     -38.129 -49.920  14.025  1.00  0.00    -0.292 N 
HETATM    4  N   UNL     1     -38.791 -52.182  14.780  1.00  0.00    -0.336 N 
ATOM      5  HN  UNL     1     -38.181 -52.231  15.596  1.00  0.00     0.168 HD
HETATM    6  N   UNL     1     -40.520 -53.092  13.397  1.00  0.00    -0.306 N 
HETATM    7  C   UNL     1     -40.446 -52.107  12.402  1.00  0.00     0.279 A 
HETATM    8  N   UNL     1     -39.206 -49.924  12.033  1.00  0.00    -0.344 N 
ATOM      9  HN  UNL     1     -39.568 -49.632  11.125  1.00  0.00     0.167 HD
HETATM   10  C   UNL     1     -38.371 -49.277  12.818  1.00  0.00     0.191 C 
HETATM   11  C   UNL     1     -39.662 -53.101  14.491  1.00  0.00     0.187 A 
HETATM   12  O   UNL     1     -41.203 -52.075  11.434  1.00  0.00    -0.265 OA
ENDROOT
BRANCH   6  13
HETATM   13  C   UNL     1     -41.603 -54.057  13.326  1.00  0.00     0.168 C 
BRANCH  13  14
HETATM   14  C   UNL     1     -42.882 -53.657  14.099  1.00  0.00     0.170 C 
BRANCH  14  15
HETATM   15  C   UNL     1     -44.033 -52.978  13.306  1.00  0.00     0.085 C 
HETATM   16  C   UNL     1     -44.306 -51.496  13.622  1.00  0.00     0.040 C 
HETATM   17  C   UNL     1     -45.827 -51.315  13.673  1.00  0.00     0.003 C 
HETATM   18  C   UNL     1     -46.422 -52.625  13.193  1.00  0.00     0.003 C 
HETATM   19  C   UNL     1     -45.385 -53.659  13.600  1.00  0.00     0.040 C 
BRANCH  15  20
HETATM   20  O   UNL     1     -43.771 -53.145  11.905  1.00  0.00    -0.387 OA
HETATM   21  H   UNL     1     -44.609 -53.387  11.456  1.00  0.00     0.210 HD
ENDBRANCH  15  20
ENDBRANCH  14  15
BRANCH  14  22
HETATM   22  O   UNL     1     -43.397 -54.884  14.656  1.00  0.00    -0.391 OA
HETATM   23  H   UNL     1     -44.089 -54.617  15.298  1.00  0.00     0.210 HD
ENDBRANCH  14  22
ENDBRANCH  13  14
ENDBRANCH   6  13
BRANCH   3  24
HETATM   24  C   UNL     1     -37.448 -49.362  15.155  1.00  0.00     0.042 A 
HETATM   25  C   UNL     1     -37.842 -48.136  15.710  1.00  0.00     0.030 A 
HETATM   26  C   UNL     1     -37.117 -47.558  16.757  1.00  0.00     0.002 A 
HETATM   27  C   UNL     1     -35.993 -48.197  17.270  1.00  0.00     0.000 A 
HETATM   28  C   UNL     1     -35.596 -49.421  16.740  1.00  0.00     0.002 A 
HETATM   29  C   UNL     1     -36.318 -50.002  15.690  1.00  0.00     0.030 A 
ENDBRANCH   3  24
TORSDOF 6
ENDMDL
MODEL 9
REMARK VINA RESULT:      -6.3      4.071      8.311
REMARK  6 active torsions:
REMARK  status: ('A' for Active; 'I' for Inactive)
REMARK    1  A    between atoms: N_3  and  C_15 
REMARK    2  A    between atoms: N_6  and  C_12 
REMARK    3  A    between atoms: C_12  and  C_13 
REMARK    4  A    between atoms: C_13  and  C_14 
REMARK    5  A    between atoms: C_13  and  O_18 
REMARK    6  A    between atoms: C_14  and  O_17 
ROOT
HETATM    1  C   UNL     1     -40.616 -50.632  12.081  1.00  0.00     0.147 A 
HETATM    2  C   UNL     1     -40.652 -49.625  13.025  1.00  0.00     0.147 A 
HETATM    3  N   UNL     1     -41.065 -48.489  12.336  1.00  0.00    -0.292 N 
HETATM    4  N   UNL     1     -40.425 -49.765  14.356  1.00  0.00    -0.336 N 
ATOM      5  HN  UNL     1     -40.373 -48.975  14.999  1.00  0.00     0.168 HD
HETATM    6  N   UNL     1     -40.337 -52.116  13.913  1.00  0.00    -0.306 N 
HETATM    7  C   UNL     1     -40.452 -52.006  12.520  1.00  0.00     0.279 A 
HETATM    8  N   UNL     1     -40.850 -50.162  10.824  1.00  0.00    -0.344 N 
ATOM      9  HN  UNL     1     -40.852 -50.684   9.948  1.00  0.00     0.167 HD
HETATM   10  C   UNL     1     -41.073 -48.877  11.002  1.00  0.00     0.191 C 
HETATM   11  C   UNL     1     -40.278 -50.998  14.737  1.00  0.00     0.187 A 
HETATM   12  O   UNL     1     -40.518 -52.982  11.775  1.00  0.00    -0.265 OA
ENDROOT
BRANCH   6  13
HETATM   13  C   UNL     1     -40.397 -53.441  14.503  1.00  0.00     0.168 C 
BRANCH  13  14
HETATM   14  C   UNL     1     -39.031 -54.152  14.649  1.00  0.00     0.170 C 
BRANCH  14  15
HETATM   15  C   UNL     1     -38.829 -55.107  15.858  1.00  0.00     0.085 C 
HETATM   16  C   UNL     1     -40.071 -55.878  16.342  1.00  0.00     0.040 C 
HETATM   17  C   UNL     1     -40.052 -55.854  17.874  1.00  0.00     0.003 C 
HETATM   18  C   UNL     1     -38.716 -55.256  18.268  1.00  0.00     0.003 C 
HETATM   19  C   UNL     1     -38.384 -54.327  17.111  1.00  0.00     0.040 C 
BRANCH  15  20
HETATM   20  O   UNL     1     -37.773 -56.023  15.533  1.00  0.00    -0.387 OA
HETATM   21  H   UNL     1     -37.330 -56.299  16.364  1.00  0.00     0.210 HD
ENDBRANCH  15  20
ENDBRANCH  14  15
BRANCH  14  22
HETATM   22  O   UNL     1     -38.868 -54.928  13.444  1.00  0.00    -0.391 OA
HETATM   23  H   UNL     1     -38.236 -55.643  13.670  1.00  0.00     0.210 HD
ENDBRANCH  14  22
ENDBRANCH  13  14
ENDBRANCH   6  13
BRANCH   3  24
HETATM   24  C   UNL     1     -41.489 -47.219  12.846  1.00  0.00     0.042 A 
HETATM   25  C   UNL     1     -40.593 -46.148  12.972  1.00  0.00     0.030 A 
HETATM   26  C   UNL     1     -40.996 -44.941  13.552  1.00  0.00     0.002 A 
HETATM   27  C   UNL     1     -42.300 -44.782  14.008  1.00  0.00     0.000 A 
HETATM   28  C   UNL     1     -43.207 -45.830  13.879  1.00  0.00     0.002 A 
HETATM   29  C   UNL     1     -42.806 -47.041  13.301  1.00  0.00     0.030 A 
ENDBRANCH   3  24
TORSDOF 6
ENDMDL
