MODEL 1
REMARK VINA RESULT:      -4.2      0.000      0.000
REMARK  1 active torsions:
REMARK  status: ('A' for Active; 'I' for Inactive)
REMARK    1  A    between atoms: C_8  and  N_9 
ROOT
HETATM    1  N   UNL     3     -42.791 -47.743   9.925  1.00  0.00    -0.279 N 
HETATM    2  C   UNL     3     -43.262 -47.827  11.182  1.00  0.00     0.201 A 
HETATM    3  N   UNL     3     -42.433 -48.556  11.951  1.00  0.00    -0.346 N 
ATOM      4  HN  UNL     3     -42.529 -48.788  12.940  1.00  0.00     0.167 HD
HETATM    5  C   UNL     3     -41.445 -48.905  11.103  1.00  0.00     0.198 A 
HETATM    6  N   UNL     3     -41.651 -48.413   9.865  1.00  0.00    -0.293 N 
ATOM      7  HN  UNL     3     -41.051 -48.533   9.049  1.00  0.00     0.188 HD
ENDROOT
BRANCH   1   8
HETATM    8  C   UNL     3     -43.425 -47.030   8.812  1.00  0.00     0.165 C 
HETATM    9  C   UNL     3     -44.940 -47.116   8.879  1.00  0.00     0.298 C 
HETATM   10  N   UNL     3     -44.970 -48.233   7.932  1.00  0.00     0.087 N 
HETATM   11  C   UNL     3     -43.573 -47.930   7.602  1.00  0.00     0.298 C 
HETATM   12  H   UNL     3     -45.592 -48.007   7.121  1.00  0.00     0.316 HD
ENDBRANCH   1   8
TORSDOF 1
ENDMDL
MODEL 2
REMARK VINA RESULT:      -4.1      0.984      3.600
REMARK  1 active torsions:
REMARK  status: ('A' for Active; 'I' for Inactive)
REMARK    1  A    between atoms: C_8  and  N_9 
ROOT
HETATM    1  N   UNL     3     -43.110 -47.722   9.740  1.00  0.00    -0.279 N 
HETATM    2  C   UNL     3     -44.403 -47.378   9.599  1.00  0.00     0.201 A 
HETATM    3  N   UNL     3     -44.778 -47.463   8.309  1.00  0.00    -0.346 N 
ATOM      4  HN  UNL     3     -45.693 -47.266   7.903  1.00  0.00     0.167 HD
HETATM    5  C   UNL     3     -43.657 -47.872   7.683  1.00  0.00     0.198 A 
HETATM    6  N   UNL     3     -42.633 -48.036   8.546  1.00  0.00    -0.293 N 
ATOM      7  HN  UNL     3     -41.685 -48.340   8.323  1.00  0.00     0.188 HD
ENDROOT
BRANCH   1   8
HETATM    8  C   UNL     3     -42.358 -47.749  10.997  1.00  0.00     0.165 C 
HETATM    9  C   UNL     3     -41.254 -48.793  10.970  1.00  0.00     0.298 C 
HETATM   10  N   UNL     3     -42.091 -49.771  11.669  1.00  0.00     0.087 N 
HETATM   11  C   UNL     3     -43.011 -48.678  12.002  1.00  0.00     0.298 C 
HETATM   12  H   UNL     3     -41.608 -50.115  12.531  1.00  0.00     0.316 HD
ENDBRANCH   1   8
TORSDOF 1
ENDMDL
MODEL 3
REMARK VINA RESULT:      -4.1      1.372      3.538
REMARK  1 active torsions:
REMARK  status: ('A' for Active; 'I' for Inactive)
REMARK    1  A    between atoms: C_8  and  N_9 
ROOT
HETATM    1  N   UNL     3     -43.329 -47.486   9.509  1.00  0.00    -0.279 N 
HETATM    2  C   UNL     3     -44.648 -47.372   9.268  1.00  0.00     0.201 A 
HETATM    3  N   UNL     3     -44.940 -47.786   8.021  1.00  0.00    -0.346 N 
ATOM      4  HN  UNL     3     -45.850 -47.815   7.562  1.00  0.00     0.167 HD
HETATM    5  C   UNL     3     -43.741 -48.151   7.524  1.00  0.00     0.198 A 
HETATM    6  N   UNL     3     -42.752 -47.975   8.423  1.00  0.00    -0.293 N 
ATOM      7  HN  UNL     3     -41.760 -48.178   8.293  1.00  0.00     0.188 HD
ENDROOT
BRANCH   1   8
HETATM    8  C   UNL     3     -42.647 -47.134  10.757  1.00  0.00     0.165 C 
HETATM    9  C   UNL     3     -41.880 -45.829  10.631  1.00  0.00     0.298 C 
HETATM   10  N   UNL     3     -40.624 -46.533  10.364  1.00  0.00     0.087 N 
HETATM   11  C   UNL     3     -41.271 -47.767  10.824  1.00  0.00     0.298 C 
HETATM   12  H   UNL     3     -39.887 -46.235  11.045  1.00  0.00     0.316 HD
ENDBRANCH   1   8
TORSDOF 1
ENDMDL
MODEL 4
REMARK VINA RESULT:      -3.9      1.670      3.821
REMARK  1 active torsions:
REMARK  status: ('A' for Active; 'I' for Inactive)
REMARK    1  A    between atoms: C_8  and  N_9 
ROOT
HETATM    1  N   UNL     3     -44.106 -47.290   9.466  1.00  0.00    -0.279 N 
HETATM    2  C   UNL     3     -44.456 -46.111   8.920  1.00  0.00     0.201 A 
HETATM    3  N   UNL     3     -45.788 -46.048   8.740  1.00  0.00    -0.346 N 
ATOM      4  HN  UNL     3     -46.337 -45.283   8.349  1.00  0.00     0.167 HD
HETATM    5  C   UNL     3     -46.223 -47.238   9.200  1.00  0.00     0.198 A 
HETATM    6  N   UNL     3     -45.206 -48.003   9.648  1.00  0.00    -0.293 N 
ATOM      7  HN  UNL     3     -45.272 -48.940  10.046  1.00  0.00     0.188 HD
ENDROOT
BRANCH   1   8
HETATM    8  C   UNL     3     -42.745 -47.713   9.805  1.00  0.00     0.165 C 
HETATM    9  C   UNL     3     -42.654 -48.225  11.232  1.00  0.00     0.298 C 
HETATM   10  N   UNL     3     -42.172 -46.931  11.721  1.00  0.00     0.087 N 
HETATM   11  C   UNL     3     -41.927 -46.547  10.326  1.00  0.00     0.298 C 
HETATM   12  H   UNL     3     -41.264 -47.049  12.229  1.00  0.00     0.316 HD
ENDBRANCH   1   8
TORSDOF 1
ENDMDL
MODEL 5
REMARK VINA RESULT:      -3.7      1.889      4.367
REMARK  1 active torsions:
REMARK  status: ('A' for Active; 'I' for Inactive)
REMARK    1  A    between atoms: C_8  and  N_9 
ROOT
HETATM    1  N   UNL     3     -41.358 -48.073  11.037  1.00  0.00    -0.279 N 
HETATM    2  C   UNL     3     -41.112 -46.797  10.691  1.00  0.00     0.201 A 
HETATM    3  N   UNL     3     -41.998 -46.376   9.770  1.00  0.00    -0.346 N 
ATOM      4  HN  UNL     3     -42.060 -45.460   9.324  1.00  0.00     0.167 HD
HETATM    5  C   UNL     3     -42.785 -47.453   9.578  1.00  0.00     0.198 A 
HETATM    6  N   UNL     3     -42.406 -48.494  10.347  1.00  0.00    -0.293 N 
ATOM      7  HN  UNL     3     -42.838 -49.417  10.388  1.00  0.00     0.188 HD
ENDROOT
BRANCH   1   8
HETATM    8  C   UNL     3     -40.600 -48.863  12.012  1.00  0.00     0.165 C 
HETATM    9  C   UNL     3     -39.101 -48.731  11.800  1.00  0.00     0.298 C 
HETATM   10  N   UNL     3     -39.048 -49.977  11.032  1.00  0.00     0.087 N 
HETATM   11  C   UNL     3     -40.397 -50.283  11.522  1.00  0.00     0.298 C 
HETATM   12  H   UNL     3     -38.351 -50.635  11.453  1.00  0.00     0.316 HD
ENDBRANCH   1   8
TORSDOF 1
ENDMDL
MODEL 6
REMARK VINA RESULT:      -3.7      2.785      3.036
REMARK  1 active torsions:
REMARK  status: ('A' for Active; 'I' for Inactive)
REMARK    1  A    between atoms: C_8  and  N_9 
ROOT
HETATM    1  N   UNL     3     -41.825 -45.744  10.426  1.00  0.00    -0.279 N 
HETATM    2  C   UNL     3     -41.703 -44.525  10.982  1.00  0.00     0.201 A 
HETATM    3  N   UNL     3     -40.408 -44.172  11.072  1.00  0.00    -0.346 N 
ATOM      4  HN  UNL     3     -40.011 -43.310  11.446  1.00  0.00     0.167 HD
HETATM    5  C   UNL     3     -39.758 -45.231  10.548  1.00  0.00     0.198 A 
HETATM    6  N   UNL     3     -40.613 -46.195  10.149  1.00  0.00    -0.293 N 
ATOM      7  HN  UNL     3     -40.373 -47.089   9.720  1.00  0.00     0.188 HD
ENDROOT
BRANCH   1   8
HETATM    8  C   UNL     3     -43.083 -46.452  10.169  1.00  0.00     0.165 C 
HETATM    9  C   UNL     3     -42.865 -47.700   9.331  1.00  0.00     0.298 C 
HETATM   10  N   UNL     3     -43.226 -46.998   8.097  1.00  0.00     0.087 N 
HETATM   11  C   UNL     3     -43.765 -45.914   8.926  1.00  0.00     0.298 C 
HETATM   12  H   UNL     3     -44.002 -47.500   7.606  1.00  0.00     0.316 HD
ENDBRANCH   1   8
TORSDOF 1
ENDMDL
MODEL 7
REMARK VINA RESULT:      -3.6      5.115      6.485
REMARK  1 active torsions:
REMARK  status: ('A' for Active; 'I' for Inactive)
REMARK    1  A    between atoms: C_8  and  N_9 
ROOT
HETATM    1  N   UNL     3     -43.673 -52.790  13.092  1.00  0.00    -0.279 N 
HETATM    2  C   UNL     3     -44.261 -53.945  13.451  1.00  0.00     0.201 A 
HETATM    3  N   UNL     3     -45.577 -53.915  13.171  1.00  0.00    -0.346 N 
ATOM      4  HN  UNL     3     -46.274 -54.642  13.330  1.00  0.00     0.167 HD
HETATM    5  C   UNL     3     -45.754 -52.693  12.630  1.00  0.00     0.198 A 
HETATM    6  N   UNL     3     -44.599 -51.998  12.574  1.00  0.00    -0.293 N 
ATOM      7  HN  UNL     3     -44.467 -51.055  12.208  1.00  0.00     0.188 HD
ENDROOT
BRANCH   1   8
HETATM    8  C   UNL     3     -42.253 -52.462  13.244  1.00  0.00     0.165 C 
HETATM    9  C   UNL     3     -41.782 -51.491  12.174  1.00  0.00     0.298 C 
HETATM   10  N   UNL     3     -41.249 -52.577  11.349  1.00  0.00     0.087 N 
HETATM   11  C   UNL     3     -41.382 -53.463  12.511  1.00  0.00     0.298 C 
HETATM   12  H   UNL     3     -40.239 -52.410  11.134  1.00  0.00     0.316 HD
ENDBRANCH   1   8
TORSDOF 1
ENDMDL
MODEL 8
REMARK VINA RESULT:      -3.4      5.636      6.509
REMARK  1 active torsions:
REMARK  status: ('A' for Active; 'I' for Inactive)
REMARK    1  A    between atoms: C_8  and  N_9 
ROOT
HETATM    1  N   UNL     3     -39.334 -51.394  12.803  1.00  0.00    -0.279 N 
HETATM    2  C   UNL     3     -38.220 -51.447  13.554  1.00  0.00     0.201 A 
HETATM    3  N   UNL     3     -37.210 -50.792  12.952  1.00  0.00    -0.346 N 
ATOM      4  HN  UNL     3     -36.253 -50.665  13.281  1.00  0.00     0.167 HD
HETATM    5  C   UNL     3     -37.765 -50.346  11.807  1.00  0.00     0.198 A 
HETATM    6  N   UNL     3     -39.061 -50.704  11.707  1.00  0.00    -0.293 N 
ATOM      7  HN  UNL     3     -39.701 -50.488  10.942  1.00  0.00     0.188 HD
ENDROOT
BRANCH   1   8
HETATM    8  C   UNL     3     -40.629 -51.992  13.139  1.00  0.00     0.165 C 
HETATM    9  C   UNL     3     -40.512 -53.486  13.386  1.00  0.00     0.298 C 
HETATM   10  N   UNL     3     -40.935 -53.798  12.020  1.00  0.00     0.087 N 
HETATM   11  C   UNL     3     -41.379 -52.406  11.888  1.00  0.00     0.298 C 
HETATM   12  H   UNL     3     -41.761 -54.442  12.032  1.00  0.00     0.316 HD
ENDBRANCH   1   8
TORSDOF 1
ENDMDL
MODEL 9
REMARK VINA RESULT:      -3.4      4.700      6.027
REMARK  1 active torsions:
REMARK  status: ('A' for Active; 'I' for Inactive)
REMARK    1  A    between atoms: C_8  and  N_9 
ROOT
HETATM    1  N   UNL     3     -40.350 -51.857  12.739  1.00  0.00    -0.279 N 
HETATM    2  C   UNL     3     -41.247 -52.500  11.971  1.00  0.00     0.201 A 
HETATM    3  N   UNL     3     -41.316 -53.801  12.308  1.00  0.00    -0.346 N 
ATOM      4  HN  UNL     3     -41.903 -54.529  11.903  1.00  0.00     0.167 HD
HETATM    5  C   UNL     3     -40.421 -53.911  13.310  1.00  0.00     0.198 A 
HETATM    6  N   UNL     3     -39.828 -52.731  13.584  1.00  0.00    -0.293 N 
ATOM      7  HN  UNL     3     -39.121 -52.550  14.297  1.00  0.00     0.188 HD
ENDROOT
BRANCH   1   8
HETATM    8  C   UNL     3     -40.010 -50.433  12.660  1.00  0.00     0.165 C 
HETATM    9  C   UNL     3     -40.297 -49.862  11.282  1.00  0.00     0.298 C 
HETATM   10  N   UNL     3     -38.902 -50.025  10.867  1.00  0.00     0.087 N 
HETATM   11  C   UNL     3     -38.556 -50.241  12.276  1.00  0.00     0.298 C 
HETATM   12  H   UNL     3     -38.512 -49.112  10.534  1.00  0.00     0.316 HD
ENDBRANCH   1   8
TORSDOF 1
ENDMDL
