MODEL 1
REMARK VINA RESULT:      -6.5      0.000      0.000
REMARK  5 active torsions:
REMARK  status: ('A' for Active; 'I' for Inactive)
REMARK    1  A    between atoms: C_1  and  C_12 
REMARK    2  A    between atoms: C_2  and  C_4 
REMARK       I    between atoms: C_4  and  N_11 
REMARK    3  A    between atoms: N_5  and  C_23 
REMARK    4  A    between atoms: C_12  and  O_22 
REMARK    5  A    between atoms: O_22  and  C_25 
ROOT
HETATM    1  C   UNL     1     -40.552 -46.786  12.174  1.00  0.00     0.085 C 
HETATM    2  C   UNL     1     -42.100 -46.983  12.199  1.00  0.00     0.082 C 
HETATM    3  C   UNL     1     -43.800 -50.493  14.110  1.00  0.00     0.273 C 
HETATM    4  C   UNL     1     -41.223 -45.030  11.446  1.00  0.00     0.061 C 
HETATM    5  O   UNL     1     -42.484 -45.741  11.562  1.00  0.00    -0.368 OA
HETATM    6  N   UNL     1     -43.183 -49.408  13.466  1.00  0.00    -0.346 N 
HETATM    7  C   UNL     1     -40.316 -45.332  12.696  1.00  0.00     0.060 C 
HETATM    8  C   UNL     1     -40.246 -46.068  10.759  1.00  0.00     0.060 C 
HETATM    9  C   UNL     1     -42.843 -46.942  13.525  1.00  0.00     0.059 C 
HETATM   10  C   UNL     1     -42.540 -48.185  11.376  1.00  0.00     0.059 C 
HETATM   11  C   UNL     1     -42.490 -49.480  12.181  1.00  0.00     0.129 C 
HETATM   12  C   UNL     1     -42.892 -48.242  14.297  1.00  0.00     0.129 C 
HETATM   13  O   UNL     1     -44.256 -50.367  15.252  1.00  0.00    -0.266 OA
HETATM   14  C   UNL     1     -41.447 -43.560  11.261  1.00  0.00     0.046 C 
ENDROOT
BRANCH   1  15
HETATM   15  C   UNL     1     -39.643 -47.880  12.741  1.00  0.00     0.270 C 
HETATM   16  O   UNL     1     -39.424 -48.043  13.940  1.00  0.00    -0.264 OA
BRANCH  15  17
HETATM   17  O   UNL     1     -39.069 -48.658  11.773  1.00  0.00    -0.321 OA
BRANCH  17  18
HETATM   18  C   UNL     1     -37.969 -49.484  12.204  1.00  0.00     0.174 C 
HETATM   19  C   UNL     1     -37.224 -50.059  11.013  1.00  0.00     0.034 C 
ENDBRANCH  17  18
ENDBRANCH  15  17
ENDBRANCH   1  15
BRANCH   3  20
HETATM   20  C   UNL     1     -43.942 -51.750  13.413  1.00  0.00     0.133 A 
HETATM   21  N   UNL     1     -45.114 -52.200  12.846  1.00  0.00    -0.269 N 
HETATM   22  N   UNL     1     -44.939 -53.371  12.205  1.00  0.00    -0.020 NA
HETATM   23  N   UNL     1     -43.695 -53.765  12.425  1.00  0.00    -0.293 N 
HETATM   24  C   UNL     1     -43.091 -52.815  13.195  1.00  0.00     0.141 A 
ATOM     25  HN  UNL     1     -43.266 -54.623  12.080  1.00  0.00     0.183 HD
BRANCH  21  26
HETATM   26  C   UNL     1     -46.435 -51.609  12.887  1.00  0.00     0.142 C 
HETATM   27  C   UNL     1     -47.116 -51.680  11.531  1.00  0.00     0.028 C 
ENDBRANCH  21  26
ENDBRANCH   3  20
TORSDOF 5
ENDMDL
MODEL 2
REMARK VINA RESULT:      -6.3      2.176      4.050
REMARK  5 active torsions:
REMARK  status: ('A' for Active; 'I' for Inactive)
REMARK    1  A    between atoms: C_1  and  C_12 
REMARK    2  A    between atoms: C_2  and  C_4 
REMARK       I    between atoms: C_4  and  N_11 
REMARK    3  A    between atoms: N_5  and  C_23 
REMARK    4  A    between atoms: C_12  and  O_22 
REMARK    5  A    between atoms: O_22  and  C_25 
ROOT
HETATM    1  C   UNL     1     -41.882 -46.865  11.149  1.00  0.00     0.085 C 
HETATM    2  C   UNL     1     -41.220 -47.730  12.267  1.00  0.00     0.082 C 
HETATM    3  C   UNL     1     -41.668 -52.050  12.205  1.00  0.00     0.273 C 
HETATM    4  C   UNL     1     -40.767 -45.510  12.142  1.00  0.00     0.061 C 
HETATM    5  O   UNL     1     -40.543 -46.671  12.985  1.00  0.00    -0.368 OA
HETATM    6  N   UNL     1     -41.604 -50.647  12.193  1.00  0.00    -0.346 N 
HETATM    7  C   UNL     1     -40.744 -45.932  10.625  1.00  0.00     0.060 C 
HETATM    8  C   UNL     1     -42.330 -45.500  11.889  1.00  0.00     0.060 C 
HETATM    9  C   UNL     1     -40.093 -48.688  11.910  1.00  0.00     0.059 C 
HETATM   10  C   UNL     1     -42.251 -48.422  13.146  1.00  0.00     0.059 C 
HETATM   11  C   UNL     1     -42.703 -49.755  12.558  1.00  0.00     0.129 C 
HETATM   12  C   UNL     1     -40.517 -50.053  11.418  1.00  0.00     0.129 C 
HETATM   13  O   UNL     1     -40.729 -52.723  11.763  1.00  0.00    -0.266 OA
HETATM   14  C   UNL     1     -39.772 -44.429  12.434  1.00  0.00     0.046 C 
ENDROOT
BRANCH   1  15
HETATM   15  C   UNL     1     -42.763 -47.541  10.094  1.00  0.00     0.270 C 
HETATM   16  O   UNL     1     -42.329 -48.208   9.157  1.00  0.00    -0.264 OA
BRANCH  15  17
HETATM   17  O   UNL     1     -44.099 -47.312  10.281  1.00  0.00    -0.321 OA
BRANCH  17  18
HETATM   18  C   UNL     1     -44.844 -46.951   9.101  1.00  0.00     0.174 C 
HETATM   19  C   UNL     1     -46.239 -47.544   9.139  1.00  0.00     0.034 C 
ENDBRANCH  17  18
ENDBRANCH  15  17
ENDBRANCH   1  15
BRANCH   3  20
HETATM   20  C   UNL     1     -42.817 -52.708  12.780  1.00  0.00     0.133 A 
HETATM   21  N   UNL     1     -42.975 -52.973  14.122  1.00  0.00    -0.269 N 
HETATM   22  N   UNL     1     -44.171 -53.534  14.382  1.00  0.00    -0.020 NA
HETATM   23  N   UNL     1     -44.771 -53.748  13.222  1.00  0.00    -0.293 N 
HETATM   24  C   UNL     1     -43.943 -53.295  12.238  1.00  0.00     0.141 A 
ATOM     25  HN  UNL     1     -45.688 -54.175  13.089  1.00  0.00     0.183 HD
BRANCH  21  26
HETATM   26  C   UNL     1     -42.045 -52.758  15.212  1.00  0.00     0.142 C 
HETATM   27  C   UNL     1     -42.337 -51.458  15.941  1.00  0.00     0.028 C 
ENDBRANCH  21  26
ENDBRANCH   3  20
TORSDOF 5
ENDMDL
MODEL 3
REMARK VINA RESULT:      -6.2      2.813      7.020
REMARK  5 active torsions:
REMARK  status: ('A' for Active; 'I' for Inactive)
REMARK    1  A    between atoms: C_1  and  C_12 
REMARK    2  A    between atoms: C_2  and  C_4 
REMARK       I    between atoms: C_4  and  N_11 
REMARK    3  A    between atoms: N_5  and  C_23 
REMARK    4  A    between atoms: C_12  and  O_22 
REMARK    5  A    between atoms: O_22  and  C_25 
ROOT
HETATM    1  C   UNL     1     -41.743 -52.816  13.646  1.00  0.00     0.085 C 
HETATM    2  C   UNL     1     -40.629 -51.772  13.317  1.00  0.00     0.082 C 
HETATM    3  C   UNL     1     -41.641 -47.560  13.017  1.00  0.00     0.273 C 
HETATM    4  C   UNL     1     -40.064 -53.929  13.741  1.00  0.00     0.061 C 
HETATM    5  O   UNL     1     -39.494 -52.670  13.294  1.00  0.00    -0.368 OA
HETATM    6  N   UNL     1     -41.392 -48.940  13.080  1.00  0.00    -0.346 N 
HETATM    7  C   UNL     1     -41.172 -53.665  14.827  1.00  0.00     0.060 C 
HETATM    8  C   UNL     1     -41.330 -54.140  12.815  1.00  0.00     0.060 C 
HETATM    9  C   UNL     1     -40.237 -50.737  14.360  1.00  0.00     0.059 C 
HETATM   10  C   UNL     1     -40.841 -51.114  11.963  1.00  0.00     0.059 C 
HETATM   11  C   UNL     1     -41.769 -49.907  12.050  1.00  0.00     0.129 C 
HETATM   12  C   UNL     1     -41.085 -49.485  14.400  1.00  0.00     0.129 C 
HETATM   13  O   UNL     1     -41.397 -46.835  13.988  1.00  0.00    -0.266 OA
HETATM   14  C   UNL     1     -39.000 -54.856  14.244  1.00  0.00     0.046 C 
ENDROOT
BRANCH   1  15
HETATM   15  C   UNL     1     -43.198 -52.355  13.765  1.00  0.00     0.270 C 
HETATM   16  O   UNL     1     -43.635 -51.686  14.699  1.00  0.00    -0.264 OA
BRANCH  15  17
HETATM   17  O   UNL     1     -43.985 -52.783  12.731  1.00  0.00    -0.321 OA
BRANCH  17  18
HETATM   18  C   UNL     1     -45.267 -53.328  13.103  1.00  0.00     0.174 C 
HETATM   19  C   UNL     1     -45.128 -54.763  13.575  1.00  0.00     0.034 C 
ENDBRANCH  17  18
ENDBRANCH  15  17
ENDBRANCH   1  15
BRANCH   3  20
HETATM   20  C   UNL     1     -42.142 -46.978  11.794  1.00  0.00     0.133 A 
HETATM   21  N   UNL     1     -41.357 -46.367  10.841  1.00  0.00    -0.269 N 
HETATM   22  N   UNL     1     -42.081 -45.977   9.775  1.00  0.00    -0.020 NA
HETATM   23  N   UNL     1     -43.353 -46.221  10.046  1.00  0.00    -0.293 N 
HETATM   24  C   UNL     1     -43.411 -46.786  11.286  1.00  0.00     0.141 A 
ATOM     25  HN  UNL     1     -44.146 -46.022   9.437  1.00  0.00     0.183 HD
BRANCH  21  26
HETATM   26  C   UNL     1     -39.937 -46.086  10.870  1.00  0.00     0.142 C 
HETATM   27  C   UNL     1     -39.607 -44.823  10.092  1.00  0.00     0.028 C 
ENDBRANCH  21  26
ENDBRANCH   3  20
TORSDOF 5
ENDMDL
MODEL 4
REMARK VINA RESULT:      -6.2      2.984      6.777
REMARK  5 active torsions:
REMARK  status: ('A' for Active; 'I' for Inactive)
REMARK    1  A    between atoms: C_1  and  C_12 
REMARK    2  A    between atoms: C_2  and  C_4 
REMARK       I    between atoms: C_4  and  N_11 
REMARK    3  A    between atoms: N_5  and  C_23 
REMARK    4  A    between atoms: C_12  and  O_22 
REMARK    5  A    between atoms: O_22  and  C_25 
ROOT
HETATM    1  C   UNL     1     -41.285 -52.791  13.638  1.00  0.00     0.085 C 
HETATM    2  C   UNL     1     -40.052 -51.834  13.633  1.00  0.00     0.082 C 
HETATM    3  C   UNL     1     -40.646 -47.549  13.247  1.00  0.00     0.273 C 
HETATM    4  C   UNL     1     -39.769 -54.036  14.103  1.00  0.00     0.061 C 
HETATM    5  O   UNL     1     -39.015 -52.819  13.858  1.00  0.00    -0.368 OA
HETATM    6  N   UNL     1     -40.522 -48.946  13.318  1.00  0.00    -0.346 N 
HETATM    7  C   UNL     1     -41.091 -53.703  14.891  1.00  0.00     0.060 C 
HETATM    8  C   UNL     1     -40.777 -54.129  12.887  1.00  0.00     0.060 C 
HETATM    9  C   UNL     1     -39.857 -50.851  14.778  1.00  0.00     0.059 C 
HETATM   10  C   UNL     1     -39.870 -51.137  12.293  1.00  0.00     0.059 C 
HETATM   11  C   UNL     1     -40.701 -49.862  12.193  1.00  0.00     0.129 C 
HETATM   12  C   UNL     1     -40.594 -49.536  14.653  1.00  0.00     0.129 C 
HETATM   13  O   UNL     1     -40.598 -46.863  14.275  1.00  0.00    -0.266 OA
HETATM   14  C   UNL     1     -38.935 -55.054  14.819  1.00  0.00     0.046 C 
ENDROOT
BRANCH   1  15
HETATM   15  C   UNL     1     -42.687 -52.217  13.411  1.00  0.00     0.270 C 
HETATM   16  O   UNL     1     -43.225 -51.397  14.153  1.00  0.00    -0.264 OA
BRANCH  15  17
HETATM   17  O   UNL     1     -43.304 -52.726  12.301  1.00  0.00    -0.321 OA
BRANCH  17  18
HETATM   18  C   UNL     1     -44.659 -53.181  12.491  1.00  0.00     0.174 C 
HETATM   19  C   UNL     1     -44.690 -54.469  13.291  1.00  0.00     0.034 C 
ENDBRANCH  17  18
ENDBRANCH  15  17
ENDBRANCH   1  15
BRANCH   3  20
HETATM   20  C   UNL     1     -40.782 -46.908  11.960  1.00  0.00     0.133 A 
HETATM   21  N   UNL     1     -41.972 -46.761  11.283  1.00  0.00    -0.269 N 
HETATM   22  N   UNL     1     -41.813 -46.066  10.141  1.00  0.00    -0.020 NA
HETATM   23  N   UNL     1     -40.518 -45.839   9.990  1.00  0.00    -0.293 N 
HETATM   24  C   UNL     1     -39.874 -46.384  11.062  1.00  0.00     0.141 A 
ATOM     25  HN  UNL     1     -40.081 -45.346   9.211  1.00  0.00     0.183 HD
BRANCH  21  26
HETATM   26  C   UNL     1     -43.286 -47.265  11.624  1.00  0.00     0.142 C 
HETATM   27  C   UNL     1     -44.101 -47.572  10.379  1.00  0.00     0.028 C 
ENDBRANCH  21  26
ENDBRANCH   3  20
TORSDOF 5
ENDMDL
MODEL 5
REMARK VINA RESULT:      -6.1      2.639      4.628
REMARK  5 active torsions:
REMARK  status: ('A' for Active; 'I' for Inactive)
REMARK    1  A    between atoms: C_1  and  C_12 
REMARK    2  A    between atoms: C_2  and  C_4 
REMARK       I    between atoms: C_4  and  N_11 
REMARK    3  A    between atoms: N_5  and  C_23 
REMARK    4  A    between atoms: C_12  and  O_22 
REMARK    5  A    between atoms: O_22  and  C_25 
ROOT
HETATM    1  C   UNL     1     -40.481 -49.910  12.744  1.00  0.00     0.085 C 
HETATM    2  C   UNL     1     -40.410 -51.460  12.920  1.00  0.00     0.082 C 
HETATM    3  C   UNL     1     -44.029 -53.701  13.780  1.00  0.00     0.273 C 
HETATM    4  C   UNL     1     -38.581 -50.321  12.207  1.00  0.00     0.061 C 
HETATM    5  O   UNL     1     -39.004 -51.645  12.630  1.00  0.00    -0.368 OA
HETATM    6  N   UNL     1     -42.892 -52.911  13.551  1.00  0.00    -0.346 N 
HETATM    7  C   UNL     1     -39.736 -49.616  11.402  1.00  0.00     0.060 C 
HETATM    8  C   UNL     1     -39.090 -49.358  13.355  1.00  0.00     0.060 C 
HETATM    9  C   UNL     1     -41.100 -52.364  11.910  1.00  0.00     0.059 C 
HETATM   10  C   UNL     1     -40.743 -51.892  14.340  1.00  0.00     0.059 C 
HETATM   11  C   UNL     1     -42.244 -52.064  14.551  1.00  0.00     0.129 C 
HETATM   12  C   UNL     1     -42.569 -52.629  12.153  1.00  0.00     0.129 C 
HETATM   13  O   UNL     1     -44.581 -54.290  12.844  1.00  0.00    -0.266 OA
HETATM   14  C   UNL     1     -37.310 -50.387  11.416  1.00  0.00     0.046 C 
ENDROOT
BRANCH   1  15
HETATM   15  C   UNL     1     -41.810 -49.184  12.970  1.00  0.00     0.270 C 
HETATM   16  O   UNL     1     -42.155 -48.695  14.044  1.00  0.00    -0.264 OA
BRANCH  15  17
HETATM   17  O   UNL     1     -42.601 -49.149  11.854  1.00  0.00    -0.321 OA
BRANCH  17  18
HETATM   18  C   UNL     1     -43.216 -47.879  11.562  1.00  0.00     0.174 C 
HETATM   19  C   UNL     1     -43.216 -47.608  10.070  1.00  0.00     0.034 C 
ENDBRANCH  17  18
ENDBRANCH  15  17
ENDBRANCH   1  15
BRANCH   3  20
HETATM   20  C   UNL     1     -44.528 -53.862  15.126  1.00  0.00     0.133 A 
HETATM   21  N   UNL     1     -45.808 -53.549  15.527  1.00  0.00    -0.269 N 
HETATM   22  N   UNL     1     -46.016 -53.864  16.819  1.00  0.00    -0.020 NA
HETATM   23  N   UNL     1     -44.864 -54.284  17.318  1.00  0.00    -0.293 N 
HETATM   24  C   UNL     1     -43.941 -54.245  16.315  1.00  0.00     0.141 A 
ATOM     25  HN  UNL     1     -44.698 -54.583  18.279  1.00  0.00     0.183 HD
BRANCH  21  26
HETATM   26  C   UNL     1     -46.876 -52.927  14.773  1.00  0.00     0.142 C 
HETATM   27  C   UNL     1     -46.855 -51.415  14.925  1.00  0.00     0.028 C 
ENDBRANCH  21  26
ENDBRANCH   3  20
TORSDOF 5
ENDMDL
MODEL 6
REMARK VINA RESULT:      -6.0      1.342      2.115
REMARK  5 active torsions:
REMARK  status: ('A' for Active; 'I' for Inactive)
REMARK    1  A    between atoms: C_1  and  C_12 
REMARK    2  A    between atoms: C_2  and  C_4 
REMARK       I    between atoms: C_4  and  N_11 
REMARK    3  A    between atoms: N_5  and  C_23 
REMARK    4  A    between atoms: C_12  and  O_22 
REMARK    5  A    between atoms: O_22  and  C_25 
ROOT
HETATM    1  C   UNL     1     -40.210 -48.035  13.245  1.00  0.00     0.085 C 
HETATM    2  C   UNL     1     -41.718 -47.672  13.420  1.00  0.00     0.082 C 
HETATM    3  C   UNL     1     -44.547 -50.727  14.652  1.00  0.00     0.273 C 
HETATM    4  C   UNL     1     -40.197 -46.030  13.041  1.00  0.00     0.061 C 
HETATM    5  O   UNL     1     -41.629 -46.252  13.147  1.00  0.00    -0.368 OA
HETATM    6  N   UNL     1     -43.590 -49.801  14.209  1.00  0.00    -0.346 N 
HETATM    7  C   UNL     1     -39.430 -46.954  14.059  1.00  0.00     0.060 C 
HETATM    8  C   UNL     1     -39.702 -47.124  12.010  1.00  0.00     0.060 C 
HETATM    9  C   UNL     1     -42.349 -47.725  14.802  1.00  0.00     0.059 C 
HETATM   10  C   UNL     1     -42.600 -48.376  12.401  1.00  0.00     0.059 C 
HETATM   11  C   UNL     1     -43.014 -49.769  12.865  1.00  0.00     0.129 C 
HETATM   12  C   UNL     1     -42.857 -49.078  15.246  1.00  0.00     0.129 C 
HETATM   13  O   UNL     1     -44.887 -50.756  15.841  1.00  0.00    -0.266 OA
HETATM   14  C   UNL     1     -39.860 -44.583  13.238  1.00  0.00     0.046 C 
ENDROOT
BRANCH   1  15
HETATM   15  C   UNL     1     -39.759 -49.489  13.417  1.00  0.00     0.270 C 
HETATM   16  O   UNL     1     -39.691 -50.066  14.501  1.00  0.00    -0.264 OA
BRANCH  15  17
HETATM   17  O   UNL     1     -39.411 -50.089  12.238  1.00  0.00    -0.321 OA
BRANCH  17  18
HETATM   18  C   UNL     1     -38.069 -50.610  12.172  1.00  0.00     0.174 C 
HETATM   19  C   UNL     1     -37.295 -49.971  11.035  1.00  0.00     0.034 C 
ENDBRANCH  17  18
ENDBRANCH  15  17
ENDBRANCH   1  15
BRANCH   3  20
HETATM   20  C   UNL     1     -45.172 -51.619  13.704  1.00  0.00     0.133 A 
HETATM   21  N   UNL     1     -44.654 -52.835  13.317  1.00  0.00    -0.269 N 
HETATM   22  N   UNL     1     -45.480 -53.483  12.474  1.00  0.00    -0.020 NA
HETATM   23  N   UNL     1     -46.492 -52.673  12.206  1.00  0.00    -0.293 N 
HETATM   24  C   UNL     1     -46.296 -51.520  12.908  1.00  0.00     0.141 A 
ATOM     25  HN  UNL     1     -47.276 -52.875  11.586  1.00  0.00     0.183 HD
BRANCH  21  26
HETATM   26  C   UNL     1     -43.387 -53.443  13.667  1.00  0.00     0.142 C 
HETATM   27  C   UNL     1     -43.583 -54.659  14.556  1.00  0.00     0.028 C 
ENDBRANCH  21  26
ENDBRANCH   3  20
TORSDOF 5
ENDMDL
MODEL 7
REMARK VINA RESULT:      -5.8      3.925      7.681
REMARK  5 active torsions:
REMARK  status: ('A' for Active; 'I' for Inactive)
REMARK    1  A    between atoms: C_1  and  C_12 
REMARK    2  A    between atoms: C_2  and  C_4 
REMARK       I    between atoms: C_4  and  N_11 
REMARK    3  A    between atoms: N_5  and  C_23 
REMARK    4  A    between atoms: C_12  and  O_22 
REMARK    5  A    between atoms: O_22  and  C_25 
ROOT
HETATM    1  C   UNL     1     -45.016 -52.801  14.474  1.00  0.00     0.085 C 
HETATM    2  C   UNL     1     -43.888 -52.131  13.628  1.00  0.00     0.082 C 
HETATM    3  C   UNL     1     -39.733 -53.143  14.384  1.00  0.00     0.273 C 
HETATM    4  C   UNL     1     -46.062 -51.814  13.062  1.00  0.00     0.061 C 
HETATM    5  O   UNL     1     -44.722 -51.365  12.727  1.00  0.00    -0.368 OA
HETATM    6  N   UNL     1     -41.091 -52.825  14.225  1.00  0.00    -0.346 N 
HETATM    7  C   UNL     1     -46.043 -53.344  13.429  1.00  0.00     0.060 C 
HETATM    8  C   UNL     1     -46.150 -51.661  14.635  1.00  0.00     0.060 C 
HETATM    9  C   UNL     1     -43.045 -52.981  12.689  1.00  0.00     0.059 C 
HETATM   10  C   UNL     1     -43.003 -51.223  14.468  1.00  0.00     0.059 C 
HETATM   11  C   UNL     1     -41.868 -51.990  15.140  1.00  0.00     0.129 C 
HETATM   12  C   UNL     1     -41.855 -53.674  13.314  1.00  0.00     0.129 C 
HETATM   13  O   UNL     1     -39.188 -53.956  13.627  1.00  0.00    -0.266 OA
HETATM   14  C   UNL     1     -47.024 -51.520  11.951  1.00  0.00     0.046 C 
ENDROOT
BRANCH   1  15
HETATM   15  C   UNL     1     -44.640 -53.738  15.626  1.00  0.00     0.270 C 
HETATM   16  O   UNL     1     -44.287 -54.906  15.478  1.00  0.00    -0.264 OA
BRANCH  15  17
HETATM   17  O   UNL     1     -44.757 -53.152  16.857  1.00  0.00    -0.321 OA
BRANCH  17  18
HETATM   18  C   UNL     1     -45.754 -53.721  17.729  1.00  0.00     0.174 C 
HETATM   19  C   UNL     1     -46.682 -52.647  18.264  1.00  0.00     0.034 C 
ENDBRANCH  17  18
ENDBRANCH  15  17
ENDBRANCH   1  15
BRANCH   3  20
HETATM   20  C   UNL     1     -38.958 -52.482  15.407  1.00  0.00     0.133 A 
HETATM   21  N   UNL     1     -38.308 -51.280  15.240  1.00  0.00    -0.269 N 
HETATM   22  N   UNL     1     -37.721 -50.868  16.380  1.00  0.00    -0.020 NA
HETATM   23  N   UNL     1     -37.877 -51.827  17.278  1.00  0.00    -0.293 N 
HETATM   24  C   UNL     1     -38.585 -52.833  16.689  1.00  0.00     0.141 A 
ATOM     25  HN  UNL     1     -37.530 -51.816  18.237  1.00  0.00     0.183 HD
BRANCH  21  26
HETATM   26  C   UNL     1     -38.166 -50.475  14.044  1.00  0.00     0.142 C 
HETATM   27  C   UNL     1     -39.256 -49.420  13.954  1.00  0.00     0.028 C 
ENDBRANCH  21  26
ENDBRANCH   3  20
TORSDOF 5
ENDMDL
MODEL 8
REMARK VINA RESULT:      -5.8      2.668      6.744
REMARK  5 active torsions:
REMARK  status: ('A' for Active; 'I' for Inactive)
REMARK    1  A    between atoms: C_1  and  C_12 
REMARK    2  A    between atoms: C_2  and  C_4 
REMARK       I    between atoms: C_4  and  N_11 
REMARK    3  A    between atoms: N_5  and  C_23 
REMARK    4  A    between atoms: C_12  and  O_22 
REMARK    5  A    between atoms: O_22  and  C_25 
ROOT
HETATM    1  C   UNL     1     -43.459 -52.798  14.774  1.00  0.00     0.085 C 
HETATM    2  C   UNL     1     -43.703 -52.341  13.301  1.00  0.00     0.082 C 
HETATM    3  C   UNL     1     -41.114 -49.347  11.515  1.00  0.00     0.273 C 
HETATM    4  C   UNL     1     -44.875 -54.090  14.148  1.00  0.00     0.061 C 
HETATM    5  O   UNL     1     -44.796 -53.234  12.978  1.00  0.00    -0.368 OA
HETATM    6  N   UNL     1     -41.942 -50.273  12.168  1.00  0.00    -0.346 N 
HETATM    7  C   UNL     1     -43.433 -54.360  14.719  1.00  0.00     0.060 C 
HETATM    8  C   UNL     1     -44.934 -53.086  15.370  1.00  0.00     0.060 C 
HETATM    9  C   UNL     1     -42.665 -52.655  12.234  1.00  0.00     0.059 C 
HETATM   10  C   UNL     1     -44.135 -50.885  13.216  1.00  0.00     0.059 C 
HETATM   11  C   UNL     1     -42.942 -49.934  13.180  1.00  0.00     0.129 C 
HETATM   12  C   UNL     1     -41.523 -51.672  12.113  1.00  0.00     0.129 C 
HETATM   13  O   UNL     1     -40.212 -49.736  10.763  1.00  0.00    -0.266 OA
HETATM   14  C   UNL     1     -45.599 -55.365  13.837  1.00  0.00     0.046 C 
ENDROOT
BRANCH   1  15
HETATM   15  C   UNL     1     -42.368 -52.118  15.605  1.00  0.00     0.270 C 
HETATM   16  O   UNL     1     -42.567 -51.167  16.358  1.00  0.00    -0.264 OA
BRANCH  15  17
HETATM   17  O   UNL     1     -41.127 -52.659  15.411  1.00  0.00    -0.321 OA
BRANCH  17  18
HETATM   18  C   UNL     1     -40.018 -51.871  15.888  1.00  0.00     0.174 C 
HETATM   19  C   UNL     1     -38.988 -51.668  14.792  1.00  0.00     0.034 C 
ENDBRANCH  17  18
ENDBRANCH  15  17
ENDBRANCH   1  15
BRANCH   3  20
HETATM   20  C   UNL     1     -41.347 -47.933  11.686  1.00  0.00     0.133 A 
HETATM   21  N   UNL     1     -42.188 -47.179  10.897  1.00  0.00    -0.269 N 
HETATM   22  N   UNL     1     -42.265 -45.905  11.327  1.00  0.00    -0.020 NA
HETATM   23  N   UNL     1     -41.407 -45.768  12.325  1.00  0.00    -0.293 N 
HETATM   24  C   UNL     1     -40.809 -46.978  12.525  1.00  0.00     0.141 A 
ATOM     25  HN  UNL     1     -41.225 -44.913  12.849  1.00  0.00     0.183 HD
BRANCH  21  26
HETATM   26  C   UNL     1     -42.925 -47.569   9.714  1.00  0.00     0.142 C 
HETATM   27  C   UNL     1     -43.401 -46.356   8.933  1.00  0.00     0.028 C 
ENDBRANCH  21  26
ENDBRANCH   3  20
TORSDOF 5
ENDMDL
MODEL 9
REMARK VINA RESULT:      -5.7      3.075      6.500
REMARK  5 active torsions:
REMARK  status: ('A' for Active; 'I' for Inactive)
REMARK    1  A    between atoms: C_1  and  C_12 
REMARK    2  A    between atoms: C_2  and  C_4 
REMARK       I    between atoms: C_4  and  N_11 
REMARK    3  A    between atoms: N_5  and  C_23 
REMARK    4  A    between atoms: C_12  and  O_22 
REMARK    5  A    between atoms: O_22  and  C_25 
ROOT
HETATM    1  C   UNL     1     -40.262 -52.131  14.070  1.00  0.00     0.085 C 
HETATM    2  C   UNL     1     -41.480 -51.216  13.727  1.00  0.00     0.082 C 
HETATM    3  C   UNL     1     -40.810 -47.305  11.962  1.00  0.00     0.273 C 
HETATM    4  C   UNL     1     -41.830 -53.356  14.394  1.00  0.00     0.061 C 
HETATM    5  O   UNL     1     -42.543 -52.127  14.094  1.00  0.00    -0.368 OA
HETATM    6  N   UNL     1     -40.953 -48.558  12.578  1.00  0.00    -0.346 N 
HETATM    7  C   UNL     1     -40.597 -53.516  13.429  1.00  0.00     0.060 C 
HETATM    8  C   UNL     1     -40.699 -52.919  15.412  1.00  0.00     0.060 C 
HETATM    9  C   UNL     1     -41.786 -50.885  12.274  1.00  0.00     0.059 C 
HETATM   10  C   UNL     1     -41.511 -49.957  14.581  1.00  0.00     0.059 C 
HETATM   11  C   UNL     1     -40.664 -48.838  13.984  1.00  0.00     0.129 C 
HETATM   12  C   UNL     1     -41.029 -49.714  11.688  1.00  0.00     0.129 C 
HETATM   13  O   UNL     1     -40.960 -47.188  10.740  1.00  0.00    -0.266 OA
HETATM   14  C   UNL     1     -42.745 -54.541  14.330  1.00  0.00     0.046 C 
ENDROOT
BRANCH   1  15
HETATM   15  C   UNL     1     -38.840 -51.601  13.869  1.00  0.00     0.270 C 
HETATM   16  O   UNL     1     -38.158 -51.098  14.759  1.00  0.00    -0.264 OA
BRANCH  15  17
HETATM   17  O   UNL     1     -38.397 -51.722  12.579  1.00  0.00    -0.321 OA
BRANCH  17  18
HETATM   18  C   UNL     1     -37.185 -51.009  12.264  1.00  0.00     0.174 C 
HETATM   19  C   UNL     1     -37.468 -49.839  11.341  1.00  0.00     0.034 C 
ENDBRANCH  17  18
ENDBRANCH  15  17
ENDBRANCH   1  15
BRANCH   3  20
HETATM   20  C   UNL     1     -40.531 -46.139  12.767  1.00  0.00     0.133 A 
HETATM   21  N   UNL     1     -41.480 -45.432  13.472  1.00  0.00    -0.269 N 
HETATM   22  N   UNL     1     -40.928 -44.434  14.187  1.00  0.00    -0.020 NA
HETATM   23  N   UNL     1     -39.640 -44.394  13.888  1.00  0.00    -0.293 N 
HETATM   24  C   UNL     1     -39.392 -45.393  12.993  1.00  0.00     0.141 A 
ATOM     25  HN  UNL     1     -38.956 -43.735  14.260  1.00  0.00     0.183 HD
BRANCH  21  26
HETATM   26  C   UNL     1     -42.917 -45.610  13.503  1.00  0.00     0.142 C 
HETATM   27  C   UNL     1     -43.431 -45.720  14.928  1.00  0.00     0.028 C 
ENDBRANCH  21  26
ENDBRANCH   3  20
TORSDOF 5
ENDMDL
