MODEL 1
REMARK VINA RESULT:      -7.2      0.000      0.000
REMARK  4 active torsions:
REMARK  status: ('A' for Active; 'I' for Inactive)
REMARK    1  A    between atoms: C_2  and  C_5 
REMARK    2  A    between atoms: N_10  and  C_11 
REMARK    3  A    between atoms: C_11  and  C_12 
REMARK       I    between atoms: C_12  and  N_14 
REMARK    4  A    between atoms: N_14  and  C_15 
ROOT
HETATM    1  C   UNL     1     -42.951 -48.957  12.689  1.00  0.00     0.236 C 
HETATM    2  O   UNL     1     -43.157 -48.323  13.720  1.00  0.00    -0.272 OA
HETATM    3  N   UNL     1     -43.304 -50.282  12.519  1.00  0.00    -0.353 N 
HETATM    4  H   UNL     1     -42.771 -50.797  11.819  1.00  0.00     0.163 HD
ENDROOT
BRANCH   1   5
HETATM    5  C   UNL     1     -42.246 -48.336  11.483  1.00  0.00     0.234 C 
BRANCH   5   6
HETATM    6  N   UNL     1     -43.153 -47.566  10.633  1.00  0.00    -0.315 N 
HETATM    7  C   UNL     1     -42.717 -46.323  10.182  1.00  0.00     0.247 A 
HETATM    8  C   UNL     1     -43.612 -45.639   9.210  1.00  0.00     0.075 A 
HETATM    9  O   UNL     1     -41.667 -45.795  10.536  1.00  0.00    -0.268 OA
HETATM   10  C   UNL     1     -44.773 -46.199   8.847  1.00  0.00     0.023 A 
HETATM   11  C   UNL     1     -45.190 -47.482   9.391  1.00  0.00     0.063 A 
HETATM   12  C   UNL     1     -44.372 -48.110  10.255  1.00  0.00     0.110 A 
BRANCH  11  13
HETATM   13  C   UNL     1     -46.498 -48.084   8.952  1.00  0.00     0.418 C 
HETATM   14  F   UNL     1     -47.533 -47.207   9.009  1.00  0.00    -0.166 F 
HETATM   15  F   UNL     1     -46.844 -49.148   9.719  1.00  0.00    -0.166 F 
HETATM   16  F   UNL     1     -46.436 -48.527   7.670  1.00  0.00    -0.166 F 
ENDBRANCH  11  13
ENDBRANCH   5   6
ENDBRANCH   1   5
BRANCH   3  17
HETATM   17  C   UNL     1     -43.939 -51.053  13.585  1.00  0.00     0.119 C 
HETATM   18  C   UNL     1     -45.454 -51.207  13.357  1.00  0.00     0.057 C 
HETATM   19  C   UNL     1     -45.755 -52.701  13.499  1.00  0.00     0.275 C 
HETATM   20  N   UNL     1     -44.593 -53.224  14.206  1.00  0.00     0.095 N 
HETATM   21  C   UNL     1     -44.406 -54.667  14.097  1.00  0.00     0.273 C 
HETATM   22  C   UNL     1     -43.444 -52.501  13.641  1.00  0.00     0.245 C 
HETATM   23  C   UNL     1     -43.150 -55.087  14.873  1.00  0.00     0.030 C 
HETATM   24  C   UNL     1     -41.916 -54.265  14.483  1.00  0.00     0.004 C 
HETATM   25  C   UNL     1     -42.218 -52.765  14.506  1.00  0.00     0.038 C 
ENDBRANCH   3  17
TORSDOF 4
ENDMDL
MODEL 2
REMARK VINA RESULT:      -7.2      1.175      1.974
REMARK  4 active torsions:
REMARK  status: ('A' for Active; 'I' for Inactive)
REMARK    1  A    between atoms: C_2  and  C_5 
REMARK    2  A    between atoms: N_10  and  C_11 
REMARK    3  A    between atoms: C_11  and  C_12 
REMARK       I    between atoms: C_12  and  N_14 
REMARK    4  A    between atoms: N_14  and  C_15 
ROOT
HETATM    1  C   UNL     1     -42.041 -49.337  11.881  1.00  0.00     0.236 C 
HETATM    2  O   UNL     1     -41.162 -49.606  11.068  1.00  0.00    -0.272 OA
HETATM    3  N   UNL     1     -42.697 -50.284  12.645  1.00  0.00    -0.353 N 
HETATM    4  H   UNL     1     -43.623 -50.022  12.980  1.00  0.00     0.163 HD
ENDROOT
BRANCH   1   5
HETATM    5  C   UNL     1     -42.524 -47.904  12.109  1.00  0.00     0.234 C 
BRANCH   5   6
HETATM    6  N   UNL     1     -43.234 -47.357  10.955  1.00  0.00    -0.315 N 
HETATM    7  C   UNL     1     -42.621 -46.325  10.249  1.00  0.00     0.247 A 
HETATM    8  C   UNL     1     -43.313 -45.895   9.004  1.00  0.00     0.075 A 
HETATM    9  O   UNL     1     -41.575 -45.784  10.595  1.00  0.00    -0.268 OA
HETATM   10  C   UNL     1     -44.470 -46.463   8.641  1.00  0.00     0.023 A 
HETATM   11  C   UNL     1     -45.080 -47.507   9.449  1.00  0.00     0.063 A 
HETATM   12  C   UNL     1     -44.446 -47.910  10.565  1.00  0.00     0.110 A 
BRANCH  11  13
HETATM   13  C   UNL     1     -46.378 -48.127   9.004  1.00  0.00     0.418 C 
HETATM   14  F   UNL     1     -47.425 -47.263   9.051  1.00  0.00    -0.166 F 
HETATM   15  F   UNL     1     -46.715 -49.193   9.771  1.00  0.00    -0.166 F 
HETATM   16  F   UNL     1     -46.302 -48.573   7.723  1.00  0.00    -0.166 F 
ENDBRANCH  11  13
ENDBRANCH   5   6
ENDBRANCH   1   5
BRANCH   3  17
HETATM   17  C   UNL     1     -42.403 -51.710  12.523  1.00  0.00     0.119 C 
HETATM   18  C   UNL     1     -41.050 -52.074  13.158  1.00  0.00     0.057 C 
HETATM   19  C   UNL     1     -41.322 -53.259  14.089  1.00  0.00     0.275 C 
HETATM   20  N   UNL     1     -42.603 -53.776  13.627  1.00  0.00     0.095 N 
HETATM   21  C   UNL     1     -43.308 -54.618  14.588  1.00  0.00     0.273 C 
HETATM   22  C   UNL     1     -43.398 -52.585  13.291  1.00  0.00     0.245 C 
HETATM   23  C   UNL     1     -44.640 -55.088  13.987  1.00  0.00     0.030 C 
HETATM   24  C   UNL     1     -45.479 -53.927  13.440  1.00  0.00     0.004 C 
HETATM   25  C   UNL     1     -44.646 -53.018  12.533  1.00  0.00     0.038 C 
ENDBRANCH   3  17
TORSDOF 4
ENDMDL
MODEL 3
REMARK VINA RESULT:      -7.0      3.155      7.720
REMARK  4 active torsions:
REMARK  status: ('A' for Active; 'I' for Inactive)
REMARK    1  A    between atoms: C_2  and  C_5 
REMARK    2  A    between atoms: N_10  and  C_11 
REMARK    3  A    between atoms: C_11  and  C_12 
REMARK       I    between atoms: C_12  and  N_14 
REMARK    4  A    between atoms: N_14  and  C_15 
ROOT
HETATM    1  C   UNL     1     -41.804 -50.819  12.424  1.00  0.00     0.236 C 
HETATM    2  O   UNL     1     -41.939 -50.506  13.603  1.00  0.00    -0.272 OA
HETATM    3  N   UNL     1     -41.877 -49.920  11.377  1.00  0.00    -0.353 N 
HETATM    4  H   UNL     1     -42.128 -50.313  10.470  1.00  0.00     0.163 HD
ENDROOT
BRANCH   1   5
HETATM    5  C   UNL     1     -41.565 -52.267  11.991  1.00  0.00     0.234 C 
BRANCH   5   6
HETATM    6  N   UNL     1     -42.078 -53.237  12.957  1.00  0.00    -0.315 N 
HETATM    7  C   UNL     1     -41.173 -53.793  13.857  1.00  0.00     0.247 A 
HETATM    8  C   UNL     1     -41.762 -54.666  14.908  1.00  0.00     0.075 A 
HETATM    9  O   UNL     1     -39.962 -53.596  13.823  1.00  0.00    -0.268 OA
HETATM   10  C   UNL     1     -43.079 -54.909  14.928  1.00  0.00     0.023 A 
HETATM   11  C   UNL     1     -43.964 -54.330  13.929  1.00  0.00     0.063 A 
HETATM   12  C   UNL     1     -43.435 -53.525  12.990  1.00  0.00     0.110 A 
BRANCH  11  13
HETATM   13  C   UNL     1     -45.441 -54.619  13.990  1.00  0.00     0.418 C 
HETATM   14  F   UNL     1     -45.755 -55.876  13.582  1.00  0.00    -0.166 F 
HETATM   15  F   UNL     1     -46.153 -53.765  13.214  1.00  0.00    -0.166 F 
HETATM   16  F   UNL     1     -45.920 -54.492  15.255  1.00  0.00    -0.166 F 
ENDBRANCH  11  13
ENDBRANCH   5   6
ENDBRANCH   1   5
BRANCH   3  17
HETATM   17  C   UNL     1     -42.151 -48.502  11.597  1.00  0.00     0.119 C 
HETATM   18  C   UNL     1     -40.856 -47.689  11.774  1.00  0.00     0.057 C 
HETATM   19  C   UNL     1     -40.964 -46.505  10.809  1.00  0.00     0.275 C 
HETATM   20  N   UNL     1     -42.386 -46.437  10.500  1.00  0.00     0.095 N 
HETATM   21  C   UNL     1     -42.715 -45.694   9.288  1.00  0.00     0.273 C 
HETATM   22  C   UNL     1     -42.822 -47.837  10.392  1.00  0.00     0.245 C 
HETATM   23  C   UNL     1     -44.235 -45.705   9.070  1.00  0.00     0.030 C 
HETATM   24  C   UNL     1     -44.825 -47.119   9.116  1.00  0.00     0.004 C 
HETATM   25  C   UNL     1     -44.344 -47.882  10.353  1.00  0.00     0.038 C 
ENDBRANCH   3  17
TORSDOF 4
ENDMDL
MODEL 4
REMARK VINA RESULT:      -6.6      1.365      1.706
REMARK  4 active torsions:
REMARK  status: ('A' for Active; 'I' for Inactive)
REMARK    1  A    between atoms: C_2  and  C_5 
REMARK    2  A    between atoms: N_10  and  C_11 
REMARK    3  A    between atoms: C_11  and  C_12 
REMARK       I    between atoms: C_12  and  N_14 
REMARK    4  A    between atoms: N_14  and  C_15 
ROOT
HETATM    1  C   UNL     1     -41.809 -49.796  12.688  1.00  0.00     0.236 C 
HETATM    2  O   UNL     1     -41.457 -49.441  13.810  1.00  0.00    -0.272 OA
HETATM    3  N   UNL     1     -42.834 -50.692  12.452  1.00  0.00    -0.353 N 
HETATM    4  H   UNL     1     -42.792 -51.192  11.564  1.00  0.00     0.163 HD
ENDROOT
BRANCH   1   5
HETATM    5  C   UNL     1     -41.112 -49.292  11.423  1.00  0.00     0.234 C 
BRANCH   5   6
HETATM    6  N   UNL     1     -41.665 -48.028  10.939  1.00  0.00    -0.315 N 
HETATM    7  C   UNL     1     -40.872 -46.890  11.055  1.00  0.00     0.247 A 
HETATM    8  C   UNL     1     -41.416 -45.657  10.425  1.00  0.00     0.075 A 
HETATM    9  O   UNL     1     -39.785 -46.866  11.626  1.00  0.00    -0.268 OA
HETATM   10  C   UNL     1     -42.616 -45.674   9.829  1.00  0.00     0.023 A 
HETATM   11  C   UNL     1     -43.414 -46.888   9.782  1.00  0.00     0.063 A 
HETATM   12  C   UNL     1     -42.914 -48.008  10.335  1.00  0.00     0.110 A 
BRANCH  11  13
HETATM   13  C   UNL     1     -44.754 -46.869   9.096  1.00  0.00     0.418 C 
HETATM   14  F   UNL     1     -45.772 -47.262   9.905  1.00  0.00    -0.166 F 
HETATM   15  F   UNL     1     -44.776 -47.686   8.013  1.00  0.00    -0.166 F 
HETATM   16  F   UNL     1     -45.069 -45.624   8.655  1.00  0.00    -0.166 F 
ENDBRANCH  11  13
ENDBRANCH   5   6
ENDBRANCH   1   5
BRANCH   3  17
HETATM   17  C   UNL     1     -43.577 -51.317  13.543  1.00  0.00     0.119 C 
HETATM   18  C   UNL     1     -45.092 -51.330  13.271  1.00  0.00     0.057 C 
HETATM   19  C   UNL     1     -45.553 -52.772  13.502  1.00  0.00     0.275 C 
HETATM   20  N   UNL     1     -44.473 -53.360  14.284  1.00  0.00     0.095 N 
HETATM   21  C   UNL     1     -44.435 -54.819  14.277  1.00  0.00     0.273 C 
HETATM   22  C   UNL     1     -43.238 -52.800  13.713  1.00  0.00     0.245 C 
HETATM   23  C   UNL     1     -43.252 -55.311  15.124  1.00  0.00     0.030 C 
HETATM   24  C   UNL     1     -41.929 -54.649  14.725  1.00  0.00     0.004 C 
HETATM   25  C   UNL     1     -42.072 -53.128  14.637  1.00  0.00     0.038 C 
ENDBRANCH   3  17
TORSDOF 4
ENDMDL
MODEL 5
REMARK VINA RESULT:      -6.6      3.574      4.981
REMARK  4 active torsions:
REMARK  status: ('A' for Active; 'I' for Inactive)
REMARK    1  A    between atoms: C_2  and  C_5 
REMARK    2  A    between atoms: N_10  and  C_11 
REMARK    3  A    between atoms: C_11  and  C_12 
REMARK       I    between atoms: C_12  and  N_14 
REMARK    4  A    between atoms: N_14  and  C_15 
ROOT
HETATM    1  C   UNL     1     -41.959 -52.860  13.058  1.00  0.00     0.236 C 
HETATM    2  O   UNL     1     -41.982 -52.303  14.151  1.00  0.00    -0.272 OA
HETATM    3  N   UNL     1     -42.902 -53.785  12.647  1.00  0.00    -0.353 N 
HETATM    4  H   UNL     1     -42.597 -54.441  11.929  1.00  0.00     0.163 HD
ENDROOT
BRANCH   1   5
HETATM    5  C   UNL     1     -40.849 -52.602  12.039  1.00  0.00     0.234 C 
BRANCH   5   6
HETATM    6  N   UNL     1     -40.329 -51.237  12.103  1.00  0.00    -0.315 N 
HETATM    7  C   UNL     1     -39.077 -51.050  12.683  1.00  0.00     0.247 A 
HETATM    8  C   UNL     1     -38.528 -49.669  12.602  1.00  0.00     0.075 A 
HETATM    9  O   UNL     1     -38.433 -51.941  13.229  1.00  0.00    -0.268 OA
HETATM   10  C   UNL     1     -39.243 -48.688  12.035  1.00  0.00     0.023 A 
HETATM   11  C   UNL     1     -40.566 -48.943  11.488  1.00  0.00     0.063 A 
HETATM   12  C   UNL     1     -41.054 -50.196  11.543  1.00  0.00     0.110 A 
BRANCH  11  13
HETATM   13  C   UNL     1     -41.335 -47.816  10.850  1.00  0.00     0.418 C 
HETATM   14  F   UNL     1     -40.555 -46.750  10.537  1.00  0.00    -0.166 F 
HETATM   15  F   UNL     1     -42.320 -47.357  11.663  1.00  0.00    -0.166 F 
HETATM   16  F   UNL     1     -41.931 -48.212   9.696  1.00  0.00    -0.166 F 
ENDBRANCH  11  13
ENDBRANCH   5   6
ENDBRANCH   1   5
BRANCH   3  17
HETATM   17  C   UNL     1     -44.006 -54.195  13.510  1.00  0.00     0.119 C 
HETATM   18  C   UNL     1     -43.507 -54.904  14.782  1.00  0.00     0.057 C 
HETATM   19  C   UNL     1     -44.201 -54.209  15.956  1.00  0.00     0.275 C 
HETATM   20  N   UNL     1     -45.322 -53.515  15.336  1.00  0.00     0.095 N 
HETATM   21  C   UNL     1     -45.893 -52.435  16.134  1.00  0.00     0.273 C 
HETATM   22  C   UNL     1     -44.798 -53.005  14.060  1.00  0.00     0.245 C 
HETATM   23  C   UNL     1     -47.052 -51.782  15.369  1.00  0.00     0.030 C 
HETATM   24  C   UNL     1     -46.658 -51.368  13.946  1.00  0.00     0.004 C 
HETATM   25  C   UNL     1     -45.960 -52.512  13.208  1.00  0.00     0.038 C 
ENDBRANCH   3  17
TORSDOF 4
ENDMDL
MODEL 6
REMARK VINA RESULT:      -6.6      5.504      6.982
REMARK  4 active torsions:
REMARK  status: ('A' for Active; 'I' for Inactive)
REMARK    1  A    between atoms: C_2  and  C_5 
REMARK    2  A    between atoms: N_10  and  C_11 
REMARK    3  A    between atoms: C_11  and  C_12 
REMARK       I    between atoms: C_12  and  N_14 
REMARK    4  A    between atoms: N_14  and  C_15 
ROOT
HETATM    1  C   UNL     1     -43.500 -55.053  14.775  1.00  0.00     0.236 C 
HETATM    2  O   UNL     1     -43.182 -55.776  15.715  1.00  0.00    -0.272 OA
HETATM    3  N   UNL     1     -42.626 -54.192  14.138  1.00  0.00    -0.353 N 
HETATM    4  H   UNL     1     -43.053 -53.399  13.661  1.00  0.00     0.163 HD
ENDROOT
BRANCH   1   5
HETATM    5  C   UNL     1     -44.928 -55.014  14.229  1.00  0.00     0.234 C 
BRANCH   5   6
HETATM    6  N   UNL     1     -45.527 -53.683  14.306  1.00  0.00    -0.315 N 
HETATM    7  C   UNL     1     -45.621 -52.949  13.127  1.00  0.00     0.247 A 
HETATM    8  C   UNL     1     -46.360 -51.661  13.225  1.00  0.00     0.075 A 
HETATM    9  O   UNL     1     -45.145 -53.309  12.054  1.00  0.00    -0.268 OA
HETATM   10  C   UNL     1     -46.853 -51.252  14.402  1.00  0.00     0.023 A 
HETATM   11  C   UNL     1     -46.680 -52.047  15.606  1.00  0.00     0.063 A 
HETATM   12  C   UNL     1     -46.029 -53.221  15.514  1.00  0.00     0.110 A 
BRANCH  11  13
HETATM   13  C   UNL     1     -47.257 -51.558  16.908  1.00  0.00     0.418 C 
HETATM   14  F   UNL     1     -47.174 -52.476  17.906  1.00  0.00    -0.166 F 
HETATM   15  F   UNL     1     -48.567 -51.228  16.786  1.00  0.00    -0.166 F 
HETATM   16  F   UNL     1     -46.612 -50.447  17.350  1.00  0.00    -0.166 F 
ENDBRANCH  11  13
ENDBRANCH   5   6
ENDBRANCH   1   5
BRANCH   3  17
HETATM   17  C   UNL     1     -41.235 -54.057  14.559  1.00  0.00     0.119 C 
HETATM   18  C   UNL     1     -40.303 -53.754  13.372  1.00  0.00     0.057 C 
HETATM   19  C   UNL     1     -39.472 -52.536  13.784  1.00  0.00     0.275 C 
HETATM   20  N   UNL     1     -39.614 -52.493  15.233  1.00  0.00     0.095 N 
HETATM   21  C   UNL     1     -39.294 -51.206  15.843  1.00  0.00     0.273 C 
HETATM   22  C   UNL     1     -41.014 -52.863  15.492  1.00  0.00     0.245 C 
HETATM   23  C   UNL     1     -39.492 -51.290  17.363  1.00  0.00     0.030 C 
HETATM   24  C   UNL     1     -40.872 -51.837  17.746  1.00  0.00     0.004 C 
HETATM   25  C   UNL     1     -41.191 -53.124  16.982  1.00  0.00     0.038 C 
ENDBRANCH   3  17
TORSDOF 4
ENDMDL
MODEL 7
REMARK VINA RESULT:      -6.5      2.930      7.111
REMARK  4 active torsions:
REMARK  status: ('A' for Active; 'I' for Inactive)
REMARK    1  A    between atoms: C_2  and  C_5 
REMARK    2  A    between atoms: N_10  and  C_11 
REMARK    3  A    between atoms: C_11  and  C_12 
REMARK       I    between atoms: C_12  and  N_14 
REMARK    4  A    between atoms: N_14  and  C_15 
ROOT
HETATM    1  C   UNL     1     -41.273 -50.028  12.209  1.00  0.00     0.236 C 
HETATM    2  O   UNL     1     -40.480 -50.426  11.360  1.00  0.00    -0.272 OA
HETATM    3  N   UNL     1     -41.917 -48.807  12.145  1.00  0.00    -0.353 N 
HETATM    4  H   UNL     1     -42.231 -48.423  13.035  1.00  0.00     0.163 HD
ENDROOT
BRANCH   1   5
HETATM    5  C   UNL     1     -41.605 -50.848  13.456  1.00  0.00     0.234 C 
BRANCH   5   6
HETATM    6  N   UNL     1     -42.704 -51.787  13.239  1.00  0.00    -0.315 N 
HETATM    7  C   UNL     1     -42.379 -53.080  12.841  1.00  0.00     0.247 A 
HETATM    8  C   UNL     1     -43.516 -54.037  12.767  1.00  0.00     0.075 A 
HETATM    9  O   UNL     1     -41.241 -53.449  12.566  1.00  0.00    -0.268 OA
HETATM   10  C   UNL     1     -44.763 -53.630  13.035  1.00  0.00     0.023 A 
HETATM   11  C   UNL     1     -45.040 -52.251  13.403  1.00  0.00     0.063 A 
HETATM   12  C   UNL     1     -44.010 -51.389  13.489  1.00  0.00     0.110 A 
BRANCH  11  13
HETATM   13  C   UNL     1     -46.454 -51.833  13.706  1.00  0.00     0.418 C 
HETATM   14  F   UNL     1     -46.534 -50.890  14.681  1.00  0.00    -0.166 F 
HETATM   15  F   UNL     1     -47.213 -52.882  14.113  1.00  0.00    -0.166 F 
HETATM   16  F   UNL     1     -47.064 -51.309  12.611  1.00  0.00    -0.166 F 
ENDBRANCH  11  13
ENDBRANCH   5   6
ENDBRANCH   1   5
BRANCH   3  17
HETATM   17  C   UNL     1     -41.682 -47.868  11.051  1.00  0.00     0.119 C 
HETATM   18  C   UNL     1     -42.947 -47.644  10.204  1.00  0.00     0.057 C 
HETATM   19  C   UNL     1     -43.126 -46.127  10.101  1.00  0.00     0.275 C 
HETATM   20  N   UNL     1     -41.816 -45.598  10.456  1.00  0.00     0.095 N 
HETATM   21  C   UNL     1     -41.809 -44.195  10.859  1.00  0.00     0.273 C 
HETATM   22  C   UNL     1     -41.337 -46.461  11.546  1.00  0.00     0.245 C 
HETATM   23  C   UNL     1     -40.379 -43.765  11.215  1.00  0.00     0.030 C 
HETATM   24  C   UNL     1     -39.715 -44.710  12.223  1.00  0.00     0.004 C 
HETATM   25  C   UNL     1     -39.862 -46.172  11.796  1.00  0.00     0.038 C 
ENDBRANCH   3  17
TORSDOF 4
ENDMDL
MODEL 8
REMARK VINA RESULT:      -6.4      1.795      2.927
REMARK  4 active torsions:
REMARK  status: ('A' for Active; 'I' for Inactive)
REMARK    1  A    between atoms: C_2  and  C_5 
REMARK    2  A    between atoms: N_10  and  C_11 
REMARK    3  A    between atoms: C_11  and  C_12 
REMARK       I    between atoms: C_12  and  N_14 
REMARK    4  A    between atoms: N_14  and  C_15 
ROOT
HETATM    1  C   UNL     1     -41.503 -50.266  12.264  1.00  0.00     0.236 C 
HETATM    2  O   UNL     1     -41.531 -49.817  13.406  1.00  0.00    -0.272 OA
HETATM    3  N   UNL     1     -42.059 -51.478  11.901  1.00  0.00    -0.353 N 
HETATM    4  H   UNL     1     -41.665 -51.917  11.069  1.00  0.00     0.163 HD
ENDROOT
BRANCH   1   5
HETATM    5  C   UNL     1     -40.812 -49.525  11.118  1.00  0.00     0.234 C 
BRANCH   5   6
HETATM    6  N   UNL     1     -41.417 -48.224  10.840  1.00  0.00    -0.315 N 
HETATM    7  C   UNL     1     -40.682 -47.087  11.162  1.00  0.00     0.247 A 
HETATM    8  C   UNL     1     -41.275 -45.792  10.735  1.00  0.00     0.075 A 
HETATM    9  O   UNL     1     -39.606 -47.110  11.754  1.00  0.00    -0.268 OA
HETATM   10  C   UNL     1     -42.464 -45.762  10.118  1.00  0.00     0.023 A 
HETATM   11  C   UNL     1     -43.202 -46.986   9.850  1.00  0.00     0.063 A 
HETATM   12  C   UNL     1     -42.656 -48.159  10.219  1.00  0.00     0.110 A 
BRANCH  11  13
HETATM   13  C   UNL     1     -44.531 -46.912   9.146  1.00  0.00     0.418 C 
HETATM   14  F   UNL     1     -44.590 -47.695   8.038  1.00  0.00    -0.166 F 
HETATM   15  F   UNL     1     -44.820 -45.647   8.749  1.00  0.00    -0.166 F 
HETATM   16  F   UNL     1     -45.545 -47.310   9.956  1.00  0.00    -0.166 F 
ENDBRANCH  11  13
ENDBRANCH   5   6
ENDBRANCH   1   5
BRANCH   3  17
HETATM   17  C   UNL     1     -42.715 -52.347  12.875  1.00  0.00     0.119 C 
HETATM   18  C   UNL     1     -41.844 -52.567  14.125  1.00  0.00     0.057 C 
HETATM   19  C   UNL     1     -42.743 -52.263  15.327  1.00  0.00     0.275 C 
HETATM   20  N   UNL     1     -44.091 -52.339  14.780  1.00  0.00     0.095 N 
HETATM   21  C   UNL     1     -45.116 -51.677  15.581  1.00  0.00     0.273 C 
HETATM   22  C   UNL     1     -43.997 -51.734  13.443  1.00  0.00     0.245 C 
HETATM   23  C   UNL     1     -46.482 -51.820  14.895  1.00  0.00     0.030 C 
HETATM   24  C   UNL     1     -46.452 -51.377  13.428  1.00  0.00     0.004 C 
HETATM   25  C   UNL     1     -45.283 -52.019  12.678  1.00  0.00     0.038 C 
ENDBRANCH   3  17
TORSDOF 4
ENDMDL
MODEL 9
REMARK VINA RESULT:      -6.3      2.535      3.380
REMARK  4 active torsions:
REMARK  status: ('A' for Active; 'I' for Inactive)
REMARK    1  A    between atoms: C_2  and  C_5 
REMARK    2  A    between atoms: N_10  and  C_11 
REMARK    3  A    between atoms: C_11  and  C_12 
REMARK       I    between atoms: C_12  and  N_14 
REMARK    4  A    between atoms: N_14  and  C_15 
ROOT
HETATM    1  C   UNL     1     -41.018 -51.228  13.397  1.00  0.00     0.236 C 
HETATM    2  O   UNL     1     -40.368 -51.410  14.422  1.00  0.00    -0.272 OA
HETATM    3  N   UNL     1     -42.391 -51.370  13.322  1.00  0.00    -0.353 N 
HETATM    4  H   UNL     1     -42.768 -51.570  12.396  1.00  0.00     0.163 HD
ENDROOT
BRANCH   1   5
HETATM    5  C   UNL     1     -40.355 -50.848  12.072  1.00  0.00     0.234 C 
BRANCH   5   6
HETATM    6  N   UNL     1     -40.534 -49.438  11.735  1.00  0.00    -0.315 N 
HETATM    7  C   UNL     1     -39.562 -48.541  12.169  1.00  0.00     0.247 A 
HETATM    8  C   UNL     1     -39.711 -47.142  11.686  1.00  0.00     0.075 A 
HETATM    9  O   UNL     1     -38.623 -48.847  12.899  1.00  0.00    -0.268 OA
HETATM   10  C   UNL     1     -40.752 -46.799  10.915  1.00  0.00     0.023 A 
HETATM   11  C   UNL     1     -41.758 -47.777  10.534  1.00  0.00     0.063 A 
HETATM   12  C   UNL     1     -41.613 -49.047  10.954  1.00  0.00     0.110 A 
BRANCH  11  13
HETATM   13  C   UNL     1     -42.909 -47.355   9.659  1.00  0.00     0.418 C 
HETATM   14  F   UNL     1     -42.884 -46.034   9.347  1.00  0.00    -0.166 F 
HETATM   15  F   UNL     1     -44.106 -47.595  10.252  1.00  0.00    -0.166 F 
HETATM   16  F   UNL     1     -42.913 -48.032   8.482  1.00  0.00    -0.166 F 
ENDBRANCH  11  13
ENDBRANCH   5   6
ENDBRANCH   1   5
BRANCH   3  17
HETATM   17  C   UNL     1     -43.187 -51.780  14.477  1.00  0.00     0.119 C 
HETATM   18  C   UNL     1     -43.934 -50.592  15.109  1.00  0.00     0.057 C 
HETATM   19  C   UNL     1     -45.395 -51.031  15.242  1.00  0.00     0.275 C 
HETATM   20  N   UNL     1     -45.332 -52.483  15.132  1.00  0.00     0.095 N 
HETATM   21  C   UNL     1     -46.596 -53.128  14.792  1.00  0.00     0.273 C 
HETATM   22  C   UNL     1     -44.315 -52.746  14.103  1.00  0.00     0.245 C 
HETATM   23  C   UNL     1     -46.394 -54.647  14.697  1.00  0.00     0.030 C 
HETATM   24  C   UNL     1     -45.229 -55.028  13.776  1.00  0.00     0.004 C 
HETATM   25  C   UNL     1     -43.969 -54.229  14.114  1.00  0.00     0.038 C 
ENDBRANCH   3  17
TORSDOF 4
ENDMDL
