MODEL 1
REMARK VINA RESULT:      -7.2      0.000      0.000
REMARK  5 active torsions:
REMARK  status: ('A' for Active; 'I' for Inactive)
REMARK    1  A    between atoms: C_2  and  C_5 
REMARK    2  A    between atoms: C_10  and  N_11 
REMARK       I    between atoms: N_11  and  C_12 
REMARK       I    between atoms: C_12  and  N_14 
REMARK    3  A    between atoms: N_14  and  C_15 
REMARK    4  A    between atoms: C_15  and  C_16 
REMARK    5  A    between atoms: C_16  and  C_17 
ROOT
HETATM    1  N   UNL     1     -40.810 -49.300  10.745  1.00  0.00    -0.304 N 
HETATM    2  C   UNL     1     -40.915 -50.087  11.861  1.00  0.00     0.320 C 
HETATM    3  O   UNL     1     -41.620 -49.838  12.835  1.00  0.00    -0.247 OA
HETATM    4  N   UNL     1     -40.145 -51.231  11.822  1.00  0.00    -0.343 N 
HETATM    5  H   UNL     1     -40.105 -49.527  10.054  1.00  0.00     0.171 HD
HETATM    6  H   UNL     1     -40.008 -51.639  10.907  1.00  0.00     0.164 HD
ENDROOT
BRANCH   1   7
HETATM    7  C   UNL     1     -41.517 -48.130  10.510  1.00  0.00     0.105 A 
HETATM    8  C   UNL     1     -40.832 -46.829  10.849  1.00  0.00     0.272 A 
HETATM    9  N   UNL     1     -41.561 -45.680  10.627  1.00  0.00    -0.331 N 
HETATM   10  O   UNL     1     -39.689 -46.810  11.298  1.00  0.00    -0.266 OA
HETATM   11  C   UNL     1     -42.823 -45.659  10.081  1.00  0.00     0.107 A 
HETATM   12  H   UNL     1     -41.099 -44.810  10.865  1.00  0.00     0.168 HD
HETATM   13  C   UNL     1     -43.443 -46.802   9.743  1.00  0.00     0.065 A 
HETATM   14  C   UNL     1     -42.759 -48.056  10.001  1.00  0.00     0.052 A 
BRANCH  13  15
HETATM   15  C   UNL     1     -44.797 -46.846   9.087  1.00  0.00     0.418 C 
HETATM   16  F   UNL     1     -45.780 -47.306   9.903  1.00  0.00    -0.166 F 
HETATM   17  F   UNL     1     -44.790 -47.657   7.997  1.00  0.00    -0.166 F 
HETATM   18  F   UNL     1     -45.187 -45.618   8.659  1.00  0.00    -0.166 F 
ENDBRANCH  13  15
ENDBRANCH   1   7
BRANCH   4  19
HETATM   19  C   UNL     1     -40.352 -52.136  12.945  1.00  0.00     0.128 C 
BRANCH  19  20
HETATM   20  C   UNL     1     -40.849 -53.533  12.586  1.00  0.00     0.053 C 
BRANCH  20  21
HETATM   21  C   UNL     1     -42.293 -53.739  13.023  1.00  0.00    -0.082 A 
HETATM   22  C   UNL     1     -43.308 -53.185  12.345  1.00  0.00    -0.024 A 
HETATM   23  C   UNL     1     -44.751 -53.314  12.700  1.00  0.00     0.027 A 
HETATM   24  C   UNL     1     -45.101 -54.202  13.888  1.00  0.00     0.004 A 
HETATM   25  C   UNL     1     -43.966 -54.843  14.680  1.00  0.00     0.005 A 
HETATM   26  C   UNL     1     -42.523 -54.581  14.248  1.00  0.00     0.034 A 
ENDBRANCH  20  21
ENDBRANCH  19  20
ENDBRANCH   4  19
TORSDOF 5
ENDMDL
MODEL 2
REMARK VINA RESULT:      -6.9      2.616      3.310
REMARK  5 active torsions:
REMARK  status: ('A' for Active; 'I' for Inactive)
REMARK    1  A    between atoms: C_2  and  C_5 
REMARK    2  A    between atoms: C_10  and  N_11 
REMARK       I    between atoms: N_11  and  C_12 
REMARK       I    between atoms: C_12  and  N_14 
REMARK    3  A    between atoms: N_14  and  C_15 
REMARK    4  A    between atoms: C_15  and  C_16 
REMARK    5  A    between atoms: C_16  and  C_17 
ROOT
HETATM    1  N   UNL     1     -41.314 -49.017  10.660  1.00  0.00    -0.304 N 
HETATM    2  C   UNL     1     -41.005 -49.803  11.738  1.00  0.00     0.320 C 
HETATM    3  O   UNL     1     -40.888 -49.401  12.892  1.00  0.00    -0.247 OA
HETATM    4  N   UNL     1     -40.826 -51.136  11.433  1.00  0.00    -0.343 N 
HETATM    5  H   UNL     1     -41.261 -49.419   9.732  1.00  0.00     0.171 HD
HETATM    6  H   UNL     1     -41.386 -51.493  10.671  1.00  0.00     0.164 HD
ENDROOT
BRANCH   1   7
HETATM    7  C   UNL     1     -41.596 -47.659  10.703  1.00  0.00     0.105 A 
HETATM    8  C   UNL     1     -43.044 -47.258  10.853  1.00  0.00     0.272 A 
HETATM    9  N   UNL     1     -43.302 -45.904  10.872  1.00  0.00    -0.331 N 
HETATM   10  O   UNL     1     -43.930 -48.102  10.951  1.00  0.00    -0.266 OA
HETATM   11  C   UNL     1     -42.332 -44.931  10.813  1.00  0.00     0.107 A 
HETATM   12  H   UNL     1     -44.277 -45.642  10.964  1.00  0.00     0.168 HD
HETATM   13  C   UNL     1     -41.035 -45.262  10.709  1.00  0.00     0.065 A 
HETATM   14  C   UNL     1     -40.690 -46.670  10.627  1.00  0.00     0.052 A 
BRANCH  13  15
HETATM   15  C   UNL     1     -39.921 -44.250  10.702  1.00  0.00     0.418 C 
HETATM   16  F   UNL     1     -39.160 -44.289   9.578  1.00  0.00    -0.166 F 
HETATM   17  F   UNL     1     -39.074 -44.441  11.747  1.00  0.00    -0.166 F 
HETATM   18  F   UNL     1     -40.394 -42.982  10.808  1.00  0.00    -0.166 F 
ENDBRANCH  13  15
ENDBRANCH   1   7
BRANCH   4  19
HETATM   19  C   UNL     1     -40.628 -51.997  12.592  1.00  0.00     0.128 C 
BRANCH  19  20
HETATM   20  C   UNL     1     -40.951 -53.473  12.381  1.00  0.00     0.053 C 
BRANCH  20  21
HETATM   21  C   UNL     1     -42.238 -53.869  13.094  1.00  0.00    -0.082 A 
HETATM   22  C   UNL     1     -42.209 -54.522  14.264  1.00  0.00    -0.024 A 
HETATM   23  C   UNL     1     -43.409 -54.965  15.030  1.00  0.00     0.027 A 
HETATM   24  C   UNL     1     -44.775 -54.584  14.470  1.00  0.00     0.004 A 
HETATM   25  C   UNL     1     -44.838 -53.843  13.139  1.00  0.00     0.005 A 
HETATM   26  C   UNL     1     -43.532 -53.500  12.421  1.00  0.00     0.034 A 
ENDBRANCH  20  21
ENDBRANCH  19  20
ENDBRANCH   4  19
TORSDOF 5
ENDMDL
MODEL 3
REMARK VINA RESULT:      -6.8      1.948      2.621
REMARK  5 active torsions:
REMARK  status: ('A' for Active; 'I' for Inactive)
REMARK    1  A    between atoms: C_2  and  C_5 
REMARK    2  A    between atoms: C_10  and  N_11 
REMARK       I    between atoms: N_11  and  C_12 
REMARK       I    between atoms: C_12  and  N_14 
REMARK    3  A    between atoms: N_14  and  C_15 
REMARK    4  A    between atoms: C_15  and  C_16 
REMARK    5  A    between atoms: C_16  and  C_17 
ROOT
HETATM    1  N   UNL     1     -41.042 -51.017  11.306  1.00  0.00    -0.304 N 
HETATM    2  C   UNL     1     -41.571 -51.709  12.362  1.00  0.00     0.320 C 
HETATM    3  O   UNL     1     -41.928 -51.208  13.425  1.00  0.00    -0.247 OA
HETATM    4  N   UNL     1     -41.684 -53.067  12.149  1.00  0.00    -0.343 N 
HETATM    5  H   UNL     1     -40.660 -51.537  10.525  1.00  0.00     0.171 HD
HETATM    6  H   UNL     1     -41.867 -53.350  11.196  1.00  0.00     0.164 HD
ENDROOT
BRANCH   1   7
HETATM    7  C   UNL     1     -40.874 -49.641  11.242  1.00  0.00     0.105 A 
HETATM    8  C   UNL     1     -39.502 -49.097  11.556  1.00  0.00     0.272 A 
HETATM    9  N   UNL     1     -39.363 -47.726  11.506  1.00  0.00    -0.331 N 
HETATM   10  O   UNL     1     -38.570 -49.846  11.839  1.00  0.00    -0.266 OA
HETATM   11  C   UNL     1     -40.369 -46.861  11.147  1.00  0.00     0.107 A 
HETATM   12  H   UNL     1     -38.442 -47.367  11.727  1.00  0.00     0.168 HD
HETATM   13  C   UNL     1     -41.592 -47.321  10.835  1.00  0.00     0.065 A 
HETATM   14  C   UNL     1     -41.828 -48.751  10.919  1.00  0.00     0.052 A 
BRANCH  13  15
HETATM   15  C   UNL     1     -42.717 -46.434  10.376  1.00  0.00     0.418 C 
HETATM   16  F   UNL     1     -43.949 -46.949  10.626  1.00  0.00    -0.166 F 
HETATM   17  F   UNL     1     -42.657 -46.214   9.036  1.00  0.00    -0.166 F 
HETATM   18  F   UNL     1     -42.674 -45.217  10.974  1.00  0.00    -0.166 F 
ENDBRANCH  13  15
ENDBRANCH   1   7
BRANCH   4  19
HETATM   19  C   UNL     1     -42.366 -53.790  13.215  1.00  0.00     0.128 C 
BRANCH  19  20
HETATM   20  C   UNL     1     -43.794 -54.230  12.907  1.00  0.00     0.053 C 
BRANCH  20  21
HETATM   21  C   UNL     1     -44.813 -53.258  13.488  1.00  0.00    -0.082 A 
HETATM   22  C   UNL     1     -45.593 -52.514  12.691  1.00  0.00    -0.024 A 
HETATM   23  C   UNL     1     -46.607 -51.526  13.161  1.00  0.00     0.027 A 
HETATM   24  C   UNL     1     -46.819 -51.404  14.665  1.00  0.00     0.004 A 
HETATM   25  C   UNL     1     -45.944 -52.238  15.596  1.00  0.00     0.005 A 
HETATM   26  C   UNL     1     -44.896 -53.170  14.988  1.00  0.00     0.034 A 
ENDBRANCH  20  21
ENDBRANCH  19  20
ENDBRANCH   4  19
TORSDOF 5
ENDMDL
MODEL 4
REMARK VINA RESULT:      -6.7      1.588      2.001
REMARK  5 active torsions:
REMARK  status: ('A' for Active; 'I' for Inactive)
REMARK    1  A    between atoms: C_2  and  C_5 
REMARK    2  A    between atoms: C_10  and  N_11 
REMARK       I    between atoms: N_11  and  C_12 
REMARK       I    between atoms: C_12  and  N_14 
REMARK    3  A    between atoms: N_14  and  C_15 
REMARK    4  A    between atoms: C_15  and  C_16 
REMARK    5  A    between atoms: C_16  and  C_17 
ROOT
HETATM    1  N   UNL     1     -41.903 -48.112  10.507  1.00  0.00    -0.304 N 
HETATM    2  C   UNL     1     -41.887 -49.028  11.525  1.00  0.00     0.320 C 
HETATM    3  O   UNL     1     -42.868 -49.374  12.176  1.00  0.00    -0.247 OA
HETATM    4  N   UNL     1     -40.642 -49.563  11.785  1.00  0.00    -0.343 N 
HETATM    5  H   UNL     1     -41.021 -47.799  10.119  1.00  0.00     0.171 HD
HETATM    6  H   UNL     1     -40.028 -49.658  10.987  1.00  0.00     0.164 HD
ENDROOT
BRANCH   1   7
HETATM    7  C   UNL     1     -43.030 -47.470  10.013  1.00  0.00     0.105 A 
HETATM    8  C   UNL     1     -42.918 -45.989   9.741  1.00  0.00     0.272 A 
HETATM    9  N   UNL     1     -44.056 -45.369   9.271  1.00  0.00    -0.331 N 
HETATM   10  O   UNL     1     -41.867 -45.385   9.934  1.00  0.00    -0.266 OA
HETATM   11  C   UNL     1     -45.235 -46.022   8.997  1.00  0.00     0.107 A 
HETATM   12  H   UNL     1     -43.978 -44.373   9.099  1.00  0.00     0.168 HD
HETATM   13  C   UNL     1     -45.351 -47.344   9.203  1.00  0.00     0.065 A 
HETATM   14  C   UNL     1     -44.211 -48.056   9.751  1.00  0.00     0.052 A 
BRANCH  13  15
HETATM   15  C   UNL     1     -46.591 -48.127   8.868  1.00  0.00     0.418 C 
HETATM   16  F   UNL     1     -46.793 -49.197   9.680  1.00  0.00    -0.166 F 
HETATM   17  F   UNL     1     -46.541 -48.612   7.599  1.00  0.00    -0.166 F 
HETATM   18  F   UNL     1     -47.708 -47.360   8.949  1.00  0.00    -0.166 F 
ENDBRANCH  13  15
ENDBRANCH   1   7
BRANCH   4  19
HETATM   19  C   UNL     1     -40.641 -50.632  12.775  1.00  0.00     0.128 C 
BRANCH  19  20
HETATM   20  C   UNL     1     -40.664 -52.051  12.215  1.00  0.00     0.053 C 
BRANCH  20  21
HETATM   21  C   UNL     1     -41.594 -52.951  13.019  1.00  0.00    -0.082 A 
HETATM   22  C   UNL     1     -42.865 -53.146  12.642  1.00  0.00    -0.024 A 
HETATM   23  C   UNL     1     -43.856 -53.993  13.366  1.00  0.00     0.027 A 
HETATM   24  C   UNL     1     -43.362 -54.749  14.595  1.00  0.00     0.004 A 
HETATM   25  C   UNL     1     -41.921 -54.544  15.048  1.00  0.00     0.005 A 
HETATM   26  C   UNL     1     -41.022 -53.598  14.251  1.00  0.00     0.034 A 
ENDBRANCH  20  21
ENDBRANCH  19  20
ENDBRANCH   4  19
TORSDOF 5
ENDMDL
MODEL 5
REMARK VINA RESULT:      -6.7      1.358      2.063
REMARK  5 active torsions:
REMARK  status: ('A' for Active; 'I' for Inactive)
REMARK    1  A    between atoms: C_2  and  C_5 
REMARK    2  A    between atoms: C_10  and  N_11 
REMARK       I    between atoms: N_11  and  C_12 
REMARK       I    between atoms: C_12  and  N_14 
REMARK    3  A    between atoms: N_14  and  C_15 
REMARK    4  A    between atoms: C_15  and  C_16 
REMARK    5  A    between atoms: C_16  and  C_17 
ROOT
HETATM    1  N   UNL     1     -40.738 -49.595  10.819  1.00  0.00    -0.304 N 
HETATM    2  C   UNL     1     -41.142 -50.549  11.715  1.00  0.00     0.320 C 
HETATM    3  O   UNL     1     -41.964 -50.372  12.609  1.00  0.00    -0.247 OA
HETATM    4  N   UNL     1     -40.540 -51.778  11.542  1.00  0.00    -0.343 N 
HETATM    5  H   UNL     1     -39.962 -49.803  10.202  1.00  0.00     0.171 HD
HETATM    6  H   UNL     1     -40.304 -52.023  10.590  1.00  0.00     0.164 HD
ENDROOT
BRANCH   1   7
HETATM    7  C   UNL     1     -41.227 -48.299  10.741  1.00  0.00     0.105 A 
HETATM    8  C   UNL     1     -40.486 -47.233  11.512  1.00  0.00     0.272 A 
HETATM    9  N   UNL     1     -41.002 -45.957  11.437  1.00  0.00    -0.331 N 
HETATM   10  O   UNL     1     -39.482 -47.504  12.166  1.00  0.00    -0.266 OA
HETATM   11  C   UNL     1     -42.094 -45.608  10.677  1.00  0.00     0.107 A 
HETATM   12  H   UNL     1     -40.505 -45.248  11.964  1.00  0.00     0.168 HD
HETATM   13  C   UNL     1     -42.753 -46.532   9.959  1.00  0.00     0.065 A 
HETATM   14  C   UNL     1     -42.301 -47.910  10.033  1.00  0.00     0.052 A 
BRANCH  13  15
HETATM   15  C   UNL     1     -43.916 -46.206   9.062  1.00  0.00     0.418 C 
HETATM   16  F   UNL     1     -45.086 -46.765   9.466  1.00  0.00    -0.166 F 
HETATM   17  F   UNL     1     -43.698 -46.645   7.794  1.00  0.00    -0.166 F 
HETATM   18  F   UNL     1     -44.130 -44.869   8.982  1.00  0.00    -0.166 F 
ENDBRANCH  13  15
ENDBRANCH   1   7
BRANCH   4  19
HETATM   19  C   UNL     1     -41.061 -52.830  12.405  1.00  0.00     0.128 C 
BRANCH  19  20
HETATM   20  C   UNL     1     -40.105 -53.336  13.481  1.00  0.00     0.053 C 
BRANCH  20  21
HETATM   21  C   UNL     1     -40.812 -54.261  14.463  1.00  0.00    -0.082 A 
HETATM   22  C   UNL     1     -40.141 -54.860  15.457  1.00  0.00    -0.024 A 
HETATM   23  C   UNL     1     -40.736 -55.792  16.457  1.00  0.00     0.027 A 
HETATM   24  C   UNL     1     -42.240 -56.027  16.382  1.00  0.00     0.004 A 
HETATM   25  C   UNL     1     -43.029 -55.361  15.261  1.00  0.00     0.005 A 
HETATM   26  C   UNL     1     -42.287 -54.475  14.260  1.00  0.00     0.034 A 
ENDBRANCH  20  21
ENDBRANCH  19  20
ENDBRANCH   4  19
TORSDOF 5
ENDMDL
MODEL 6
REMARK VINA RESULT:      -6.5      3.542      7.891
REMARK  5 active torsions:
REMARK  status: ('A' for Active; 'I' for Inactive)
REMARK    1  A    between atoms: C_2  and  C_5 
REMARK    2  A    between atoms: C_10  and  N_11 
REMARK       I    between atoms: N_11  and  C_12 
REMARK       I    between atoms: C_12  and  N_14 
REMARK    3  A    between atoms: N_14  and  C_15 
REMARK    4  A    between atoms: C_15  and  C_16 
REMARK    5  A    between atoms: C_16  and  C_17 
ROOT
HETATM    1  N   UNL     1     -41.348 -51.600  11.503  1.00  0.00    -0.304 N 
HETATM    2  C   UNL     1     -41.478 -50.248  11.671  1.00  0.00     0.320 C 
HETATM    3  O   UNL     1     -42.087 -49.707  12.589  1.00  0.00    -0.247 OA
HETATM    4  N   UNL     1     -40.850 -49.494  10.700  1.00  0.00    -0.343 N 
HETATM    5  H   UNL     1     -40.936 -51.948  10.645  1.00  0.00     0.171 HD
HETATM    6  H   UNL     1     -40.008 -49.893  10.308  1.00  0.00     0.164 HD
ENDROOT
BRANCH   1   7
HETATM    7  C   UNL     1     -41.835 -52.573  12.365  1.00  0.00     0.105 A 
HETATM    8  C   UNL     1     -40.827 -53.314  13.209  1.00  0.00     0.272 A 
HETATM    9  N   UNL     1     -41.331 -54.291  14.043  1.00  0.00    -0.331 N 
HETATM   10  O   UNL     1     -39.629 -53.052  13.146  1.00  0.00    -0.266 OA
HETATM   11  C   UNL     1     -42.669 -54.578  14.175  1.00  0.00     0.107 A 
HETATM   12  H   UNL     1     -40.649 -54.791  14.600  1.00  0.00     0.168 HD
HETATM   13  C   UNL     1     -43.588 -53.913  13.456  1.00  0.00     0.065 A 
HETATM   14  C   UNL     1     -43.127 -52.908  12.515  1.00  0.00     0.052 A 
BRANCH  13  15
HETATM   15  C   UNL     1     -45.069 -54.136  13.598  1.00  0.00     0.418 C 
HETATM   16  F   UNL     1     -45.542 -53.865  14.842  1.00  0.00    -0.166 F 
HETATM   17  F   UNL     1     -45.400 -55.427  13.334  1.00  0.00    -0.166 F 
HETATM   18  F   UNL     1     -45.778 -53.366  12.734  1.00  0.00    -0.166 F 
ENDBRANCH  13  15
ENDBRANCH   1   7
BRANCH   4  19
HETATM   19  C   UNL     1     -40.872 -48.058  10.944  1.00  0.00     0.128 C 
BRANCH  19  20
HETATM   20  C   UNL     1     -39.651 -47.491  11.661  1.00  0.00     0.053 C 
BRANCH  20  21
HETATM   21  C   UNL     1     -39.803 -45.998  11.923  1.00  0.00    -0.082 A 
HETATM   22  C   UNL     1     -39.542 -45.477  13.130  1.00  0.00    -0.024 A 
HETATM   23  C   UNL     1     -39.675 -44.036  13.491  1.00  0.00     0.027 A 
HETATM   24  C   UNL     1     -40.073 -43.072  12.379  1.00  0.00     0.004 A 
HETATM   25  C   UNL     1     -40.377 -43.637  10.996  1.00  0.00     0.005 A 
HETATM   26  C   UNL     1     -40.264 -45.146  10.772  1.00  0.00     0.034 A 
ENDBRANCH  20  21
ENDBRANCH  19  20
ENDBRANCH   4  19
TORSDOF 5
ENDMDL
MODEL 7
REMARK VINA RESULT:      -6.5      4.505      7.496
REMARK  5 active torsions:
REMARK  status: ('A' for Active; 'I' for Inactive)
REMARK    1  A    between atoms: C_2  and  C_5 
REMARK    2  A    between atoms: C_10  and  N_11 
REMARK       I    between atoms: N_11  and  C_12 
REMARK       I    between atoms: C_12  and  N_14 
REMARK    3  A    between atoms: N_14  and  C_15 
REMARK    4  A    between atoms: C_15  and  C_16 
REMARK    5  A    between atoms: C_16  and  C_17 
ROOT
HETATM    1  N   UNL     1     -44.099 -51.104  12.719  1.00  0.00    -0.304 N 
HETATM    2  C   UNL     1     -42.745 -51.244  12.870  1.00  0.00     0.320 C 
HETATM    3  O   UNL     1     -42.199 -51.902  13.750  1.00  0.00    -0.247 OA
HETATM    4  N   UNL     1     -41.998 -50.569  11.926  1.00  0.00    -0.343 N 
HETATM    5  H   UNL     1     -44.448 -50.437  12.041  1.00  0.00     0.171 HD
HETATM    6  H   UNL     1     -42.415 -50.489  11.009  1.00  0.00     0.164 HD
ENDROOT
BRANCH   1   7
HETATM    7  C   UNL     1     -45.068 -51.720  13.498  1.00  0.00     0.105 A 
HETATM    8  C   UNL     1     -45.520 -53.097  13.076  1.00  0.00     0.272 A 
HETATM    9  N   UNL     1     -46.499 -53.681  13.852  1.00  0.00    -0.331 N 
HETATM   10  O   UNL     1     -45.036 -53.652  12.093  1.00  0.00    -0.266 OA
HETATM   11  C   UNL     1     -47.030 -53.111  14.985  1.00  0.00     0.107 A 
HETATM   12  H   UNL     1     -46.805 -54.601  13.558  1.00  0.00     0.168 HD
HETATM   13  C   UNL     1     -46.623 -51.899  15.399  1.00  0.00     0.065 A 
HETATM   14  C   UNL     1     -45.634 -51.198  14.599  1.00  0.00     0.052 A 
BRANCH  13  15
HETATM   15  C   UNL     1     -47.118 -51.247  16.661  1.00  0.00     0.418 C 
HETATM   16  F   UNL     1     -48.379 -50.754  16.557  1.00  0.00    -0.166 F 
HETATM   17  F   UNL     1     -46.325 -50.203  17.019  1.00  0.00    -0.166 F 
HETATM   18  F   UNL     1     -47.121 -52.112  17.706  1.00  0.00    -0.166 F 
ENDBRANCH  13  15
ENDBRANCH   1   7
BRANCH   4  19
HETATM   19  C   UNL     1     -40.565 -50.820  12.000  1.00  0.00     0.128 C 
BRANCH  19  20
HETATM   20  C   UNL     1     -39.675 -49.771  11.342  1.00  0.00     0.053 C 
BRANCH  20  21
HETATM   21  C   UNL     1     -39.192 -48.738  12.352  1.00  0.00    -0.082 A 
HETATM   22  C   UNL     1     -39.825 -47.565  12.498  1.00  0.00    -0.024 A 
HETATM   23  C   UNL     1     -39.424 -46.485  13.444  1.00  0.00     0.027 A 
HETATM   24  C   UNL     1     -38.242 -46.766  14.365  1.00  0.00     0.004 A 
HETATM   25  C   UNL     1     -37.502 -48.091  14.219  1.00  0.00     0.005 A 
HETATM   26  C   UNL     1     -37.977 -49.091  13.164  1.00  0.00     0.034 A 
ENDBRANCH  20  21
ENDBRANCH  19  20
ENDBRANCH   4  19
TORSDOF 5
ENDMDL
MODEL 8
REMARK VINA RESULT:      -6.2      4.901      8.548
REMARK  5 active torsions:
REMARK  status: ('A' for Active; 'I' for Inactive)
REMARK    1  A    between atoms: C_2  and  C_5 
REMARK    2  A    between atoms: C_10  and  N_11 
REMARK       I    between atoms: N_11  and  C_12 
REMARK       I    between atoms: C_12  and  N_14 
REMARK    3  A    between atoms: N_14  and  C_15 
REMARK    4  A    between atoms: C_15  and  C_16 
REMARK    5  A    between atoms: C_16  and  C_17 
ROOT
HETATM    1  N   UNL     1     -42.034 -52.716  12.035  1.00  0.00    -0.304 N 
HETATM    2  C   UNL     1     -41.491 -51.474  12.227  1.00  0.00     0.320 C 
HETATM    3  O   UNL     1     -41.503 -50.857  13.288  1.00  0.00    -0.247 OA
HETATM    4  N   UNL     1     -40.900 -50.935  11.103  1.00  0.00    -0.343 N 
HETATM    5  H   UNL     1     -42.086 -53.085  11.093  1.00  0.00     0.171 HD
HETATM    6  H   UNL     1     -40.477 -51.596  10.467  1.00  0.00     0.164 HD
ENDROOT
BRANCH   1   7
HETATM    7  C   UNL     1     -42.635 -53.497  13.012  1.00  0.00     0.105 A 
HETATM    8  C   UNL     1     -44.121 -53.733  12.891  1.00  0.00     0.272 A 
HETATM    9  N   UNL     1     -44.700 -54.494  13.885  1.00  0.00    -0.331 N 
HETATM   10  O   UNL     1     -44.765 -53.264  11.957  1.00  0.00    -0.266 OA
HETATM   11  C   UNL     1     -44.003 -55.073  14.919  1.00  0.00     0.107 A 
HETATM   12  H   UNL     1     -45.699 -54.640  13.803  1.00  0.00     0.168 HD
HETATM   13  C   UNL     1     -42.676 -54.904  15.032  1.00  0.00     0.065 A 
HETATM   14  C   UNL     1     -42.005 -54.067  14.054  1.00  0.00     0.052 A 
BRANCH  13  15
HETATM   15  C   UNL     1     -41.847 -55.559  16.104  1.00  0.00     0.418 C 
HETATM   16  F   UNL     1     -40.517 -55.569  15.830  1.00  0.00    -0.166 F 
HETATM   17  F   UNL     1     -42.212 -56.856  16.285  1.00  0.00    -0.166 F 
HETATM   18  F   UNL     1     -41.995 -54.940  17.302  1.00  0.00    -0.166 F 
ENDBRANCH  13  15
ENDBRANCH   1   7
BRANCH   4  19
HETATM   19  C   UNL     1     -40.207 -49.674  11.333  1.00  0.00     0.128 C 
BRANCH  19  20
HETATM   20  C   UNL     1     -40.940 -48.421  10.866  1.00  0.00     0.053 C 
BRANCH  20  21
HETATM   21  C   UNL     1     -40.358 -47.166  11.503  1.00  0.00    -0.082 A 
HETATM   22  C   UNL     1     -40.417 -45.981  10.878  1.00  0.00    -0.024 A 
HETATM   23  C   UNL     1     -39.864 -44.702  11.408  1.00  0.00     0.027 A 
HETATM   24  C   UNL     1     -39.245 -44.732  12.801  1.00  0.00     0.004 A 
HETATM   25  C   UNL     1     -39.164 -46.066  13.534  1.00  0.00     0.005 A 
HETATM   26  C   UNL     1     -39.712 -47.320  12.853  1.00  0.00     0.034 A 
ENDBRANCH  20  21
ENDBRANCH  19  20
ENDBRANCH   4  19
TORSDOF 5
ENDMDL
MODEL 9
REMARK VINA RESULT:      -6.1      2.902      4.030
REMARK  5 active torsions:
REMARK  status: ('A' for Active; 'I' for Inactive)
REMARK    1  A    between atoms: C_2  and  C_5 
REMARK    2  A    between atoms: C_10  and  N_11 
REMARK       I    between atoms: N_11  and  C_12 
REMARK       I    between atoms: C_12  and  N_14 
REMARK    3  A    between atoms: N_14  and  C_15 
REMARK    4  A    between atoms: C_15  and  C_16 
REMARK    5  A    between atoms: C_16  and  C_17 
ROOT
HETATM    1  N   UNL     1     -41.367 -51.544  11.582  1.00  0.00    -0.304 N 
HETATM    2  C   UNL     1     -42.482 -51.862  12.310  1.00  0.00     0.320 C 
HETATM    3  O   UNL     1     -42.891 -51.235  13.283  1.00  0.00    -0.247 OA
HETATM    4  N   UNL     1     -43.149 -52.984  11.861  1.00  0.00    -0.343 N 
HETATM    5  H   UNL     1     -41.041 -52.196  10.878  1.00  0.00     0.171 HD
HETATM    6  H   UNL     1     -43.112 -53.150  10.865  1.00  0.00     0.164 HD
ENDROOT
BRANCH   1   7
HETATM    7  C   UNL     1     -40.553 -50.439  11.789  1.00  0.00     0.105 A 
HETATM    8  C   UNL     1     -39.224 -50.676  12.463  1.00  0.00     0.272 A 
HETATM    9  N   UNL     1     -38.442 -49.561  12.677  1.00  0.00    -0.331 N 
HETATM   10  O   UNL     1     -38.874 -51.805  12.799  1.00  0.00    -0.266 OA
HETATM   11  C   UNL     1     -38.780 -48.291  12.273  1.00  0.00     0.107 A 
HETATM   12  H   UNL     1     -37.555 -49.726  13.139  1.00  0.00     0.168 HD
HETATM   13  C   UNL     1     -39.943 -48.058  11.644  1.00  0.00     0.065 A 
HETATM   14  C   UNL     1     -40.846 -49.176  11.434  1.00  0.00     0.052 A 
BRANCH  13  15
HETATM   15  C   UNL     1     -40.345 -46.705  11.123  1.00  0.00     0.418 C 
HETATM   16  F   UNL     1     -40.630 -45.809  12.103  1.00  0.00    -0.166 F 
HETATM   17  F   UNL     1     -41.455 -46.787  10.343  1.00  0.00    -0.166 F 
HETATM   18  F   UNL     1     -39.370 -46.151  10.359  1.00  0.00    -0.166 F 
ENDBRANCH  13  15
ENDBRANCH   1   7
BRANCH   4  19
HETATM   19  C   UNL     1     -44.406 -53.251  12.548  1.00  0.00     0.128 C 
BRANCH  19  20
HETATM   20  C   UNL     1     -44.523 -54.625  13.201  1.00  0.00     0.053 C 
BRANCH  20  21
HETATM   21  C   UNL     1     -44.194 -54.565  14.687  1.00  0.00    -0.082 A 
HETATM   22  C   UNL     1     -45.065 -54.057  15.570  1.00  0.00    -0.024 A 
HETATM   23  C   UNL     1     -44.831 -53.940  17.037  1.00  0.00     0.027 A 
HETATM   24  C   UNL     1     -43.525 -54.505  17.584  1.00  0.00     0.004 A 
HETATM   25  C   UNL     1     -42.514 -55.087  16.602  1.00  0.00     0.005 A 
HETATM   26  C   UNL     1     -42.849 -55.092  15.110  1.00  0.00     0.034 A 
ENDBRANCH  20  21
ENDBRANCH  19  20
ENDBRANCH   4  19
TORSDOF 5
ENDMDL
