MODEL 1
REMARK VINA RESULT:      -5.8      0.000      0.000
REMARK  5 active torsions:
REMARK  status: ('A' for Active; 'I' for Inactive)
REMARK    1  A    between atoms: C_2  and  C_5 
REMARK    2  A    between atoms: C_5  and  O_6 
REMARK    3  A    between atoms: O_6  and  C_7 
REMARK    4  A    between atoms: C_10  and  N_11 
REMARK       I    between atoms: N_11  and  C_12 
REMARK    5  A    between atoms: C_12  and  C_14 
ROOT
HETATM    1  C   UNL     1     -42.343 -45.958  10.800  1.00  0.00     0.142 A 
HETATM    2  C   UNL     1     -42.656 -46.364  12.081  1.00  0.00     0.058 A 
HETATM    3  C   UNL     1     -42.586 -47.722  12.381  1.00  0.00     0.035 A 
HETATM    4  C   UNL     1     -42.183 -48.636  11.408  1.00  0.00     0.050 A 
HETATM    5  C   UNL     1     -41.859 -48.111  10.157  1.00  0.00     0.119 A 
HETATM    6  N   UNL     1     -41.949 -46.796   9.821  1.00  0.00    -0.345 N 
ATOM      7  HN  UNL     1     -41.729 -46.463   8.882  1.00  0.00     0.167 HD
ENDROOT
BRANCH   4   8
HETATM    8  N   UNL     1     -42.075 -50.024  11.649  1.00  0.00    -0.324 N 
HETATM    9  C   UNL     1     -40.893 -50.731  11.755  1.00  0.00     0.251 C 
HETATM   10  O   UNL     1     -39.758 -50.248  11.752  1.00  0.00    -0.270 OA
HETATM   11  H   UNL     1     -42.924 -50.561  11.817  1.00  0.00     0.169 HD
BRANCH   9  12
HETATM   12  C   UNL     1     -41.073 -52.243  11.909  1.00  0.00     0.213 C 
HETATM   13  C   UNL     1     -42.453 -52.545  12.479  1.00  0.00     0.044 C 
HETATM   14  C   UNL     1     -42.262 -53.797  13.307  1.00  0.00     0.029 C 
HETATM   15  C   UNL     1     -40.804 -54.153  13.111  1.00  0.00     0.168 C 
HETATM   16  O   UNL     1     -40.152 -52.920  12.767  1.00  0.00    -0.376 OA
ENDBRANCH   9  12
ENDBRANCH   4   8
BRANCH   1  17
HETATM   17  O   UNL     1     -42.399 -44.603  10.561  1.00  0.00    -0.327 OA
BRANCH  17  18
HETATM   18  C   UNL     1     -41.798 -43.823  11.602  1.00  0.00     0.294 C 
BRANCH  18  19
HETATM   19  C   UNL     1     -40.312 -43.526  11.420  1.00  0.00     0.408 C 
HETATM   20  F   UNL     1     -39.509 -44.236  12.240  1.00  0.00    -0.169 F 
HETATM   21  F   UNL     1     -40.073 -42.213  11.684  1.00  0.00    -0.169 F 
HETATM   22  F   UNL     1     -39.914 -43.738  10.144  1.00  0.00    -0.169 F 
ENDBRANCH  18  19
ENDBRANCH  17  18
ENDBRANCH   1  17
TORSDOF 5
ENDMDL
MODEL 2
REMARK VINA RESULT:      -5.7      6.673      7.955
REMARK  5 active torsions:
REMARK  status: ('A' for Active; 'I' for Inactive)
REMARK    1  A    between atoms: C_2  and  C_5 
REMARK    2  A    between atoms: C_5  and  O_6 
REMARK    3  A    between atoms: O_6  and  C_7 
REMARK    4  A    between atoms: C_10  and  N_11 
REMARK       I    between atoms: N_11  and  C_12 
REMARK    5  A    between atoms: C_12  and  C_14 
ROOT
HETATM    1  C   UNL     1     -44.139 -54.009  13.079  1.00  0.00     0.142 A 
HETATM    2  C   UNL     1     -44.194 -54.667  14.291  1.00  0.00     0.058 A 
HETATM    3  C   UNL     1     -43.003 -54.898  14.973  1.00  0.00     0.035 A 
HETATM    4  C   UNL     1     -41.793 -54.447  14.447  1.00  0.00     0.050 A 
HETATM    5  C   UNL     1     -41.859 -53.765  13.231  1.00  0.00     0.119 A 
HETATM    6  N   UNL     1     -43.000 -53.553  12.523  1.00  0.00    -0.345 N 
ATOM      7  HN  UNL     1     -42.994 -53.074  11.621  1.00  0.00     0.167 HD
ENDROOT
BRANCH   4   8
HETATM    8  N   UNL     1     -40.550 -54.633  15.093  1.00  0.00    -0.324 N 
HETATM    9  C   UNL     1     -39.927 -53.712  15.913  1.00  0.00     0.251 C 
HETATM   10  O   UNL     1     -40.398 -52.634  16.280  1.00  0.00    -0.270 OA
HETATM   11  H   UNL     1     -40.083 -55.534  15.010  1.00  0.00     0.169 HD
BRANCH   9  12
HETATM   12  C   UNL     1     -38.535 -54.135  16.393  1.00  0.00     0.213 C 
HETATM   13  C   UNL     1     -38.318 -55.615  16.110  1.00  0.00     0.044 C 
HETATM   14  C   UNL     1     -37.422 -56.094  17.233  1.00  0.00     0.029 C 
HETATM   15  C   UNL     1     -37.147 -54.847  18.045  1.00  0.00     0.168 C 
HETATM   16  O   UNL     1     -38.253 -53.968  17.784  1.00  0.00    -0.376 OA
ENDBRANCH   9  12
ENDBRANCH   4   8
BRANCH   1  17
HETATM   17  O   UNL     1     -45.346 -53.780  12.456  1.00  0.00    -0.327 OA
BRANCH  17  18
HETATM   18  C   UNL     1     -46.293 -53.109  13.297  1.00  0.00     0.294 C 
BRANCH  18  19
HETATM   19  C   UNL     1     -46.498 -51.627  12.995  1.00  0.00     0.408 C 
HETATM   20  F   UNL     1     -47.147 -51.391  11.836  1.00  0.00    -0.169 F 
HETATM   21  F   UNL     1     -45.291 -51.009  12.896  1.00  0.00    -0.169 F 
HETATM   22  F   UNL     1     -47.167 -51.003  13.993  1.00  0.00    -0.169 F 
ENDBRANCH  18  19
ENDBRANCH  17  18
ENDBRANCH   1  17
TORSDOF 5
ENDMDL
MODEL 3
REMARK VINA RESULT:      -5.7      3.729      4.306
REMARK  5 active torsions:
REMARK  status: ('A' for Active; 'I' for Inactive)
REMARK    1  A    between atoms: C_2  and  C_5 
REMARK    2  A    between atoms: C_5  and  O_6 
REMARK    3  A    between atoms: O_6  and  C_7 
REMARK    4  A    between atoms: C_10  and  N_11 
REMARK       I    between atoms: N_11  and  C_12 
REMARK    5  A    between atoms: C_12  and  C_14 
ROOT
HETATM    1  C   UNL     1     -42.807 -47.868  10.450  1.00  0.00     0.142 A 
HETATM    2  C   UNL     1     -43.311 -48.191  11.693  1.00  0.00     0.058 A 
HETATM    3  C   UNL     1     -42.597 -49.085  12.486  1.00  0.00     0.035 A 
HETATM    4  C   UNL     1     -41.388 -49.613  12.035  1.00  0.00     0.050 A 
HETATM    5  C   UNL     1     -40.956 -49.192  10.777  1.00  0.00     0.119 A 
HETATM    6  N   UNL     1     -41.645 -48.348   9.963  1.00  0.00    -0.345 N 
ATOM      7  HN  UNL     1     -41.302 -48.092   9.037  1.00  0.00     0.167 HD
ENDROOT
BRANCH   4   8
HETATM    8  N   UNL     1     -40.605 -50.511  12.794  1.00  0.00    -0.324 N 
HETATM    9  C   UNL     1     -40.595 -51.886  12.652  1.00  0.00     0.251 C 
HETATM   10  O   UNL     1     -41.192 -52.528  11.785  1.00  0.00    -0.270 OA
HETATM   11  H   UNL     1     -39.942 -50.135  13.469  1.00  0.00     0.169 HD
BRANCH   9  12
HETATM   12  C   UNL     1     -39.731 -52.620  13.681  1.00  0.00     0.213 C 
HETATM   13  C   UNL     1     -40.029 -54.114  13.635  1.00  0.00     0.044 C 
HETATM   14  C   UNL     1     -39.827 -54.589  15.057  1.00  0.00     0.029 C 
HETATM   15  C   UNL     1     -39.378 -53.352  15.803  1.00  0.00     0.168 C 
HETATM   16  O   UNL     1     -39.893 -52.242  15.049  1.00  0.00    -0.376 OA
ENDBRANCH   9  12
ENDBRANCH   4   8
BRANCH   1  17
HETATM   17  O   UNL     1     -43.534 -46.959   9.715  1.00  0.00    -0.327 OA
BRANCH  17  18
HETATM   18  C   UNL     1     -44.190 -47.547   8.585  1.00  0.00     0.294 C 
BRANCH  18  19
HETATM   19  C   UNL     1     -45.688 -47.784   8.750  1.00  0.00     0.408 C 
HETATM   20  F   UNL     1     -46.016 -48.433   9.888  1.00  0.00    -0.169 F 
HETATM   21  F   UNL     1     -46.147 -48.548   7.723  1.00  0.00    -0.169 F 
HETATM   22  F   UNL     1     -46.385 -46.624   8.705  1.00  0.00    -0.169 F 
ENDBRANCH  18  19
ENDBRANCH  17  18
ENDBRANCH   1  17
TORSDOF 5
ENDMDL
MODEL 4
REMARK VINA RESULT:      -5.7      4.590      5.580
REMARK  5 active torsions:
REMARK  status: ('A' for Active; 'I' for Inactive)
REMARK    1  A    between atoms: C_2  and  C_5 
REMARK    2  A    between atoms: C_5  and  O_6 
REMARK    3  A    between atoms: O_6  and  C_7 
REMARK    4  A    between atoms: C_10  and  N_11 
REMARK       I    between atoms: N_11  and  C_12 
REMARK    5  A    between atoms: C_12  and  C_14 
ROOT
HETATM    1  C   UNL     1     -43.224 -46.903   9.778  1.00  0.00     0.142 A 
HETATM    2  C   UNL     1     -42.582 -45.805  10.315  1.00  0.00     0.058 A 
HETATM    3  C   UNL     1     -41.404 -46.010  11.028  1.00  0.00     0.035 A 
HETATM    4  C   UNL     1     -40.882 -47.295  11.167  1.00  0.00     0.050 A 
HETATM    5  C   UNL     1     -41.596 -48.327  10.556  1.00  0.00     0.119 A 
HETATM    6  N   UNL     1     -42.766 -48.166   9.882  1.00  0.00    -0.345 N 
ATOM      7  HN  UNL     1     -43.268 -48.956   9.477  1.00  0.00     0.167 HD
ENDROOT
BRANCH   4   8
HETATM    8  N   UNL     1     -39.683 -47.573  11.863  1.00  0.00    -0.324 N 
HETATM    9  C   UNL     1     -39.599 -48.070  13.149  1.00  0.00     0.251 C 
HETATM   10  O   UNL     1     -40.547 -48.435  13.848  1.00  0.00    -0.270 OA
HETATM   11  H   UNL     1     -38.796 -47.459  11.377  1.00  0.00     0.169 HD
BRANCH   9  12
HETATM   12  C   UNL     1     -38.172 -48.173  13.694  1.00  0.00     0.213 C 
HETATM   13  C   UNL     1     -37.926 -49.572  14.242  1.00  0.00     0.044 C 
HETATM   14  C   UNL     1     -36.956 -49.372  15.386  1.00  0.00     0.029 C 
HETATM   15  C   UNL     1     -36.674 -47.886  15.378  1.00  0.00     0.168 C 
HETATM   16  O   UNL     1     -37.818 -47.282  14.754  1.00  0.00    -0.376 OA
ENDBRANCH   9  12
ENDBRANCH   4   8
BRANCH   1  17
HETATM   17  O   UNL     1     -44.369 -46.646   9.058  1.00  0.00    -0.327 OA
BRANCH  17  18
HETATM   18  C   UNL     1     -44.852 -47.791   8.344  1.00  0.00     0.294 C 
BRANCH  18  19
HETATM   19  C   UNL     1     -46.291 -48.193   8.654  1.00  0.00     0.408 C 
HETATM   20  F   UNL     1     -47.136 -47.148   8.777  1.00  0.00    -0.169 F 
HETATM   21  F   UNL     1     -46.334 -48.867   9.834  1.00  0.00    -0.169 F 
HETATM   22  F   UNL     1     -46.788 -49.033   7.715  1.00  0.00    -0.169 F 
ENDBRANCH  18  19
ENDBRANCH  17  18
ENDBRANCH   1  17
TORSDOF 5
ENDMDL
MODEL 5
REMARK VINA RESULT:      -5.7      4.407      8.319
REMARK  5 active torsions:
REMARK  status: ('A' for Active; 'I' for Inactive)
REMARK    1  A    between atoms: C_2  and  C_5 
REMARK    2  A    between atoms: C_5  and  O_6 
REMARK    3  A    between atoms: O_6  and  C_7 
REMARK    4  A    between atoms: C_10  and  N_11 
REMARK       I    between atoms: N_11  and  C_12 
REMARK    5  A    between atoms: C_12  and  C_14 
ROOT
HETATM    1  C   UNL     1     -41.334 -46.388  10.501  1.00  0.00     0.142 A 
HETATM    2  C   UNL     1     -42.298 -45.719  11.227  1.00  0.00     0.058 A 
HETATM    3  C   UNL     1     -41.995 -44.454  11.723  1.00  0.00     0.035 A 
HETATM    4  C   UNL     1     -40.752 -43.877  11.464  1.00  0.00     0.050 A 
HETATM    5  C   UNL     1     -39.866 -44.629  10.692  1.00  0.00     0.119 A 
HETATM    6  N   UNL     1     -40.118 -45.880  10.221  1.00  0.00    -0.345 N 
ATOM      7  HN  UNL     1     -39.425 -46.404   9.686  1.00  0.00     0.167 HD
ENDROOT
BRANCH   4   8
HETATM    8  N   UNL     1     -40.385 -42.592  11.923  1.00  0.00    -0.324 N 
HETATM    9  C   UNL     1     -39.960 -42.288  13.201  1.00  0.00     0.251 C 
HETATM   10  O   UNL     1     -39.747 -43.098  14.106  1.00  0.00    -0.270 OA
HETATM   11  H   UNL     1     -40.369 -41.820  11.259  1.00  0.00     0.169 HD
BRANCH   9  12
HETATM   12  C   UNL     1     -39.731 -40.795  13.452  1.00  0.00     0.213 C 
HETATM   13  C   UNL     1     -40.406 -39.977  12.358  1.00  0.00     0.044 C 
HETATM   14  C   UNL     1     -39.529 -38.754  12.196  1.00  0.00     0.029 C 
HETATM   15  C   UNL     1     -38.450 -38.930  13.242  1.00  0.00     0.168 C 
HETATM   16  O   UNL     1     -38.375 -40.344  13.481  1.00  0.00    -0.376 OA
ENDBRANCH   9  12
ENDBRANCH   4   8
BRANCH   1  17
HETATM   17  O   UNL     1     -41.691 -47.623  10.008  1.00  0.00    -0.327 OA
BRANCH  17  18
HETATM   18  C   UNL     1     -43.101 -47.752   9.782  1.00  0.00     0.294 C 
BRANCH  18  19
HETATM   19  C   UNL     1     -43.549 -47.573   8.335  1.00  0.00     0.408 C 
HETATM   20  F   UNL     1     -42.895 -48.364   7.459  1.00  0.00    -0.169 F 
HETATM   21  F   UNL     1     -43.324 -46.291   7.942  1.00  0.00    -0.169 F 
HETATM   22  F   UNL     1     -44.878 -47.789   8.194  1.00  0.00    -0.169 F 
ENDBRANCH  18  19
ENDBRANCH  17  18
ENDBRANCH   1  17
TORSDOF 5
ENDMDL
MODEL 6
REMARK VINA RESULT:      -5.7      5.855      7.820
REMARK  5 active torsions:
REMARK  status: ('A' for Active; 'I' for Inactive)
REMARK    1  A    between atoms: C_2  and  C_5 
REMARK    2  A    between atoms: C_5  and  O_6 
REMARK    3  A    between atoms: O_6  and  C_7 
REMARK    4  A    between atoms: C_10  and  N_11 
REMARK       I    between atoms: N_11  and  C_12 
REMARK    5  A    between atoms: C_12  and  C_14 
ROOT
HETATM    1  C   UNL     1     -44.348 -54.102  13.151  1.00  0.00     0.142 A 
HETATM    2  C   UNL     1     -43.437 -54.473  14.120  1.00  0.00     0.058 A 
HETATM    3  C   UNL     1     -42.155 -53.934  14.064  1.00  0.00     0.035 A 
HETATM    4  C   UNL     1     -41.819 -53.022  13.065  1.00  0.00     0.050 A 
HETATM    5  C   UNL     1     -42.827 -52.693  12.158  1.00  0.00     0.119 A 
HETATM    6  N   UNL     1     -44.078 -53.226  12.163  1.00  0.00    -0.345 N 
ATOM      7  HN  UNL     1     -44.774 -52.977  11.459  1.00  0.00     0.167 HD
ENDROOT
BRANCH   4   8
HETATM    8  N   UNL     1     -40.543 -52.424  12.959  1.00  0.00    -0.324 N 
HETATM    9  C   UNL     1     -40.136 -51.278  13.616  1.00  0.00     0.251 C 
HETATM   10  O   UNL     1     -40.786 -50.659  14.461  1.00  0.00    -0.270 OA
HETATM   11  H   UNL     1     -39.827 -52.889  12.404  1.00  0.00     0.169 HD
BRANCH   9  12
HETATM   12  C   UNL     1     -38.735 -50.794  13.232  1.00  0.00     0.213 C 
HETATM   13  C   UNL     1     -38.835 -49.715  12.162  1.00  0.00     0.044 C 
HETATM   14  C   UNL     1     -37.587 -49.887  11.325  1.00  0.00     0.029 C 
HETATM   15  C   UNL     1     -36.837 -51.013  12.003  1.00  0.00     0.168 C 
HETATM   16  O   UNL     1     -37.836 -51.771  12.704  1.00  0.00    -0.376 OA
ENDBRANCH   9  12
ENDBRANCH   4   8
BRANCH   1  17
HETATM   17  O   UNL     1     -45.610 -54.640  13.265  1.00  0.00    -0.327 OA
BRANCH  17  18
HETATM   18  C   UNL     1     -46.287 -54.236  14.462  1.00  0.00     0.294 C 
BRANCH  18  19
HETATM   19  C   UNL     1     -46.635 -52.752  14.545  1.00  0.00     0.408 C 
HETATM   20  F   UNL     1     -45.645 -51.987  15.051  1.00  0.00    -0.169 F 
HETATM   21  F   UNL     1     -47.711 -52.580  15.359  1.00  0.00    -0.169 F 
HETATM   22  F   UNL     1     -46.985 -52.253  13.337  1.00  0.00    -0.169 F 
ENDBRANCH  18  19
ENDBRANCH  17  18
ENDBRANCH   1  17
TORSDOF 5
ENDMDL
MODEL 7
REMARK VINA RESULT:      -5.6      3.063      3.753
REMARK  5 active torsions:
REMARK  status: ('A' for Active; 'I' for Inactive)
REMARK    1  A    between atoms: C_2  and  C_5 
REMARK    2  A    between atoms: C_5  and  O_6 
REMARK    3  A    between atoms: O_6  and  C_7 
REMARK    4  A    between atoms: C_10  and  N_11 
REMARK       I    between atoms: N_11  and  C_12 
REMARK    5  A    between atoms: C_12  and  C_14 
ROOT
HETATM    1  C   UNL     1     -41.849 -48.299  10.814  1.00  0.00     0.142 A 
HETATM    2  C   UNL     1     -42.750 -48.533  11.832  1.00  0.00     0.058 A 
HETATM    3  C   UNL     1     -42.647 -49.722  12.548  1.00  0.00     0.035 A 
HETATM    4  C   UNL     1     -41.637 -50.635  12.250  1.00  0.00     0.050 A 
HETATM    5  C   UNL     1     -40.761 -50.282  11.223  1.00  0.00     0.119 A 
HETATM    6  N   UNL     1     -40.854 -49.145  10.483  1.00  0.00    -0.345 N 
ATOM      7  HN  UNL     1     -40.207 -48.945   9.720  1.00  0.00     0.167 HD
ENDROOT
BRANCH   4   8
HETATM    8  N   UNL     1     -41.465 -51.853  12.947  1.00  0.00    -0.324 N 
HETATM    9  C   UNL     1     -42.315 -52.940  12.885  1.00  0.00     0.251 C 
HETATM   10  O   UNL     1     -43.296 -53.051  12.146  1.00  0.00    -0.270 OA
HETATM   11  H   UNL     1     -40.622 -51.986  13.503  1.00  0.00     0.169 HD
BRANCH   9  12
HETATM   12  C   UNL     1     -41.942 -54.088  13.828  1.00  0.00     0.213 C 
HETATM   13  C   UNL     1     -43.197 -54.644  14.488  1.00  0.00     0.044 C 
HETATM   14  C   UNL     1     -42.740 -55.104  15.856  1.00  0.00     0.029 C 
HETATM   15  C   UNL     1     -41.252 -54.829  15.861  1.00  0.00     0.168 C 
HETATM   16  O   UNL     1     -41.052 -53.779  14.902  1.00  0.00    -0.376 OA
ENDBRANCH   9  12
ENDBRANCH   4   8
BRANCH   1  17
HETATM   17  O   UNL     1     -41.974 -47.097  10.154  1.00  0.00    -0.327 OA
BRANCH  17  18
HETATM   18  C   UNL     1     -43.315 -46.591  10.157  1.00  0.00     0.294 C 
BRANCH  18  19
HETATM   19  C   UNL     1     -44.027 -46.624   8.808  1.00  0.00     0.408 C 
HETATM   20  F   UNL     1     -44.546 -47.830   8.494  1.00  0.00    -0.169 F 
HETATM   21  F   UNL     1     -43.148 -46.311   7.819  1.00  0.00    -0.169 F 
HETATM   22  F   UNL     1     -45.018 -45.704   8.744  1.00  0.00    -0.169 F 
ENDBRANCH  18  19
ENDBRANCH  17  18
ENDBRANCH   1  17
TORSDOF 5
ENDMDL
MODEL 8
REMARK VINA RESULT:      -5.2      5.912      7.981
REMARK  5 active torsions:
REMARK  status: ('A' for Active; 'I' for Inactive)
REMARK    1  A    between atoms: C_2  and  C_5 
REMARK    2  A    between atoms: C_5  and  O_6 
REMARK    3  A    between atoms: O_6  and  C_7 
REMARK    4  A    between atoms: C_10  and  N_11 
REMARK       I    between atoms: N_11  and  C_12 
REMARK    5  A    between atoms: C_12  and  C_14 
ROOT
HETATM    1  C   UNL     1     -43.495 -53.101  12.590  1.00  0.00     0.142 A 
HETATM    2  C   UNL     1     -42.319 -53.737  12.931  1.00  0.00     0.058 A 
HETATM    3  C   UNL     1     -41.201 -52.957  13.210  1.00  0.00     0.035 A 
HETATM    4  C   UNL     1     -41.287 -51.566  13.169  1.00  0.00     0.050 A 
HETATM    5  C   UNL     1     -42.534 -51.029  12.845  1.00  0.00     0.119 A 
HETATM    6  N   UNL     1     -43.636 -51.762  12.534  1.00  0.00    -0.345 N 
ATOM      7  HN  UNL     1     -44.520 -51.324  12.273  1.00  0.00     0.167 HD
ENDROOT
BRANCH   4   8
HETATM    8  N   UNL     1     -40.198 -50.714  13.457  1.00  0.00    -0.324 N 
HETATM    9  C   UNL     1     -39.415 -50.067  12.520  1.00  0.00     0.251 C 
HETATM   10  O   UNL     1     -39.604 -50.056  11.302  1.00  0.00    -0.270 OA
HETATM   11  H   UNL     1     -39.987 -50.497  14.430  1.00  0.00     0.169 HD
BRANCH   9  12
HETATM   12  C   UNL     1     -38.234 -49.292  13.110  1.00  0.00     0.213 C 
HETATM   13  C   UNL     1     -37.590 -50.102  14.229  1.00  0.00     0.044 C 
HETATM   14  C   UNL     1     -37.075 -49.067  15.205  1.00  0.00     0.029 C 
HETATM   15  C   UNL     1     -37.410 -47.743  14.555  1.00  0.00     0.168 C 
HETATM   16  O   UNL     1     -38.520 -48.014  13.683  1.00  0.00    -0.376 OA
ENDBRANCH   9  12
ENDBRANCH   4   8
BRANCH   1  17
HETATM   17  O   UNL     1     -44.580 -53.915  12.350  1.00  0.00    -0.327 OA
BRANCH  17  18
HETATM   18  C   UNL     1     -44.971 -54.682  13.496  1.00  0.00     0.294 C 
BRANCH  18  19
HETATM   19  C   UNL     1     -45.988 -54.010  14.414  1.00  0.00     0.408 C 
HETATM   20  F   UNL     1     -46.720 -53.051  13.809  1.00  0.00    -0.169 F 
HETATM   21  F   UNL     1     -45.343 -53.410  15.450  1.00  0.00    -0.169 F 
HETATM   22  F   UNL     1     -46.837 -54.911  14.963  1.00  0.00    -0.169 F 
ENDBRANCH  18  19
ENDBRANCH  17  18
ENDBRANCH   1  17
TORSDOF 5
ENDMDL
MODEL 9
REMARK VINA RESULT:      -5.2      5.005      8.094
REMARK  5 active torsions:
REMARK  status: ('A' for Active; 'I' for Inactive)
REMARK    1  A    between atoms: C_2  and  C_5 
REMARK    2  A    between atoms: C_5  and  O_6 
REMARK    3  A    between atoms: O_6  and  C_7 
REMARK    4  A    between atoms: C_10  and  N_11 
REMARK       I    between atoms: N_11  and  C_12 
REMARK    5  A    between atoms: C_12  and  C_14 
ROOT
HETATM    1  C   UNL     1     -42.556 -51.857  12.660  1.00  0.00     0.142 A 
HETATM    2  C   UNL     1     -43.404 -50.886  13.155  1.00  0.00     0.058 A 
HETATM    3  C   UNL     1     -43.129 -49.554  12.861  1.00  0.00     0.035 A 
HETATM    4  C   UNL     1     -42.034 -49.222  12.063  1.00  0.00     0.050 A 
HETATM    5  C   UNL     1     -41.264 -50.285  11.590  1.00  0.00     0.119 A 
HETATM    6  N   UNL     1     -41.485 -51.594  11.886  1.00  0.00    -0.345 N 
ATOM      7  HN  UNL     1     -40.875 -52.335  11.540  1.00  0.00     0.167 HD
ENDROOT
BRANCH   4   8
HETATM    8  N   UNL     1     -41.706 -47.893  11.713  1.00  0.00    -0.324 N 
HETATM    9  C   UNL     1     -42.016 -47.279  10.515  1.00  0.00     0.251 C 
HETATM   10  O   UNL     1     -42.703 -47.761   9.611  1.00  0.00    -0.270 OA
HETATM   11  H   UNL     1     -41.254 -47.300  12.406  1.00  0.00     0.169 HD
BRANCH   9  12
HETATM   12  C   UNL     1     -41.443 -45.868  10.362  1.00  0.00     0.213 C 
HETATM   13  C   UNL     1     -39.975 -45.858  10.768  1.00  0.00     0.044 C 
HETATM   14  C   UNL     1     -39.747 -44.480  11.351  1.00  0.00     0.029 C 
HETATM   15  C   UNL     1     -41.080 -43.783  11.189  1.00  0.00     0.168 C 
HETATM   16  O   UNL     1     -42.058 -44.833  11.133  1.00  0.00    -0.376 OA
ENDBRANCH   9  12
ENDBRANCH   4   8
BRANCH   1  17
HETATM   17  O   UNL     1     -42.886 -53.161  12.954  1.00  0.00    -0.327 OA
BRANCH  17  18
HETATM   18  C   UNL     1     -44.189 -53.530  12.483  1.00  0.00     0.294 C 
BRANCH  18  19
HETATM   19  C   UNL     1     -45.153 -54.029  13.556  1.00  0.00     0.408 C 
HETATM   20  F   UNL     1     -44.647 -53.986  14.807  1.00  0.00    -0.169 F 
HETATM   21  F   UNL     1     -45.476 -55.327  13.313  1.00  0.00    -0.169 F 
HETATM   22  F   UNL     1     -46.316 -53.336  13.543  1.00  0.00    -0.169 F 
ENDBRANCH  18  19
ENDBRANCH  17  18
ENDBRANCH   1  17
TORSDOF 5
ENDMDL
