MODEL 1
REMARK VINA RESULT:      -5.3      0.000      0.000
REMARK  2 active torsions:
REMARK  status: ('A' for Active; 'I' for Inactive)
REMARK    1  A    between atoms: C_6  and  C_7 
REMARK       I    between atoms: C_7  and  N_9 
REMARK    2  A    between atoms: C_10  and  C_13 
ROOT
HETATM    1  C   UNL     2     -44.483 -46.140   8.877  1.00  0.00     0.177 C 
HETATM    2  N   UNL     2     -43.249 -46.578   9.517  1.00  0.00    -0.307 N 
HETATM    3  C   UNL     2     -43.006 -47.818   9.985  1.00  0.00     0.128 A 
HETATM    4  C   UNL     2     -41.739 -47.842  10.521  1.00  0.00     0.073 A 
HETATM    5  C   UNL     2     -41.260 -46.537  10.354  1.00  0.00     0.049 A 
HETATM    6  N   UNL     2     -42.200 -45.795   9.728  1.00  0.00    -0.302 N 
ATOM      7  HN  UNL     2     -42.117 -44.814   9.466  1.00  0.00     0.186 HD
ENDROOT
BRANCH   5   8
HETATM    8  C   UNL     2     -39.926 -46.029  10.859  1.00  0.00     0.066 C 
HETATM    9  C   UNL     2     -40.031 -45.797  12.385  1.00  0.00     0.014 C 
HETATM   10  C   UNL     2     -40.902 -44.569  12.673  1.00  0.00     0.031 C 
HETATM   11  C   UNL     2     -40.269 -43.354  12.000  1.00  0.00     0.269 C 
HETATM   12  N   UNL     2     -40.212 -43.556  10.545  1.00  0.00     0.084 N 
HETATM   13  C   UNL     2     -39.401 -44.734  10.196  1.00  0.00     0.280 C 
HETATM   14  H   UNL     2     -39.750 -42.714  10.127  1.00  0.00     0.315 HD
ENDBRANCH   5   8
BRANCH   4  15
HETATM   15  C   UNL     2     -41.037 -49.010  11.123  1.00  0.00     0.252 C 
HETATM   16  O   UNL     2     -41.030 -49.160  12.334  1.00  0.00    -0.268 OA
HETATM   17  N   UNL     2     -40.395 -49.920  10.353  1.00  0.00    -0.366 N 
HETATM   18  H   UNL     2     -40.378 -49.847   9.328  1.00  0.00     0.159 HD
HETATM   19  H   UNL     2     -39.923 -50.724  10.796  1.00  0.00     0.159 HD
ENDBRANCH   4  15
TORSDOF 2
ENDMDL
MODEL 2
REMARK VINA RESULT:      -5.1      6.452      8.422
REMARK  2 active torsions:
REMARK  status: ('A' for Active; 'I' for Inactive)
REMARK    1  A    between atoms: C_6  and  C_7 
REMARK       I    between atoms: C_7  and  N_9 
REMARK    2  A    between atoms: C_10  and  C_13 
ROOT
HETATM    1  C   UNL     2     -42.625 -55.686  15.765  1.00  0.00     0.177 C 
HETATM    2  N   UNL     2     -42.739 -54.631  14.767  1.00  0.00    -0.307 N 
HETATM    3  C   UNL     2     -41.715 -54.083  14.084  1.00  0.00     0.128 A 
HETATM    4  C   UNL     2     -42.219 -53.121  13.239  1.00  0.00     0.073 A 
HETATM    5  C   UNL     2     -43.598 -53.126  13.479  1.00  0.00     0.049 A 
HETATM    6  N   UNL     2     -43.884 -54.066  14.406  1.00  0.00    -0.302 N 
ATOM      7  HN  UNL     2     -44.810 -54.299  14.763  1.00  0.00     0.186 HD
ENDROOT
BRANCH   5   8
HETATM    8  C   UNL     2     -44.595 -52.179  12.846  1.00  0.00     0.066 C 
HETATM    9  C   UNL     2     -44.685 -50.902  13.716  1.00  0.00     0.014 C 
HETATM   10  C   UNL     2     -45.415 -51.208  15.028  1.00  0.00     0.031 C 
HETATM   11  C   UNL     2     -46.816 -51.717  14.699  1.00  0.00     0.269 C 
HETATM   12  N   UNL     2     -46.729 -52.956  13.912  1.00  0.00     0.084 N 
HETATM   13  C   UNL     2     -46.022 -52.738  12.639  1.00  0.00     0.280 C 
HETATM   14  H   UNL     2     -47.708 -53.257  13.687  1.00  0.00     0.315 HD
ENDBRANCH   5   8
BRANCH   4  15
HETATM   15  C   UNL     2     -41.456 -52.281  12.273  1.00  0.00     0.252 C 
HETATM   16  O   UNL     2     -41.047 -51.181  12.610  1.00  0.00    -0.268 OA
HETATM   17  N   UNL     2     -41.204 -52.708  11.013  1.00  0.00    -0.366 N 
HETATM   18  H   UNL     2     -41.517 -53.629  10.681  1.00  0.00     0.159 HD
HETATM   19  H   UNL     2     -40.667 -52.110  10.367  1.00  0.00     0.159 HD
ENDBRANCH   4  15
TORSDOF 2
ENDMDL
MODEL 3
REMARK VINA RESULT:      -4.9      2.445      4.399
REMARK  2 active torsions:
REMARK  status: ('A' for Active; 'I' for Inactive)
REMARK    1  A    between atoms: C_6  and  C_7 
REMARK       I    between atoms: C_7  and  N_9 
REMARK    2  A    between atoms: C_10  and  C_13 
ROOT
HETATM    1  C   UNL     2     -43.787 -48.032   7.506  1.00  0.00     0.177 C 
HETATM    2  N   UNL     2     -43.314 -47.506   8.780  1.00  0.00    -0.307 N 
HETATM    3  C   UNL     2     -43.025 -46.215   9.037  1.00  0.00     0.128 A 
HETATM    4  C   UNL     2     -42.608 -46.113  10.344  1.00  0.00     0.073 A 
HETATM    5  C   UNL     2     -42.654 -47.424  10.834  1.00  0.00     0.049 A 
HETATM    6  N   UNL     2     -43.100 -48.247   9.859  1.00  0.00    -0.302 N 
ATOM      7  HN  UNL     2     -43.246 -49.252   9.939  1.00  0.00     0.186 HD
ENDROOT
BRANCH   5   8
HETATM    8  C   UNL     2     -42.207 -47.853  12.215  1.00  0.00     0.066 C 
HETATM    9  C   UNL     2     -40.666 -47.985  12.218  1.00  0.00     0.014 C 
HETATM   10  C   UNL     2     -40.240 -49.219  11.413  1.00  0.00     0.031 C 
HETATM   11  C   UNL     2     -40.873 -50.455  12.046  1.00  0.00     0.269 C 
HETATM   12  N   UNL     2     -42.339 -50.349  12.002  1.00  0.00     0.084 N 
HETATM   13  C   UNL     2     -42.818 -49.172  12.744  1.00  0.00     0.280 C 
HETATM   14  H   UNL     2     -42.732 -51.202  12.467  1.00  0.00     0.315 HD
ENDBRANCH   5   8
BRANCH   4  15
HETATM   15  C   UNL     2     -42.217 -44.872  11.071  1.00  0.00     0.252 C 
HETATM   16  O   UNL     2     -41.274 -44.205  10.676  1.00  0.00    -0.268 OA
HETATM   17  N   UNL     2     -42.885 -44.462  12.175  1.00  0.00    -0.366 N 
HETATM   18  H   UNL     2     -43.691 -44.981  12.544  1.00  0.00     0.159 HD
HETATM   19  H   UNL     2     -42.597 -43.595  12.654  1.00  0.00     0.159 HD
ENDBRANCH   4  15
TORSDOF 2
ENDMDL
MODEL 4
REMARK VINA RESULT:      -4.9      4.209      5.991
REMARK  2 active torsions:
REMARK  status: ('A' for Active; 'I' for Inactive)
REMARK    1  A    between atoms: C_6  and  C_7 
REMARK       I    between atoms: C_7  and  N_9 
REMARK    2  A    between atoms: C_10  and  C_13 
ROOT
HETATM    1  C   UNL     2     -46.194 -52.425  12.466  1.00  0.00     0.177 C 
HETATM    2  N   UNL     2     -44.754 -52.434  12.688  1.00  0.00    -0.307 N 
HETATM    3  C   UNL     2     -43.986 -53.536  12.812  1.00  0.00     0.128 A 
HETATM    4  C   UNL     2     -42.685 -53.139  13.015  1.00  0.00     0.073 A 
HETATM    5  C   UNL     2     -42.736 -51.741  13.019  1.00  0.00     0.049 A 
HETATM    6  N   UNL     2     -44.010 -51.343  12.805  1.00  0.00    -0.302 N 
ATOM      7  HN  UNL     2     -44.339 -50.380  12.744  1.00  0.00     0.186 HD
ENDROOT
BRANCH   5   8
HETATM    8  C   UNL     2     -41.560 -50.827  13.289  1.00  0.00     0.066 C 
HETATM    9  C   UNL     2     -42.067 -49.366  13.324  1.00  0.00     0.014 C 
HETATM   10  C   UNL     2     -42.438 -48.901  11.911  1.00  0.00     0.031 C 
HETATM   11  C   UNL     2     -41.200 -49.005  11.024  1.00  0.00     0.269 C 
HETATM   12  N   UNL     2     -40.746 -50.401  10.954  1.00  0.00     0.084 N 
HETATM   13  C   UNL     2     -40.388 -50.920  12.284  1.00  0.00     0.280 C 
HETATM   14  H   UNL     2     -39.884 -50.424  10.359  1.00  0.00     0.315 HD
ENDBRANCH   5   8
BRANCH   4  15
HETATM   15  C   UNL     2     -41.490 -54.017  13.172  1.00  0.00     0.252 C 
HETATM   16  O   UNL     2     -41.076 -54.290  14.287  1.00  0.00    -0.268 OA
HETATM   17  N   UNL     2     -40.840 -54.523  12.098  1.00  0.00    -0.366 N 
HETATM   18  H   UNL     2     -41.152 -54.332  11.137  1.00  0.00     0.159 HD
HETATM   19  H   UNL     2     -40.020 -55.133  12.236  1.00  0.00     0.159 HD
ENDBRANCH   4  15
TORSDOF 2
ENDMDL
MODEL 5
REMARK VINA RESULT:      -4.8      2.228      4.614
REMARK  2 active torsions:
REMARK  status: ('A' for Active; 'I' for Inactive)
REMARK    1  A    between atoms: C_6  and  C_7 
REMARK       I    between atoms: C_7  and  N_9 
REMARK    2  A    between atoms: C_10  and  C_13 
ROOT
HETATM    1  C   UNL     2     -38.597 -44.609   8.904  1.00  0.00     0.177 C 
HETATM    2  N   UNL     2     -39.523 -44.962   9.972  1.00  0.00    -0.307 N 
HETATM    3  C   UNL     2     -39.993 -44.118  10.913  1.00  0.00     0.128 A 
HETATM    4  C   UNL     2     -40.836 -44.819  11.744  1.00  0.00     0.073 A 
HETATM    5  C   UNL     2     -40.820 -46.127  11.245  1.00  0.00     0.049 A 
HETATM    6  N   UNL     2     -40.019 -46.177  10.158  1.00  0.00    -0.302 N 
ATOM      7  HN  UNL     2     -39.831 -46.999   9.585  1.00  0.00     0.186 HD
ENDROOT
BRANCH   5   8
HETATM    8  C   UNL     2     -41.534 -47.306  11.871  1.00  0.00     0.066 C 
HETATM    9  C   UNL     2     -40.637 -47.890  12.988  1.00  0.00     0.014 C 
HETATM   10  C   UNL     2     -39.432 -48.612  12.375  1.00  0.00     0.031 C 
HETATM   11  C   UNL     2     -39.943 -49.733  11.474  1.00  0.00     0.269 C 
HETATM   12  N   UNL     2     -40.757 -49.173  10.385  1.00  0.00     0.084 N 
HETATM   13  C   UNL     2     -41.928 -48.448  10.905  1.00  0.00     0.280 C 
HETATM   14  H   UNL     2     -41.107 -49.974   9.807  1.00  0.00     0.315 HD
ENDBRANCH   5   8
BRANCH   4  15
HETATM   15  C   UNL     2     -41.606 -44.286  12.903  1.00  0.00     0.252 C 
HETATM   16  O   UNL     2     -41.093 -44.243  14.009  1.00  0.00    -0.268 OA
HETATM   17  N   UNL     2     -42.879 -43.845  12.761  1.00  0.00    -0.366 N 
HETATM   18  H   UNL     2     -43.355 -43.850  11.850  1.00  0.00     0.159 HD
HETATM   19  H   UNL     2     -43.387 -43.474  13.579  1.00  0.00     0.159 HD
ENDBRANCH   4  15
TORSDOF 2
ENDMDL
MODEL 6
REMARK VINA RESULT:      -4.8      5.649      7.805
REMARK  2 active torsions:
REMARK  status: ('A' for Active; 'I' for Inactive)
REMARK    1  A    between atoms: C_6  and  C_7 
REMARK       I    between atoms: C_7  and  N_9 
REMARK    2  A    between atoms: C_10  and  C_13 
ROOT
HETATM    1  C   UNL     2     -42.614 -48.681  15.225  1.00  0.00     0.177 C 
HETATM    2  N   UNL     2     -42.842 -49.888  14.440  1.00  0.00    -0.307 N 
HETATM    3  C   UNL     2     -41.886 -50.626  13.841  1.00  0.00     0.128 A 
HETATM    4  C   UNL     2     -42.490 -51.679  13.194  1.00  0.00     0.073 A 
HETATM    5  C   UNL     2     -43.858 -51.506  13.435  1.00  0.00     0.049 A 
HETATM    6  N   UNL     2     -44.037 -50.412  14.208  1.00  0.00    -0.302 N 
ATOM      7  HN  UNL     2     -44.929 -50.056  14.550  1.00  0.00     0.186 HD
ENDROOT
BRANCH   5   8
HETATM    8  C   UNL     2     -44.958 -52.372  12.862  1.00  0.00     0.066 C 
HETATM    9  C   UNL     2     -46.290 -51.586  12.926  1.00  0.00     0.014 C 
HETATM   10  C   UNL     2     -46.772 -51.481  14.377  1.00  0.00     0.031 C 
HETATM   11  C   UNL     2     -46.969 -52.890  14.928  1.00  0.00     0.269 C 
HETATM   12  N   UNL     2     -45.693 -53.621  14.910  1.00  0.00     0.084 N 
HETATM   13  C   UNL     2     -45.162 -53.746  13.543  1.00  0.00     0.280 C 
HETATM   14  H   UNL     2     -45.877 -54.588  15.271  1.00  0.00     0.315 HD
ENDBRANCH   5   8
BRANCH   4  15
HETATM   15  C   UNL     2     -41.820 -52.768  12.427  1.00  0.00     0.252 C 
HETATM   16  O   UNL     2     -41.711 -53.880  12.917  1.00  0.00    -0.268 OA
HETATM   17  N   UNL     2     -41.319 -52.552  11.188  1.00  0.00    -0.366 N 
HETATM   18  H   UNL     2     -41.393 -51.637  10.726  1.00  0.00     0.159 HD
HETATM   19  H   UNL     2     -40.867 -53.326  10.677  1.00  0.00     0.159 HD
ENDBRANCH   4  15
TORSDOF 2
ENDMDL
MODEL 7
REMARK VINA RESULT:      -4.8      2.814      4.463
REMARK  2 active torsions:
REMARK  status: ('A' for Active; 'I' for Inactive)
REMARK    1  A    between atoms: C_6  and  C_7 
REMARK       I    between atoms: C_7  and  N_9 
REMARK    2  A    between atoms: C_10  and  C_13 
ROOT
HETATM    1  C   UNL     2     -42.534 -52.810  12.725  1.00  0.00     0.177 C 
HETATM    2  N   UNL     2     -41.633 -51.737  12.326  1.00  0.00    -0.307 N 
HETATM    3  C   UNL     2     -40.294 -51.741  12.476  1.00  0.00     0.128 A 
HETATM    4  C   UNL     2     -39.797 -50.556  11.985  1.00  0.00     0.073 A 
HETATM    5  C   UNL     2     -40.926 -49.850  11.553  1.00  0.00     0.049 A 
HETATM    6  N   UNL     2     -42.028 -50.603  11.764  1.00  0.00    -0.302 N 
ATOM      7  HN  UNL     2     -42.987 -50.346  11.532  1.00  0.00     0.186 HD
ENDROOT
BRANCH   5   8
HETATM    8  C   UNL     2     -40.912 -48.441  11.001  1.00  0.00     0.066 C 
HETATM    9  C   UNL     2     -40.770 -47.449  12.181  1.00  0.00     0.014 C 
HETATM   10  C   UNL     2     -42.073 -47.400  12.988  1.00  0.00     0.031 C 
HETATM   11  C   UNL     2     -43.202 -46.954  12.062  1.00  0.00     0.269 C 
HETATM   12  N   UNL     2     -43.367 -47.921  10.967  1.00  0.00     0.084 N 
HETATM   13  C   UNL     2     -42.142 -48.032  10.157  1.00  0.00     0.280 C 
HETATM   14  H   UNL     2     -44.131 -47.567  10.344  1.00  0.00     0.315 HD
ENDBRANCH   5   8
BRANCH   4  15
HETATM   15  C   UNL     2     -38.368 -50.138  11.916  1.00  0.00     0.252 C 
HETATM   16  O   UNL     2     -37.783 -49.793  12.929  1.00  0.00    -0.268 OA
HETATM   17  N   UNL     2     -37.693 -50.127  10.742  1.00  0.00    -0.366 N 
HETATM   18  H   UNL     2     -38.135 -50.417   9.860  1.00  0.00     0.159 HD
HETATM   19  H   UNL     2     -36.702 -49.840  10.724  1.00  0.00     0.159 HD
ENDBRANCH   4  15
TORSDOF 2
ENDMDL
MODEL 8
REMARK VINA RESULT:      -4.7      4.773      7.170
REMARK  2 active torsions:
REMARK  status: ('A' for Active; 'I' for Inactive)
REMARK    1  A    between atoms: C_6  and  C_7 
REMARK       I    between atoms: C_7  and  N_9 
REMARK    2  A    between atoms: C_10  and  C_13 
ROOT
HETATM    1  C   UNL     2     -42.280 -48.609  11.510  1.00  0.00     0.177 C 
HETATM    2  N   UNL     2     -42.218 -49.951  12.074  1.00  0.00    -0.307 N 
HETATM    3  C   UNL     2     -41.195 -50.817  11.929  1.00  0.00     0.128 A 
HETATM    4  C   UNL     2     -41.507 -51.976  12.601  1.00  0.00     0.073 A 
HETATM    5  C   UNL     2     -42.780 -51.746  13.134  1.00  0.00     0.049 A 
HETATM    6  N   UNL     2     -43.180 -50.497  12.805  1.00  0.00    -0.302 N 
ATOM      7  HN  UNL     2     -44.060 -50.056  13.071  1.00  0.00     0.186 HD
ENDROOT
BRANCH   5   8
HETATM    8  C   UNL     2     -43.600 -52.762  13.899  1.00  0.00     0.066 C 
HETATM    9  C   UNL     2     -44.500 -53.526  12.898  1.00  0.00     0.014 C 
HETATM   10  C   UNL     2     -45.623 -52.612  12.395  1.00  0.00     0.031 C 
HETATM   11  C   UNL     2     -46.448 -52.149  13.592  1.00  0.00     0.269 C 
HETATM   12  N   UNL     2     -45.603 -51.384  14.521  1.00  0.00     0.084 N 
HETATM   13  C   UNL     2     -44.489 -52.199  15.033  1.00  0.00     0.280 C 
HETATM   14  H   UNL     2     -46.199 -51.108  15.337  1.00  0.00     0.315 HD
ENDBRANCH   5   8
BRANCH   4  15
HETATM   15  C   UNL     2     -40.658 -53.193  12.739  1.00  0.00     0.252 C 
HETATM   16  O   UNL     2     -39.615 -53.142  13.369  1.00  0.00    -0.268 OA
HETATM   17  N   UNL     2     -41.014 -54.370  12.171  1.00  0.00    -0.366 N 
HETATM   18  H   UNL     2     -41.887 -54.471  11.637  1.00  0.00     0.159 HD
HETATM   19  H   UNL     2     -40.412 -55.198  12.288  1.00  0.00     0.159 HD
ENDBRANCH   4  15
TORSDOF 2
ENDMDL
MODEL 9
REMARK VINA RESULT:      -4.5      5.685      7.518
REMARK  2 active torsions:
REMARK  status: ('A' for Active; 'I' for Inactive)
REMARK    1  A    between atoms: C_6  and  C_7 
REMARK       I    between atoms: C_7  and  N_9 
REMARK    2  A    between atoms: C_10  and  C_13 
ROOT
HETATM    1  C   UNL     2     -46.384 -52.202  12.105  1.00  0.00     0.177 C 
HETATM    2  N   UNL     2     -45.227 -52.763  12.791  1.00  0.00    -0.307 N 
HETATM    3  C   UNL     2     -45.266 -53.512  13.911  1.00  0.00     0.128 A 
HETATM    4  C   UNL     2     -43.978 -53.850  14.255  1.00  0.00     0.073 A 
HETATM    5  C   UNL     2     -43.180 -53.242  13.279  1.00  0.00     0.049 A 
HETATM    6  N   UNL     2     -43.973 -52.598  12.395  1.00  0.00    -0.302 N 
ATOM      7  HN  UNL     2     -43.663 -52.080  11.573  1.00  0.00     0.186 HD
ENDROOT
BRANCH   5   8
HETATM    8  C   UNL     2     -41.666 -53.253  13.263  1.00  0.00     0.066 C 
HETATM    9  C   UNL     2     -41.154 -52.203  14.277  1.00  0.00     0.014 C 
HETATM   10  C   UNL     2     -41.409 -50.788  13.747  1.00  0.00     0.031 C 
HETATM   11  C   UNL     2     -40.680 -50.629  12.415  1.00  0.00     0.269 C 
HETATM   12  N   UNL     2     -41.200 -51.596  11.437  1.00  0.00     0.084 N 
HETATM   13  C   UNL     2     -41.002 -52.982  11.893  1.00  0.00     0.280 C 
HETATM   14  H   UNL     2     -40.659 -51.470  10.549  1.00  0.00     0.315 HD
ENDBRANCH   5   8
BRANCH   4  15
HETATM   15  C   UNL     2     -43.545 -54.696  15.403  1.00  0.00     0.252 C 
HETATM   16  O   UNL     2     -43.360 -55.892  15.245  1.00  0.00    -0.268 OA
HETATM   17  N   UNL     2     -43.353 -54.168  16.635  1.00  0.00    -0.366 N 
HETATM   18  H   UNL     2     -43.485 -53.165  16.821  1.00  0.00     0.159 HD
HETATM   19  H   UNL     2     -43.046 -54.775  17.410  1.00  0.00     0.159 HD
ENDBRANCH   4  15
TORSDOF 2
ENDMDL
