MODEL 1
REMARK VINA RESULT:      -6.0      0.000      0.000
REMARK  5 active torsions:
REMARK  status: ('A' for Active; 'I' for Inactive)
REMARK    1  A    between atoms: C_2  and  O_3 
REMARK    2  A    between atoms: O_3  and  C_4 
REMARK    3  A    between atoms: C_4  and  C_5 
REMARK    4  A    between atoms: C_5  and  N_6 
REMARK    5  A    between atoms: C_7  and  N_19 
ROOT
HETATM    1  N   UNL     1     -41.865 -53.015  13.686  1.00  0.00    -0.172 N 
HETATM    2  C   UNL     1     -42.989 -53.411  14.401  1.00  0.00     0.685 A 
HETATM    3  N   UNL     1     -42.677 -54.364  15.264  1.00  0.00    -0.174 N 
ATOM      4  HN  UNL     1     -43.313 -54.876  15.875  1.00  0.00     0.186 HD
HETATM    5  C   UNL     1     -41.326 -54.516  15.162  1.00  0.00     0.160 A 
HETATM    6  N   UNL     1     -40.526 -55.391  15.872  1.00  0.00    -0.287 N 
HETATM    7  C   UNL     1     -41.044 -56.284  16.883  1.00  0.00     0.163 C 
HETATM    8  C   UNL     1     -39.159 -55.419  15.609  1.00  0.00     0.330 C 
HETATM    9  O   UNL     1     -38.365 -56.158  16.190  1.00  0.00    -0.246 OA
HETATM   10  N   UNL     1     -38.681 -54.549  14.650  1.00  0.00    -0.273 N 
HETATM   11  C   UNL     1     -39.397 -53.584  13.981  1.00  0.00     0.280 C 
HETATM   12  O   UNL     1     -38.850 -52.754  13.270  1.00  0.00    -0.265 OA
HETATM   13  C   UNL     1     -40.792 -53.659  14.241  1.00  0.00     0.164 A 
HETATM   14  H   UNL     1     -37.684 -54.555  14.505  1.00  0.00     0.173 HD
ENDROOT
BRANCH   2  15
HETATM   15  N   UNL     1     -44.220 -52.896  14.124  1.00  0.00    -0.217 N 
HETATM   16  C   UNL     1     -44.912 -53.415  12.938  1.00  0.00     0.141 C 
HETATM   17  C   UNL     1     -45.896 -52.346  12.449  1.00  0.00     0.021 C 
HETATM   18  C   UNL     1     -46.867 -51.927  13.553  1.00  0.00     0.007 C 
HETATM   19  C   UNL     1     -46.110 -51.518  14.827  1.00  0.00     0.000 C 
HETATM   20  C   UNL     1     -47.078 -51.171  15.953  1.00  0.00     0.011 C 
HETATM   21  C   UNL     1     -45.136 -52.634  15.246  1.00  0.00     0.145 C 
ENDBRANCH   2  15
BRANCH   1  22
HETATM   22  C   UNL     1     -41.825 -52.135  12.530  1.00  0.00     0.174 C 
BRANCH  22  23
HETATM   23  C   UNL     1     -41.714 -50.648  12.858  1.00  0.00     0.188 C 
BRANCH  23  24
HETATM   24  O   UNL     1     -43.008 -50.047  12.868  1.00  0.00    -0.390 OA
BRANCH  24  25
HETATM   25  C   UNL     1     -43.084 -48.989  13.820  1.00  0.00     0.163 C 
HETATM   26  C   UNL     1     -42.932 -49.580  15.205  1.00  0.00     0.033 C 
ENDBRANCH  24  25
ENDBRANCH  23  24
ENDBRANCH  22  23
ENDBRANCH   1  22
TORSDOF 5
ENDMDL
MODEL 2
REMARK VINA RESULT:      -6.0      2.905      5.767
REMARK  5 active torsions:
REMARK  status: ('A' for Active; 'I' for Inactive)
REMARK    1  A    between atoms: C_2  and  O_3 
REMARK    2  A    between atoms: O_3  and  C_4 
REMARK    3  A    between atoms: C_4  and  C_5 
REMARK    4  A    between atoms: C_5  and  N_6 
REMARK    5  A    between atoms: C_7  and  N_19 
ROOT
HETATM    1  N   UNL     1     -42.019 -51.484  12.645  1.00  0.00    -0.172 N 
HETATM    2  C   UNL     1     -42.635 -50.239  12.625  1.00  0.00     0.685 A 
HETATM    3  N   UNL     1     -43.914 -50.350  12.944  1.00  0.00    -0.174 N 
ATOM      4  HN  UNL     1     -44.615 -49.609  12.954  1.00  0.00     0.186 HD
HETATM    5  C   UNL     1     -44.096 -51.664  13.258  1.00  0.00     0.160 A 
HETATM    6  N   UNL     1     -45.268 -52.274  13.664  1.00  0.00    -0.287 N 
HETATM    7  C   UNL     1     -46.507 -51.552  13.842  1.00  0.00     0.163 C 
HETATM    8  C   UNL     1     -45.262 -53.643  13.916  1.00  0.00     0.330 C 
HETATM    9  O   UNL     1     -46.251 -54.275  14.287  1.00  0.00    -0.246 OA
HETATM   10  N   UNL     1     -44.066 -54.312  13.754  1.00  0.00    -0.273 N 
HETATM   11  C   UNL     1     -42.844 -53.757  13.455  1.00  0.00     0.280 C 
HETATM   12  O   UNL     1     -41.812 -54.411  13.492  1.00  0.00    -0.265 OA
HETATM   13  C   UNL     1     -42.934 -52.374  13.138  1.00  0.00     0.164 A 
HETATM   14  H   UNL     1     -44.073 -55.293  13.982  1.00  0.00     0.173 HD
ENDROOT
BRANCH   2  15
HETATM   15  N   UNL     1     -41.960 -49.122  12.233  1.00  0.00    -0.217 N 
HETATM   16  C   UNL     1     -42.614 -48.254  11.246  1.00  0.00     0.141 C 
HETATM   17  C   UNL     1     -41.528 -47.477  10.493  1.00  0.00     0.021 C 
HETATM   18  C   UNL     1     -40.630 -46.694  11.452  1.00  0.00     0.007 C 
HETATM   19  C   UNL     1     -40.071 -47.608  12.554  1.00  0.00     0.000 C 
HETATM   20  C   UNL     1     -39.235 -46.814  13.553  1.00  0.00     0.011 C 
HETATM   21  C   UNL     1     -41.217 -48.361  13.251  1.00  0.00     0.145 C 
ENDBRANCH   2  15
BRANCH   1  22
HETATM   22  C   UNL     1     -40.681 -51.808  12.178  1.00  0.00     0.174 C 
BRANCH  22  23
HETATM   23  C   UNL     1     -39.587 -51.699  13.237  1.00  0.00     0.188 C 
BRANCH  23  24
HETATM   24  O   UNL     1     -38.300 -51.726  12.621  1.00  0.00    -0.390 OA
BRANCH  24  25
HETATM   25  C   UNL     1     -37.664 -50.453  12.684  1.00  0.00     0.163 C 
HETATM   26  C   UNL     1     -37.450 -49.955  11.271  1.00  0.00     0.033 C 
ENDBRANCH  24  25
ENDBRANCH  23  24
ENDBRANCH  22  23
ENDBRANCH   1  22
TORSDOF 5
ENDMDL
MODEL 3
REMARK VINA RESULT:      -5.9      4.101      7.443
REMARK  5 active torsions:
REMARK  status: ('A' for Active; 'I' for Inactive)
REMARK    1  A    between atoms: C_2  and  O_3 
REMARK    2  A    between atoms: O_3  and  C_4 
REMARK    3  A    between atoms: C_4  and  C_5 
REMARK    4  A    between atoms: C_5  and  N_6 
REMARK    5  A    between atoms: C_7  and  N_19 
ROOT
HETATM    1  N   UNL     1     -41.258 -48.465  12.273  1.00  0.00    -0.172 N 
HETATM    2  C   UNL     1     -42.267 -49.415  12.370  1.00  0.00     0.685 A 
HETATM    3  N   UNL     1     -43.308 -49.062  11.634  1.00  0.00    -0.174 N 
ATOM      4  HN  UNL     1     -44.205 -49.541  11.562  1.00  0.00     0.186 HD
HETATM    5  C   UNL     1     -42.927 -47.922  10.991  1.00  0.00     0.160 A 
HETATM    6  N   UNL     1     -43.670 -47.174  10.097  1.00  0.00    -0.287 N 
HETATM    7  C   UNL     1     -45.008 -47.541   9.691  1.00  0.00     0.163 C 
HETATM    8  C   UNL     1     -43.114 -46.017   9.560  1.00  0.00     0.330 C 
HETATM    9  O   UNL     1     -43.694 -45.289   8.754  1.00  0.00    -0.246 OA
HETATM   10  N   UNL     1     -41.831 -45.691   9.949  1.00  0.00    -0.273 N 
HETATM   11  C   UNL     1     -40.997 -46.437  10.748  1.00  0.00     0.280 C 
HETATM   12  O   UNL     1     -39.821 -46.143  10.904  1.00  0.00    -0.265 OA
HETATM   13  C   UNL     1     -41.649 -47.562  11.320  1.00  0.00     0.164 A 
HETATM   14  H   UNL     1     -41.431 -44.874   9.517  1.00  0.00     0.173 HD
ENDROOT
BRANCH   2  15
HETATM   15  N   UNL     1     -42.150 -50.488  13.201  1.00  0.00    -0.217 N 
HETATM   16  C   UNL     1     -43.093 -50.572  14.324  1.00  0.00     0.141 C 
HETATM   17  C   UNL     1     -42.446 -51.409  15.434  1.00  0.00     0.021 C 
HETATM   18  C   UNL     1     -42.022 -52.788  14.925  1.00  0.00     0.007 C 
HETATM   19  C   UNL     1     -41.146 -52.664  13.667  1.00  0.00     0.000 C 
HETATM   20  C   UNL     1     -40.783 -54.040  13.116  1.00  0.00     0.011 C 
HETATM   21  C   UNL     1     -41.856 -51.803  12.609  1.00  0.00     0.145 C 
ENDBRANCH   2  15
BRANCH   1  22
HETATM   22  C   UNL     1     -40.042 -48.392  13.066  1.00  0.00     0.174 C 
BRANCH  22  23
HETATM   23  C   UNL     1     -38.804 -48.989  12.399  1.00  0.00     0.188 C 
BRANCH  23  24
HETATM   24  O   UNL     1     -38.429 -50.201  13.052  1.00  0.00    -0.390 OA
BRANCH  24  25
HETATM   25  C   UNL     1     -37.411 -50.889  12.330  1.00  0.00     0.163 C 
HETATM   26  C   UNL     1     -37.177 -50.160  11.024  1.00  0.00     0.033 C 
ENDBRANCH  24  25
ENDBRANCH  23  24
ENDBRANCH  22  23
ENDBRANCH   1  22
TORSDOF 5
ENDMDL
MODEL 4
REMARK VINA RESULT:      -5.8      2.586      4.346
REMARK  5 active torsions:
REMARK  status: ('A' for Active; 'I' for Inactive)
REMARK    1  A    between atoms: C_2  and  O_3 
REMARK    2  A    between atoms: O_3  and  C_4 
REMARK    3  A    between atoms: C_4  and  C_5 
REMARK    4  A    between atoms: C_5  and  N_6 
REMARK    5  A    between atoms: C_7  and  N_19 
ROOT
HETATM    1  N   UNL     1     -41.650 -51.844  14.390  1.00  0.00    -0.172 N 
HETATM    2  C   UNL     1     -42.554 -50.803  14.566  1.00  0.00     0.685 A 
HETATM    3  N   UNL     1     -41.915 -49.664  14.775  1.00  0.00    -0.174 N 
ATOM      4  HN  UNL     1     -42.325 -48.756  14.989  1.00  0.00     0.186 HD
HETATM    5  C   UNL     1     -40.591 -49.962  14.643  1.00  0.00     0.160 A 
HETATM    6  N   UNL     1     -39.521 -49.096  14.762  1.00  0.00    -0.287 N 
HETATM    7  C   UNL     1     -39.680 -47.686  15.031  1.00  0.00     0.163 C 
HETATM    8  C   UNL     1     -38.230 -49.597  14.617  1.00  0.00     0.330 C 
HETATM    9  O   UNL     1     -37.215 -48.905  14.701  1.00  0.00    -0.246 OA
HETATM   10  N   UNL     1     -38.099 -50.943  14.347  1.00  0.00    -0.273 N 
HETATM   11  C   UNL     1     -39.115 -51.840  14.113  1.00  0.00     0.280 C 
HETATM   12  O   UNL     1     -38.894 -52.977  13.721  1.00  0.00    -0.265 OA
HETATM   13  C   UNL     1     -40.401 -51.284  14.349  1.00  0.00     0.164 A 
HETATM   14  H   UNL     1     -37.160 -51.277  14.203  1.00  0.00     0.173 HD
ENDROOT
BRANCH   2  15
HETATM   15  N   UNL     1     -43.898 -51.031  14.592  1.00  0.00    -0.217 N 
HETATM   16  C   UNL     1     -44.625 -50.617  15.799  1.00  0.00     0.141 C 
HETATM   17  C   UNL     1     -45.888 -51.476  15.918  1.00  0.00     0.021 C 
HETATM   18  C   UNL     1     -46.751 -51.386  14.658  1.00  0.00     0.007 C 
HETATM   19  C   UNL     1     -45.923 -51.694  13.401  1.00  0.00     0.000 C 
HETATM   20  C   UNL     1     -46.764 -51.532  12.138  1.00  0.00     0.011 C 
HETATM   21  C   UNL     1     -44.669 -50.803  13.359  1.00  0.00     0.145 C 
ENDBRANCH   2  15
BRANCH   1  22
HETATM   22  C   UNL     1     -41.949 -53.264  14.323  1.00  0.00     0.174 C 
BRANCH  22  23
HETATM   23  C   UNL     1     -42.254 -53.790  12.922  1.00  0.00     0.188 C 
BRANCH  23  24
HETATM   24  O   UNL     1     -43.612 -54.225  12.844  1.00  0.00    -0.390 OA
BRANCH  24  25
HETATM   25  C   UNL     1     -44.091 -54.670  14.110  1.00  0.00     0.163 C 
HETATM   26  C   UNL     1     -45.478 -55.244  13.920  1.00  0.00     0.033 C 
ENDBRANCH  24  25
ENDBRANCH  23  24
ENDBRANCH  22  23
ENDBRANCH   1  22
TORSDOF 5
ENDMDL
MODEL 5
REMARK VINA RESULT:      -5.7      1.809      2.482
REMARK  5 active torsions:
REMARK  status: ('A' for Active; 'I' for Inactive)
REMARK    1  A    between atoms: C_2  and  O_3 
REMARK    2  A    between atoms: O_3  and  C_4 
REMARK    3  A    between atoms: C_4  and  C_5 
REMARK    4  A    between atoms: C_5  and  N_6 
REMARK    5  A    between atoms: C_7  and  N_19 
ROOT
HETATM    1  N   UNL     1     -42.320 -53.387  14.660  1.00  0.00    -0.172 N 
HETATM    2  C   UNL     1     -42.868 -53.439  15.936  1.00  0.00     0.685 A 
HETATM    3  N   UNL     1     -42.079 -54.117  16.752  1.00  0.00    -0.174 N 
ATOM      4  HN  UNL     1     -42.259 -54.359  17.727  1.00  0.00     0.186 HD
HETATM    5  C   UNL     1     -40.974 -54.426  16.015  1.00  0.00     0.160 A 
HETATM    6  N   UNL     1     -39.857 -55.125  16.431  1.00  0.00    -0.287 N 
HETATM    7  C   UNL     1     -39.699 -55.620  17.779  1.00  0.00     0.163 C 
HETATM    8  C   UNL     1     -38.834 -55.364  15.518  1.00  0.00     0.330 C 
HETATM    9  O   UNL     1     -37.799 -55.971  15.794  1.00  0.00    -0.246 OA
HETATM   10  N   UNL     1     -38.997 -54.871  14.240  1.00  0.00    -0.273 N 
HETATM   11  C   UNL     1     -40.028 -54.083  13.785  1.00  0.00     0.280 C 
HETATM   12  O   UNL     1     -40.000 -53.560  12.680  1.00  0.00    -0.265 OA
HETATM   13  C   UNL     1     -41.069 -53.939  14.741  1.00  0.00     0.164 A 
HETATM   14  H   UNL     1     -38.227 -55.018  13.607  1.00  0.00     0.173 HD
ENDROOT
BRANCH   2  15
HETATM   15  N   UNL     1     -44.096 -52.911  16.199  1.00  0.00    -0.217 N 
HETATM   16  C   UNL     1     -45.195 -53.855  16.435  1.00  0.00     0.141 C 
HETATM   17  C   UNL     1     -46.514 -53.157  16.085  1.00  0.00     0.021 C 
HETATM   18  C   UNL     1     -46.687 -51.855  16.869  1.00  0.00     0.007 C 
HETATM   19  C   UNL     1     -45.457 -50.947  16.707  1.00  0.00     0.000 C 
HETATM   20  C   UNL     1     -45.595 -49.682  17.547  1.00  0.00     0.011 C 
HETATM   21  C   UNL     1     -44.176 -51.722  17.064  1.00  0.00     0.145 C 
ENDBRANCH   2  15
BRANCH   1  22
HETATM   22  C   UNL     1     -42.959 -52.899  13.449  1.00  0.00     0.174 C 
BRANCH  22  23
HETATM   23  C   UNL     1     -43.847 -53.917  12.738  1.00  0.00     0.188 C 
BRANCH  23  24
HETATM   24  O   UNL     1     -44.998 -53.271  12.194  1.00  0.00    -0.390 OA
BRANCH  24  25
HETATM   25  C   UNL     1     -45.337 -52.100  12.932  1.00  0.00     0.163 C 
HETATM   26  C   UNL     1     -46.671 -51.590  12.432  1.00  0.00     0.033 C 
ENDBRANCH  24  25
ENDBRANCH  23  24
ENDBRANCH  22  23
ENDBRANCH   1  22
TORSDOF 5
ENDMDL
MODEL 6
REMARK VINA RESULT:      -5.6      4.303      7.366
REMARK  5 active torsions:
REMARK  status: ('A' for Active; 'I' for Inactive)
REMARK    1  A    between atoms: C_2  and  O_3 
REMARK    2  A    between atoms: O_3  and  C_4 
REMARK    3  A    between atoms: C_4  and  C_5 
REMARK    4  A    between atoms: C_5  and  N_6 
REMARK    5  A    between atoms: C_7  and  N_19 
ROOT
HETATM    1  N   UNL     1     -41.177 -48.584  12.210  1.00  0.00    -0.172 N 
HETATM    2  C   UNL     1     -42.222 -49.491  12.339  1.00  0.00     0.685 A 
HETATM    3  N   UNL     1     -43.271 -49.091  11.641  1.00  0.00    -0.174 N 
ATOM      4  HN  UNL     1     -44.190 -49.532  11.600  1.00  0.00     0.186 HD
HETATM    5  C   UNL     1     -42.865 -47.966  10.988  1.00  0.00     0.160 A 
HETATM    6  N   UNL     1     -43.607 -47.184  10.123  1.00  0.00    -0.287 N 
HETATM    7  C   UNL     1     -44.972 -47.492   9.763  1.00  0.00     0.163 C 
HETATM    8  C   UNL     1     -43.021 -46.049   9.569  1.00  0.00     0.330 C 
HETATM    9  O   UNL     1     -43.598 -45.294   8.786  1.00  0.00    -0.246 OA
HETATM   10  N   UNL     1     -41.713 -45.780   9.914  1.00  0.00    -0.273 N 
HETATM   11  C   UNL     1     -40.884 -46.563  10.682  1.00  0.00     0.280 C 
HETATM   12  O   UNL     1     -39.691 -46.320  10.797  1.00  0.00    -0.265 OA
HETATM   13  C   UNL     1     -41.563 -47.662  11.273  1.00  0.00     0.164 A 
HETATM   14  H   UNL     1     -41.294 -44.979   9.470  1.00  0.00     0.173 HD
ENDROOT
BRANCH   2  15
HETATM   15  N   UNL     1     -42.121 -50.572  13.164  1.00  0.00    -0.217 N 
HETATM   16  C   UNL     1     -43.003 -50.603  14.338  1.00  0.00     0.141 C 
HETATM   17  C   UNL     1     -42.345 -51.479  15.410  1.00  0.00     0.021 C 
HETATM   18  C   UNL     1     -42.032 -52.879  14.879  1.00  0.00     0.007 C 
HETATM   19  C   UNL     1     -41.223 -52.804  13.574  1.00  0.00     0.000 C 
HETATM   20  C   UNL     1     -40.974 -54.197  13.004  1.00  0.00     0.011 C 
HETATM   21  C   UNL     1     -41.939 -51.900  12.556  1.00  0.00     0.145 C 
ENDBRANCH   2  15
BRANCH   1  22
HETATM   22  C   UNL     1     -39.932 -48.566  12.959  1.00  0.00     0.174 C 
BRANCH  22  23
HETATM   23  C   UNL     1     -39.928 -47.645  14.177  1.00  0.00     0.188 C 
BRANCH  23  24
HETATM   24  O   UNL     1     -38.821 -46.747  14.112  1.00  0.00    -0.390 OA
BRANCH  24  25
HETATM   25  C   UNL     1     -39.092 -45.533  14.807  1.00  0.00     0.163 C 
HETATM   26  C   UNL     1     -39.805 -44.591  13.861  1.00  0.00     0.033 C 
ENDBRANCH  24  25
ENDBRANCH  23  24
ENDBRANCH  22  23
ENDBRANCH   1  22
TORSDOF 5
ENDMDL
MODEL 7
REMARK VINA RESULT:      -5.3      2.723      6.057
REMARK  5 active torsions:
REMARK  status: ('A' for Active; 'I' for Inactive)
REMARK    1  A    between atoms: C_2  and  O_3 
REMARK    2  A    between atoms: O_3  and  C_4 
REMARK    3  A    between atoms: C_4  and  C_5 
REMARK    4  A    between atoms: C_5  and  N_6 
REMARK    5  A    between atoms: C_7  and  N_19 
ROOT
HETATM    1  N   UNL     1     -40.261 -53.011  14.319  1.00  0.00    -0.172 N 
HETATM    2  C   UNL     1     -40.488 -53.678  15.518  1.00  0.00     0.685 A 
HETATM    3  N   UNL     1     -41.753 -54.056  15.604  1.00  0.00    -0.174 N 
ATOM      4  HN  UNL     1     -42.208 -54.512  16.395  1.00  0.00     0.186 HD
HETATM    5  C   UNL     1     -42.318 -53.709  14.414  1.00  0.00     0.160 A 
HETATM    6  N   UNL     1     -43.627 -53.906  14.017  1.00  0.00    -0.287 N 
HETATM    7  C   UNL     1     -44.607 -54.564  14.851  1.00  0.00     0.163 C 
HETATM    8  C   UNL     1     -44.026 -53.456  12.762  1.00  0.00     0.330 C 
HETATM    9  O   UNL     1     -45.167 -53.589  12.318  1.00  0.00    -0.246 OA
HETATM   10  N   UNL     1     -43.072 -52.842  11.977  1.00  0.00    -0.273 N 
HETATM   11  C   UNL     1     -41.734 -52.704  12.260  1.00  0.00     0.280 C 
HETATM   12  O   UNL     1     -40.938 -52.291  11.429  1.00  0.00    -0.265 OA
HETATM   13  C   UNL     1     -41.410 -53.116  13.581  1.00  0.00     0.164 A 
HETATM   14  H   UNL     1     -43.370 -52.562  11.056  1.00  0.00     0.173 HD
ENDROOT
BRANCH   2  15
HETATM   15  N   UNL     1     -39.507 -53.801  16.455  1.00  0.00    -0.217 N 
HETATM   16  C   UNL     1     -39.482 -52.806  17.535  1.00  0.00     0.141 C 
HETATM   17  C   UNL     1     -38.049 -52.711  18.069  1.00  0.00     0.021 C 
HETATM   18  C   UNL     1     -37.525 -54.076  18.522  1.00  0.00     0.007 C 
HETATM   19  C   UNL     1     -37.692 -55.125  17.411  1.00  0.00     0.000 C 
HETATM   20  C   UNL     1     -37.239 -56.502  17.886  1.00  0.00     0.011 C 
HETATM   21  C   UNL     1     -39.149 -55.151  16.920  1.00  0.00     0.145 C 
ENDBRANCH   2  15
BRANCH   1  22
HETATM   22  C   UNL     1     -39.063 -52.286  13.932  1.00  0.00     0.174 C 
BRANCH  22  23
HETATM   23  C   UNL     1     -39.123 -50.778  14.162  1.00  0.00     0.188 C 
BRANCH  23  24
HETATM   24  O   UNL     1     -37.941 -50.155  13.660  1.00  0.00    -0.390 OA
BRANCH  24  25
HETATM   25  C   UNL     1     -37.408 -50.869  12.547  1.00  0.00     0.163 C 
HETATM   26  C   UNL     1     -37.465 -49.969  11.332  1.00  0.00     0.033 C 
ENDBRANCH  24  25
ENDBRANCH  23  24
ENDBRANCH  22  23
ENDBRANCH   1  22
TORSDOF 5
ENDMDL
MODEL 8
REMARK VINA RESULT:      -5.2      2.481      4.452
REMARK  5 active torsions:
REMARK  status: ('A' for Active; 'I' for Inactive)
REMARK    1  A    between atoms: C_2  and  O_3 
REMARK    2  A    between atoms: O_3  and  C_4 
REMARK    3  A    between atoms: C_4  and  C_5 
REMARK    4  A    between atoms: C_5  and  N_6 
REMARK    5  A    between atoms: C_7  and  N_19 
ROOT
HETATM    1  N   UNL     1     -41.820 -51.864  13.843  1.00  0.00    -0.172 N 
HETATM    2  C   UNL     1     -42.787 -50.928  13.495  1.00  0.00     0.685 A 
HETATM    3  N   UNL     1     -42.229 -49.881  12.910  1.00  0.00    -0.174 N 
ATOM      4  HN  UNL     1     -42.692 -49.025  12.605  1.00  0.00     0.186 HD
HETATM    5  C   UNL     1     -40.906 -50.189  12.802  1.00  0.00     0.160 A 
HETATM    6  N   UNL     1     -39.906 -49.411  12.248  1.00  0.00    -0.287 N 
HETATM    7  C   UNL     1     -40.158 -48.116  11.659  1.00  0.00     0.163 C 
HETATM    8  C   UNL     1     -38.599 -49.890  12.252  1.00  0.00     0.330 C 
HETATM    9  O   UNL     1     -37.644 -49.274  11.779  1.00  0.00    -0.246 OA
HETATM   10  N   UNL     1     -38.382 -51.134  12.807  1.00  0.00    -0.273 N 
HETATM   11  C   UNL     1     -39.336 -52.004  13.280  1.00  0.00     0.280 C 
HETATM   12  O   UNL     1     -39.060 -53.150  13.602  1.00  0.00    -0.265 OA
HETATM   13  C   UNL     1     -40.634 -51.427  13.315  1.00  0.00     0.164 A 
HETATM   14  H   UNL     1     -37.438 -51.481  12.762  1.00  0.00     0.173 HD
ENDROOT
BRANCH   2  15
HETATM   15  N   UNL     1     -44.096 -51.108  13.829  1.00  0.00    -0.217 N 
HETATM   16  C   UNL     1     -44.914 -51.919  12.919  1.00  0.00     0.141 C 
HETATM   17  C   UNL     1     -46.379 -51.498  13.083  1.00  0.00     0.021 C 
HETATM   18  C   UNL     1     -46.837 -51.613  14.538  1.00  0.00     0.007 C 
HETATM   19  C   UNL     1     -45.879 -50.863  15.478  1.00  0.00     0.000 C 
HETATM   20  C   UNL     1     -46.293 -51.039  16.936  1.00  0.00     0.011 C 
HETATM   21  C   UNL     1     -44.432 -51.331  15.244  1.00  0.00     0.145 C 
ENDBRANCH   2  15
BRANCH   1  22
HETATM   22  C   UNL     1     -42.002 -53.052  14.660  1.00  0.00     0.174 C 
BRANCH  22  23
HETATM   23  C   UNL     1     -42.330 -54.323  13.881  1.00  0.00     0.188 C 
BRANCH  23  24
HETATM   24  O   UNL     1     -42.992 -55.263  14.728  1.00  0.00    -0.390 OA
BRANCH  24  25
HETATM   25  C   UNL     1     -44.307 -54.826  15.064  1.00  0.00     0.163 C 
HETATM   26  C   UNL     1     -45.235 -55.186  13.924  1.00  0.00     0.033 C 
ENDBRANCH  24  25
ENDBRANCH  23  24
ENDBRANCH  22  23
ENDBRANCH   1  22
TORSDOF 5
ENDMDL
MODEL 9
REMARK VINA RESULT:      -5.2      3.539      6.672
REMARK  5 active torsions:
REMARK  status: ('A' for Active; 'I' for Inactive)
REMARK    1  A    between atoms: C_2  and  O_3 
REMARK    2  A    between atoms: O_3  and  C_4 
REMARK    3  A    between atoms: C_4  and  C_5 
REMARK    4  A    between atoms: C_5  and  N_6 
REMARK    5  A    between atoms: C_7  and  N_19 
ROOT
HETATM    1  N   UNL     1     -40.674 -49.375  13.161  1.00  0.00    -0.172 N 
HETATM    2  C   UNL     1     -41.458 -50.308  12.493  1.00  0.00     0.685 A 
HETATM    3  N   UNL     1     -42.063 -49.748  11.459  1.00  0.00    -0.174 N 
ATOM      4  HN  UNL     1     -42.739 -50.182  10.830  1.00  0.00     0.186 HD
HETATM    5  C   UNL     1     -41.592 -48.470  11.412  1.00  0.00     0.160 A 
HETATM    6  N   UNL     1     -41.922 -47.488  10.497  1.00  0.00    -0.287 N 
HETATM    7  C   UNL     1     -42.837 -47.714   9.401  1.00  0.00     0.163 C 
HETATM    8  C   UNL     1     -41.351 -46.226  10.628  1.00  0.00     0.330 C 
HETATM    9  O   UNL     1     -41.578 -45.289   9.862  1.00  0.00    -0.246 OA
HETATM   10  N   UNL     1     -40.470 -46.034  11.672  1.00  0.00    -0.273 N 
HETATM   11  C   UNL     1     -40.017 -46.987  12.554  1.00  0.00     0.280 C 
HETATM   12  O   UNL     1     -39.112 -46.756  13.343  1.00  0.00    -0.265 OA
HETATM   13  C   UNL     1     -40.692 -48.229  12.412  1.00  0.00     0.164 A 
HETATM   14  H   UNL     1     -40.035 -45.127  11.724  1.00  0.00     0.173 HD
ENDROOT
BRANCH   2  15
HETATM   15  N   UNL     1     -41.596 -51.580  12.962  1.00  0.00    -0.217 N 
HETATM   16  C   UNL     1     -42.884 -52.245  12.727  1.00  0.00     0.141 C 
HETATM   17  C   UNL     1     -43.074 -53.319  13.805  1.00  0.00     0.021 C 
HETATM   18  C   UNL     1     -41.906 -54.305  13.830  1.00  0.00     0.007 C 
HETATM   19  C   UNL     1     -40.563 -53.565  13.940  1.00  0.00     0.000 C 
HETATM   20  C   UNL     1     -39.393 -54.542  13.891  1.00  0.00     0.011 C 
HETATM   21  C   UNL     1     -40.452 -52.499  12.836  1.00  0.00     0.145 C 
ENDBRANCH   2  15
BRANCH   1  22
HETATM   22  C   UNL     1     -40.004 -49.546  14.440  1.00  0.00     0.174 C 
BRANCH  22  23
HETATM   23  C   UNL     1     -40.892 -49.330  15.663  1.00  0.00     0.188 C 
BRANCH  23  24
HETATM   24  O   UNL     1     -41.105 -47.935  15.878  1.00  0.00    -0.390 OA
BRANCH  24  25
HETATM   25  C   UNL     1     -42.470 -47.579  15.678  1.00  0.00     0.163 C 
HETATM   26  C   UNL     1     -43.324 -48.803  15.927  1.00  0.00     0.033 C 
ENDBRANCH  24  25
ENDBRANCH  23  24
ENDBRANCH  22  23
ENDBRANCH   1  22
TORSDOF 5
ENDMDL
