MODEL 1
REMARK VINA RESULT:      -7.0      0.000      0.000
REMARK  4 active torsions:
REMARK  status: ('A' for Active; 'I' for Inactive)
REMARK    1  A    between atoms: N_6  and  C_7 
REMARK    2  A    between atoms: C_7  and  C_8 
REMARK    3  A    between atoms: C_8  and  N_9 
REMARK       I    between atoms: N_9  and  C_10 
REMARK       I    between atoms: C_10  and  N_12 
REMARK    4  A    between atoms: N_12  and  C_13 
ROOT
HETATM    1  N   UNL     1     -41.814 -49.808  11.303  1.00  0.00    -0.341 N 
HETATM    2  C   UNL     1     -40.999 -48.749  11.072  1.00  0.00     0.321 C 
HETATM    3  O   UNL     1     -39.886 -48.623  11.578  1.00  0.00    -0.247 OA
HETATM    4  N   UNL     1     -41.461 -47.791  10.215  1.00  0.00    -0.293 N 
HETATM    5  H   UNL     1     -42.702 -49.821  10.812  1.00  0.00     0.164 HD
HETATM    6  H   UNL     1     -40.811 -47.035  10.054  1.00  0.00     0.172 HD
ENDROOT
BRANCH   1   7
HETATM    7  C   UNL     1     -41.487 -50.921  12.160  1.00  0.00     0.154 C 
BRANCH   7   8
HETATM    8  C   UNL     1     -42.180 -50.841  13.533  1.00  0.00     0.292 C 
BRANCH   8   9
HETATM    9  N   UNL     1     -43.457 -51.581  13.581  1.00  0.00     0.090 N 
HETATM   10  C   UNL     1     -43.463 -52.741  12.678  1.00  0.00     0.272 C 
HETATM   11  C   UNL     1     -44.767 -53.532  12.781  1.00  0.00     0.031 C 
HETATM   12  C   UNL     1     -45.980 -52.641  12.549  1.00  0.00     0.007 C 
HETATM   13  C   UNL     1     -45.939 -51.394  13.441  1.00  0.00     0.010 C 
HETATM   14  C   UNL     1     -46.226 -51.738  14.907  1.00  0.00     0.011 C 
HETATM   15  C   UNL     1     -44.583 -50.681  13.285  1.00  0.00     0.276 C 
ENDBRANCH   8   9
ENDBRANCH   7   8
ENDBRANCH   1   7
BRANCH   4  16
HETATM   16  C   UNL     1     -42.690 -47.739   9.588  1.00  0.00     0.132 A 
HETATM   17  C   UNL     1     -43.902 -47.374  10.221  1.00  0.00     0.084 A 
HETATM   18  C   UNL     1     -44.849 -47.474   9.231  1.00  0.00     0.076 A 
HETATM   19  C   UNL     1     -46.302 -47.260   9.155  1.00  0.00     0.079 C 
HETATM   20  O   UNL     1     -44.250 -47.864   8.079  1.00  0.00    -0.241 OA
HETATM   21  N   UNL     1     -42.902 -48.028   8.300  1.00  0.00    -0.245 N 
ATOM     22  HN  UNL     1     -42.202 -48.313   7.615  1.00  0.00     0.196 HD
ENDBRANCH   4  16
TORSDOF 4
ENDMDL
MODEL 2
REMARK VINA RESULT:      -6.5      1.267      1.742
REMARK  4 active torsions:
REMARK  status: ('A' for Active; 'I' for Inactive)
REMARK    1  A    between atoms: N_6  and  C_7 
REMARK    2  A    between atoms: C_7  and  C_8 
REMARK    3  A    between atoms: C_8  and  N_9 
REMARK       I    between atoms: N_9  and  C_10 
REMARK       I    between atoms: C_10  and  N_12 
REMARK    4  A    between atoms: N_12  and  C_13 
ROOT
HETATM    1  N   UNL     1     -41.911 -49.754  11.378  1.00  0.00    -0.341 N 
HETATM    2  C   UNL     1     -41.070 -48.732  11.083  1.00  0.00     0.321 C 
HETATM    3  O   UNL     1     -39.947 -48.611  11.569  1.00  0.00    -0.247 OA
HETATM    4  N   UNL     1     -41.517 -47.807  10.182  1.00  0.00    -0.293 N 
HETATM    5  H   UNL     1     -42.805 -49.767  10.898  1.00  0.00     0.164 HD
HETATM    6  H   UNL     1     -40.848 -47.079   9.974  1.00  0.00     0.172 HD
ENDROOT
BRANCH   1   7
HETATM    7  C   UNL     1     -41.603 -50.829  12.289  1.00  0.00     0.154 C 
BRANCH   7   8
HETATM    8  C   UNL     1     -42.673 -51.012  13.381  1.00  0.00     0.292 C 
BRANCH   8   9
HETATM    9  N   UNL     1     -43.066 -52.423  13.576  1.00  0.00     0.090 N 
HETATM   10  C   UNL     1     -44.099 -52.851  12.621  1.00  0.00     0.272 C 
HETATM   11  C   UNL     1     -44.453 -54.328  12.794  1.00  0.00     0.031 C 
HETATM   12  C   UNL     1     -44.860 -54.639  14.229  1.00  0.00     0.007 C 
HETATM   13  C   UNL     1     -43.817 -54.129  15.232  1.00  0.00     0.010 C 
HETATM   14  C   UNL     1     -42.541 -54.979  15.201  1.00  0.00     0.011 C 
HETATM   15  C   UNL     1     -43.511 -52.644  14.962  1.00  0.00     0.276 C 
ENDBRANCH   8   9
ENDBRANCH   7   8
ENDBRANCH   1   7
BRANCH   4  16
HETATM   16  C   UNL     1     -42.751 -47.753   9.568  1.00  0.00     0.132 A 
HETATM   17  C   UNL     1     -43.938 -47.288  10.182  1.00  0.00     0.084 A 
HETATM   18  C   UNL     1     -44.902 -47.426   9.215  1.00  0.00     0.076 A 
HETATM   19  C   UNL     1     -46.346 -47.158   9.139  1.00  0.00     0.079 C 
HETATM   20  O   UNL     1     -44.337 -47.932   8.092  1.00  0.00    -0.241 OA
HETATM   21  N   UNL     1     -42.994 -48.135   8.309  1.00  0.00    -0.245 N 
ATOM     22  HN  UNL     1     -42.317 -48.504   7.641  1.00  0.00     0.196 HD
ENDBRANCH   4  16
TORSDOF 4
ENDMDL
MODEL 3
REMARK VINA RESULT:      -6.5      2.381      3.125
REMARK  4 active torsions:
REMARK  status: ('A' for Active; 'I' for Inactive)
REMARK    1  A    between atoms: N_6  and  C_7 
REMARK    2  A    between atoms: C_7  and  C_8 
REMARK    3  A    between atoms: C_8  and  N_9 
REMARK       I    between atoms: N_9  and  C_10 
REMARK       I    between atoms: C_10  and  N_12 
REMARK    4  A    between atoms: N_12  and  C_13 
ROOT
HETATM    1  N   UNL     1     -41.265 -49.109  10.741  1.00  0.00    -0.341 N 
HETATM    2  C   UNL     1     -41.006 -47.778  10.706  1.00  0.00     0.321 C 
HETATM    3  O   UNL     1     -40.042 -47.256  11.265  1.00  0.00    -0.247 OA
HETATM    4  N   UNL     1     -41.873 -47.000   9.993  1.00  0.00    -0.293 N 
HETATM    5  H   UNL     1     -42.075 -49.433  10.223  1.00  0.00     0.164 HD
HETATM    6  H   UNL     1     -41.627 -46.020   9.975  1.00  0.00     0.172 HD
ENDROOT
BRANCH   1   7
HETATM    7  C   UNL     1     -40.450 -50.082  11.426  1.00  0.00     0.154 C 
BRANCH   7   8
HETATM    8  C   UNL     1     -40.760 -50.168  12.932  1.00  0.00     0.292 C 
BRANCH   8   9
HETATM    9  N   UNL     1     -40.725 -51.549  13.453  1.00  0.00     0.090 N 
HETATM   10  C   UNL     1     -39.488 -51.833  14.195  1.00  0.00     0.272 C 
HETATM   11  C   UNL     1     -39.490 -53.246  14.780  1.00  0.00     0.031 C 
HETATM   12  C   UNL     1     -39.746 -54.294  13.705  1.00  0.00     0.007 C 
HETATM   13  C   UNL     1     -40.997 -53.961  12.882  1.00  0.00     0.010 C 
HETATM   14  C   UNL     1     -42.281 -54.190  13.688  1.00  0.00     0.011 C 
HETATM   15  C   UNL     1     -40.912 -52.516  12.358  1.00  0.00     0.276 C 
ENDBRANCH   8   9
ENDBRANCH   7   8
ENDBRANCH   1   7
BRANCH   4  16
HETATM   16  C   UNL     1     -43.023 -47.395   9.340  1.00  0.00     0.132 A 
HETATM   17  C   UNL     1     -44.325 -47.336   9.892  1.00  0.00     0.084 A 
HETATM   18  C   UNL     1     -45.139 -47.836   8.906  1.00  0.00     0.076 A 
HETATM   19  C   UNL     1     -46.583 -48.079   8.772  1.00  0.00     0.079 C 
HETATM   20  O   UNL     1     -44.383 -48.167   7.830  1.00  0.00    -0.241 OA
HETATM   21  N   UNL     1     -43.063 -47.891   8.099  1.00  0.00    -0.245 N 
ATOM     22  HN  UNL     1     -42.270 -48.036   7.473  1.00  0.00     0.196 HD
ENDBRANCH   4  16
TORSDOF 4
ENDMDL
MODEL 4
REMARK VINA RESULT:      -6.4      3.817      5.367
REMARK  4 active torsions:
REMARK  status: ('A' for Active; 'I' for Inactive)
REMARK    1  A    between atoms: N_6  and  C_7 
REMARK    2  A    between atoms: C_7  and  C_8 
REMARK    3  A    between atoms: C_8  and  N_9 
REMARK       I    between atoms: N_9  and  C_10 
REMARK       I    between atoms: C_10  and  N_12 
REMARK    4  A    between atoms: N_12  and  C_13 
ROOT
HETATM    1  N   UNL     1     -43.195 -54.051  13.956  1.00  0.00    -0.341 N 
HETATM    2  C   UNL     1     -43.841 -53.828  12.785  1.00  0.00     0.321 C 
HETATM    3  O   UNL     1     -44.911 -54.356  12.486  1.00  0.00    -0.247 OA
HETATM    4  N   UNL     1     -43.255 -52.955  11.914  1.00  0.00    -0.293 N 
HETATM    5  H   UNL     1     -42.330 -53.543  14.107  1.00  0.00     0.164 HD
HETATM    6  H   UNL     1     -43.784 -52.801  11.067  1.00  0.00     0.172 HD
ENDROOT
BRANCH   1   7
HETATM    7  C   UNL     1     -43.672 -54.924  15.001  1.00  0.00     0.154 C 
BRANCH   7   8
HETATM    8  C   UNL     1     -44.040 -54.166  16.290  1.00  0.00     0.292 C 
BRANCH   8   9
HETATM    9  N   UNL     1     -44.861 -52.964  16.041  1.00  0.00     0.090 N 
HETATM   10  C   UNL     1     -44.883 -52.055  17.196  1.00  0.00     0.272 C 
HETATM   11  C   UNL     1     -45.686 -50.788  16.904  1.00  0.00     0.031 C 
HETATM   12  C   UNL     1     -47.096 -51.117  16.430  1.00  0.00     0.007 C 
HETATM   13  C   UNL     1     -47.077 -52.121  15.270  1.00  0.00     0.010 C 
HETATM   14  C   UNL     1     -46.579 -51.475  13.972  1.00  0.00     0.011 C 
HETATM   15  C   UNL     1     -46.228 -53.348  15.650  1.00  0.00     0.276 C 
ENDBRANCH   8   9
ENDBRANCH   7   8
ENDBRANCH   1   7
BRANCH   4  16
HETATM   16  C   UNL     1     -42.047 -52.304  12.054  1.00  0.00     0.132 A 
HETATM   17  C   UNL     1     -41.893 -50.986  12.546  1.00  0.00     0.084 A 
HETATM   18  C   UNL     1     -40.540 -50.758  12.498  1.00  0.00     0.076 A 
HETATM   19  C   UNL     1     -39.662 -49.627  12.836  1.00  0.00     0.079 C 
HETATM   20  O   UNL     1     -39.918 -51.862  12.017  1.00  0.00    -0.241 OA
HETATM   21  N   UNL     1     -40.857 -52.829  11.742  1.00  0.00    -0.245 N 
ATOM     22  HN  UNL     1     -40.680 -53.764  11.372  1.00  0.00     0.196 HD
ENDBRANCH   4  16
TORSDOF 4
ENDMDL
MODEL 5
REMARK VINA RESULT:      -6.0      2.871      6.512
REMARK  4 active torsions:
REMARK  status: ('A' for Active; 'I' for Inactive)
REMARK    1  A    between atoms: N_6  and  C_7 
REMARK    2  A    between atoms: C_7  and  C_8 
REMARK    3  A    between atoms: C_8  and  N_9 
REMARK       I    between atoms: N_9  and  C_10 
REMARK       I    between atoms: C_10  and  N_12 
REMARK    4  A    between atoms: N_12  and  C_13 
ROOT
HETATM    1  N   UNL     1     -41.386 -50.809  11.749  1.00  0.00    -0.341 N 
HETATM    2  C   UNL     1     -40.917 -51.941  12.330  1.00  0.00     0.321 C 
HETATM    3  O   UNL     1     -39.721 -52.210  12.428  1.00  0.00    -0.247 OA
HETATM    4  N   UNL     1     -41.845 -52.806  12.835  1.00  0.00    -0.293 N 
HETATM    5  H   UNL     1     -42.393 -50.678  11.745  1.00  0.00     0.164 HD
HETATM    6  H   UNL     1     -41.449 -53.622  13.279  1.00  0.00     0.172 HD
ENDROOT
BRANCH   1   7
HETATM    7  C   UNL     1     -40.556 -49.776  11.181  1.00  0.00     0.154 C 
BRANCH   7   8
HETATM    8  C   UNL     1     -41.349 -48.510  10.807  1.00  0.00     0.292 C 
BRANCH   8   9
HETATM    9  N   UNL     1     -40.616 -47.261  11.096  1.00  0.00     0.090 N 
HETATM   10  C   UNL     1     -40.324 -47.104  12.528  1.00  0.00     0.272 C 
HETATM   11  C   UNL     1     -39.513 -45.838  12.806  1.00  0.00     0.031 C 
HETATM   12  C   UNL     1     -40.199 -44.601  12.242  1.00  0.00     0.007 C 
HETATM   13  C   UNL     1     -40.569 -44.790  10.765  1.00  0.00     0.010 C 
HETATM   14  C   UNL     1     -39.330 -44.755   9.863  1.00  0.00     0.011 C 
HETATM   15  C   UNL     1     -41.361 -46.098  10.584  1.00  0.00     0.276 C 
ENDBRANCH   8   9
ENDBRANCH   7   8
ENDBRANCH   1   7
BRANCH   4  16
HETATM   16  C   UNL     1     -43.220 -52.696  12.781  1.00  0.00     0.132 A 
HETATM   17  C   UNL     1     -43.998 -51.878  13.634  1.00  0.00     0.084 A 
HETATM   18  C   UNL     1     -45.292 -52.094  13.230  1.00  0.00     0.076 A 
HETATM   19  C   UNL     1     -46.611 -51.601  13.654  1.00  0.00     0.079 C 
HETATM   20  O   UNL     1     -45.296 -52.975  12.200  1.00  0.00    -0.241 OA
HETATM   21  N   UNL     1     -44.004 -53.351  11.917  1.00  0.00    -0.245 N 
ATOM     22  HN  UNL     1     -43.703 -54.001  11.190  1.00  0.00     0.196 HD
ENDBRANCH   4  16
TORSDOF 4
ENDMDL
MODEL 6
REMARK VINA RESULT:      -6.0      2.187      3.436
REMARK  4 active torsions:
REMARK  status: ('A' for Active; 'I' for Inactive)
REMARK    1  A    between atoms: N_6  and  C_7 
REMARK    2  A    between atoms: C_7  and  C_8 
REMARK    3  A    between atoms: C_8  and  N_9 
REMARK       I    between atoms: N_9  and  C_10 
REMARK       I    between atoms: C_10  and  N_12 
REMARK    4  A    between atoms: N_12  and  C_13 
ROOT
HETATM    1  N   UNL     1     -41.747 -52.636  12.552  1.00  0.00    -0.341 N 
HETATM    2  C   UNL     1     -40.405 -52.451  12.621  1.00  0.00     0.321 C 
HETATM    3  O   UNL     1     -39.627 -53.281  13.086  1.00  0.00    -0.247 OA
HETATM    4  N   UNL     1     -39.919 -51.275  12.126  1.00  0.00    -0.293 N 
HETATM    5  H   UNL     1     -42.292 -51.894  12.125  1.00  0.00     0.164 HD
HETATM    6  H   UNL     1     -38.914 -51.192  12.175  1.00  0.00     0.172 HD
ENDROOT
BRANCH   1   7
HETATM    7  C   UNL     1     -42.435 -53.820  13.006  1.00  0.00     0.154 C 
BRANCH   7   8
HETATM    8  C   UNL     1     -43.123 -53.625  14.370  1.00  0.00     0.292 C 
BRANCH   8   9
HETATM    9  N   UNL     1     -44.271 -52.698  14.312  1.00  0.00     0.090 N 
HETATM   10  C   UNL     1     -44.456 -51.961  15.570  1.00  0.00     0.272 C 
HETATM   11  C   UNL     1     -45.610 -50.962  15.477  1.00  0.00     0.031 C 
HETATM   12  C   UNL     1     -46.900 -51.639  15.035  1.00  0.00     0.007 C 
HETATM   13  C   UNL     1     -46.692 -52.467  13.760  1.00  0.00     0.010 C 
HETATM   14  C   UNL     1     -46.509 -51.572  12.529  1.00  0.00     0.011 C 
HETATM   15  C   UNL     1     -45.499 -53.423  13.944  1.00  0.00     0.276 C 
ENDBRANCH   8   9
ENDBRANCH   7   8
ENDBRANCH   1   7
BRANCH   4  16
HETATM   16  C   UNL     1     -40.635 -50.215  11.607  1.00  0.00     0.132 A 
HETATM   17  C   UNL     1     -41.502 -49.384  12.356  1.00  0.00     0.084 A 
HETATM   18  C   UNL     1     -41.996 -48.490  11.439  1.00  0.00     0.076 A 
HETATM   19  C   UNL     1     -42.938 -47.361  11.490  1.00  0.00     0.079 C 
HETATM   20  O   UNL     1     -41.461 -48.756  10.223  1.00  0.00    -0.241 OA
HETATM   21  N   UNL     1     -40.609 -49.831  10.326  1.00  0.00    -0.245 N 
ATOM     22  HN  UNL     1     -40.064 -50.253   9.573  1.00  0.00     0.196 HD
ENDBRANCH   4  16
TORSDOF 4
ENDMDL
MODEL 7
REMARK VINA RESULT:      -6.0      2.535      6.345
REMARK  4 active torsions:
REMARK  status: ('A' for Active; 'I' for Inactive)
REMARK    1  A    between atoms: N_6  and  C_7 
REMARK    2  A    between atoms: C_7  and  C_8 
REMARK    3  A    between atoms: C_8  and  N_9 
REMARK       I    between atoms: N_9  and  C_10 
REMARK       I    between atoms: C_10  and  N_12 
REMARK    4  A    between atoms: N_12  and  C_13 
ROOT
HETATM    1  N   UNL     1     -42.219 -50.899  12.311  1.00  0.00    -0.341 N 
HETATM    2  C   UNL     1     -41.368 -51.953  12.239  1.00  0.00     0.321 C 
HETATM    3  O   UNL     1     -40.168 -51.844  11.991  1.00  0.00    -0.247 OA
HETATM    4  N   UNL     1     -41.898 -53.190  12.471  1.00  0.00    -0.293 N 
HETATM    5  H   UNL     1     -43.184 -51.104  12.547  1.00  0.00     0.164 HD
HETATM    6  H   UNL     1     -41.223 -53.940  12.431  1.00  0.00     0.172 HD
ENDROOT
BRANCH   1   7
HETATM    7  C   UNL     1     -41.835 -49.523  12.115  1.00  0.00     0.154 C 
BRANCH   7   8
HETATM    8  C   UNL     1     -43.043 -48.570  12.040  1.00  0.00     0.292 C 
BRANCH   8   9
HETATM    9  N   UNL     1     -43.059 -47.752  10.811  1.00  0.00     0.090 N 
HETATM   10  C   UNL     1     -42.626 -46.369  11.056  1.00  0.00     0.272 C 
HETATM   11  C   UNL     1     -42.590 -45.549   9.766  1.00  0.00     0.031 C 
HETATM   12  C   UNL     1     -43.929 -45.591   9.042  1.00  0.00     0.007 C 
HETATM   13  C   UNL     1     -44.418 -47.032   8.848  1.00  0.00     0.010 C 
HETATM   14  C   UNL     1     -43.596 -47.769   7.784  1.00  0.00     0.011 C 
HETATM   15  C   UNL     1     -44.396 -47.780  10.194  1.00  0.00     0.276 C 
ENDBRANCH   8   9
ENDBRANCH   7   8
ENDBRANCH   1   7
BRANCH   4  16
HETATM   16  C   UNL     1     -43.216 -53.512  12.720  1.00  0.00     0.132 A 
HETATM   17  C   UNL     1     -43.691 -54.098  13.917  1.00  0.00     0.084 A 
HETATM   18  C   UNL     1     -45.041 -54.247  13.714  1.00  0.00     0.076 A 
HETATM   19  C   UNL     1     -46.159 -54.782  14.505  1.00  0.00     0.079 C 
HETATM   20  O   UNL     1     -45.361 -53.777  12.484  1.00  0.00    -0.241 OA
HETATM   21  N   UNL     1     -44.224 -53.316  11.862  1.00  0.00    -0.245 N 
ATOM     22  HN  UNL     1     -44.162 -52.905  10.930  1.00  0.00     0.196 HD
ENDBRANCH   4  16
TORSDOF 4
ENDMDL
MODEL 8
REMARK VINA RESULT:      -6.0      3.301      4.652
REMARK  4 active torsions:
REMARK  status: ('A' for Active; 'I' for Inactive)
REMARK    1  A    between atoms: N_6  and  C_7 
REMARK    2  A    between atoms: C_7  and  C_8 
REMARK    3  A    between atoms: C_8  and  N_9 
REMARK       I    between atoms: N_9  and  C_10 
REMARK       I    between atoms: C_10  and  N_12 
REMARK    4  A    between atoms: N_12  and  C_13 
ROOT
HETATM    1  N   UNL     1     -42.049 -47.541  11.415  1.00  0.00    -0.341 N 
HETATM    2  C   UNL     1     -41.526 -46.586  10.606  1.00  0.00     0.321 C 
HETATM    3  O   UNL     1     -40.560 -45.889  10.912  1.00  0.00    -0.247 OA
HETATM    4  N   UNL     1     -42.115 -46.422   9.385  1.00  0.00    -0.293 N 
HETATM    5  H   UNL     1     -42.831 -48.074  11.050  1.00  0.00     0.164 HD
HETATM    6  H   UNL     1     -41.676 -45.719   8.808  1.00  0.00     0.172 HD
ENDROOT
BRANCH   1   7
HETATM    7  C   UNL     1     -41.547 -47.867  12.727  1.00  0.00     0.154 C 
BRANCH   7   8
HETATM    8  C   UNL     1     -41.165 -49.352  12.869  1.00  0.00     0.292 C 
BRANCH   8   9
HETATM    9  N   UNL     1     -39.705 -49.573  12.908  1.00  0.00     0.090 N 
HETATM   10  C   UNL     1     -39.116 -49.648  11.564  1.00  0.00     0.272 C 
HETATM   11  C   UNL     1     -37.598 -49.818  11.619  1.00  0.00     0.031 C 
HETATM   12  C   UNL     1     -37.201 -51.019  12.466  1.00  0.00     0.007 C 
HETATM   13  C   UNL     1     -37.872 -50.980  13.846  1.00  0.00     0.010 C 
HETATM   14  C   UNL     1     -37.259 -49.898  14.742  1.00  0.00     0.011 C 
HETATM   15  C   UNL     1     -39.391 -50.784  13.685  1.00  0.00     0.276 C 
ENDBRANCH   8   9
ENDBRANCH   7   8
ENDBRANCH   1   7
BRANCH   4  16
HETATM   16  C   UNL     1     -43.223 -47.076   8.886  1.00  0.00     0.132 A 
HETATM   17  C   UNL     1     -44.504 -47.067   9.487  1.00  0.00     0.084 A 
HETATM   18  C   UNL     1     -45.276 -47.848   8.663  1.00  0.00     0.076 A 
HETATM   19  C   UNL     1     -46.680 -48.286   8.659  1.00  0.00     0.079 C 
HETATM   20  O   UNL     1     -44.517 -48.293   7.632  1.00  0.00    -0.241 OA
HETATM   21  N   UNL     1     -43.236 -47.811   7.768  1.00  0.00    -0.245 N 
ATOM     22  HN  UNL     1     -42.450 -47.980   7.139  1.00  0.00     0.196 HD
ENDBRANCH   4  16
TORSDOF 4
ENDMDL
MODEL 9
REMARK VINA RESULT:      -5.8      2.460      2.912
REMARK  4 active torsions:
REMARK  status: ('A' for Active; 'I' for Inactive)
REMARK    1  A    between atoms: N_6  and  C_7 
REMARK    2  A    between atoms: C_7  and  C_8 
REMARK    3  A    between atoms: C_8  and  N_9 
REMARK       I    between atoms: N_9  and  C_10 
REMARK       I    between atoms: C_10  and  N_12 
REMARK    4  A    between atoms: N_12  and  C_13 
ROOT
HETATM    1  N   UNL     1     -41.048 -50.896  13.270  1.00  0.00    -0.341 N 
HETATM    2  C   UNL     1     -40.735 -51.462  12.079  1.00  0.00     0.321 C 
HETATM    3  O   UNL     1     -40.639 -52.676  11.906  1.00  0.00    -0.247 OA
HETATM    4  N   UNL     1     -40.532 -50.614  11.028  1.00  0.00    -0.293 N 
HETATM    5  H   UNL     1     -41.124 -49.884  13.293  1.00  0.00     0.164 HD
HETATM    6  H   UNL     1     -40.326 -51.081  10.156  1.00  0.00     0.172 HD
ENDROOT
BRANCH   1   7
HETATM    7  C   UNL     1     -41.315 -51.632  14.481  1.00  0.00     0.154 C 
BRANCH   7   8
HETATM    8  C   UNL     1     -42.561 -51.123  15.229  1.00  0.00     0.292 C 
BRANCH   8   9
HETATM    9  N   UNL     1     -43.813 -51.755  14.766  1.00  0.00     0.090 N 
HETATM   10  C   UNL     1     -43.580 -53.076  14.163  1.00  0.00     0.272 C 
HETATM   11  C   UNL     1     -44.889 -53.745  13.743  1.00  0.00     0.031 C 
HETATM   12  C   UNL     1     -45.703 -52.849  12.819  1.00  0.00     0.007 C 
HETATM   13  C   UNL     1     -45.886 -51.447  13.415  1.00  0.00     0.010 C 
HETATM   14  C   UNL     1     -46.868 -51.457  14.592  1.00  0.00     0.011 C 
HETATM   15  C   UNL     1     -44.519 -50.868  13.827  1.00  0.00     0.276 C 
ENDBRANCH   8   9
ENDBRANCH   7   8
ENDBRANCH   1   7
BRANCH   4  16
HETATM   16  C   UNL     1     -40.553 -49.235  11.038  1.00  0.00     0.132 A 
HETATM   17  C   UNL     1     -41.670 -48.443  10.679  1.00  0.00     0.084 A 
HETATM   18  C   UNL     1     -41.235 -47.149  10.826  1.00  0.00     0.076 A 
HETATM   19  C   UNL     1     -41.834 -45.820  10.630  1.00  0.00     0.079 C 
HETATM   20  O   UNL     1     -39.948 -47.157  11.251  1.00  0.00    -0.241 OA
HETATM   21  N   UNL     1     -39.521 -48.458  11.386  1.00  0.00    -0.245 N 
ATOM     22  HN  UNL     1     -38.599 -48.769  11.691  1.00  0.00     0.196 HD
ENDBRANCH   4  16
TORSDOF 4
ENDMDL
