MODEL 1
REMARK VINA RESULT:      -4.8      0.000      0.000
REMARK  4 active torsions:
REMARK  status: ('A' for Active; 'I' for Inactive)
REMARK    1  A    between atoms: N_3  and  C_4 
REMARK    2  A    between atoms: N_8  and  C_9 
REMARK    3  A    between atoms: C_9  and  C_10 
REMARK    4  A    between atoms: C_10  and  O_12 
ROOT
HETATM    1  C   UNL     2     -44.601 -54.800  13.936  1.00  0.00     0.095 A 
HETATM    2  C   UNL     2     -43.770 -55.313  14.936  1.00  0.00     0.036 A 
HETATM    3  C   UNL     2     -42.477 -54.824  15.089  1.00  0.00     0.020 A 
HETATM    4  C   UNL     2     -42.016 -53.817  14.243  1.00  0.00     0.095 A 
HETATM    5  N   UNL     2     -42.816 -53.304  13.257  1.00  0.00    -0.313 N 
HETATM    6  C   UNL     2     -44.107 -53.787  13.090  1.00  0.00     0.274 A 
HETATM    7  O   UNL     2     -44.830 -53.332  12.219  1.00  0.00    -0.266 OA
ENDROOT
BRANCH   5   8
HETATM    8  C   UNL     2     -42.282 -52.218  12.412  1.00  0.00     0.241 C 
BRANCH   8   9
HETATM    9  C   UNL     2     -40.863 -52.495  11.988  1.00  0.00     0.158 C 
HETATM   10  O   UNL     2     -39.961 -51.770  12.378  1.00  0.00    -0.649 OA
BRANCH   9  11
HETATM   11  O   UNL     2     -40.572 -53.528  11.170  1.00  0.00    -0.775 OA
HETATM   12  H   UNL     2     -40.685 -54.446  11.452  1.00  0.00     0.167 HD
ENDBRANCH   9  11
ENDBRANCH   8   9
ENDBRANCH   5   8
BRANCH   1  13
HETATM   13  N   UNL     2     -45.924 -55.297  13.798  1.00  0.00    -0.395 N 
HETATM   14  H   UNL     2     -46.095 -56.229  13.394  1.00  0.00     0.156 HD
HETATM   15  H   UNL     2     -46.736 -54.753  14.126  1.00  0.00     0.156 HD
ENDBRANCH   1  13
TORSDOF 4
ENDMDL
MODEL 2
REMARK VINA RESULT:      -4.8      1.840      2.435
REMARK  4 active torsions:
REMARK  status: ('A' for Active; 'I' for Inactive)
REMARK    1  A    between atoms: N_3  and  C_4 
REMARK    2  A    between atoms: N_8  and  C_9 
REMARK    3  A    between atoms: C_9  and  C_10 
REMARK    4  A    between atoms: C_10  and  O_12 
ROOT
HETATM    1  C   UNL     2     -45.486 -52.330  13.019  1.00  0.00     0.095 A 
HETATM    2  C   UNL     2     -45.350 -51.139  13.739  1.00  0.00     0.036 A 
HETATM    3  C   UNL     2     -44.121 -50.790  14.287  1.00  0.00     0.020 A 
HETATM    4  C   UNL     2     -43.024 -51.632  14.111  1.00  0.00     0.095 A 
HETATM    5  N   UNL     2     -43.139 -52.803  13.410  1.00  0.00    -0.313 N 
HETATM    6  C   UNL     2     -44.362 -53.165  12.862  1.00  0.00     0.274 A 
HETATM    7  O   UNL     2     -44.474 -54.204  12.231  1.00  0.00    -0.266 OA
ENDROOT
BRANCH   5   8
HETATM    8  C   UNL     2     -41.935 -53.638  13.233  1.00  0.00     0.241 C 
BRANCH   8   9
HETATM    9  C   UNL     2     -40.933 -52.977  12.322  1.00  0.00     0.158 C 
HETATM   10  O   UNL     2     -39.811 -52.730  12.734  1.00  0.00    -0.649 OA
BRANCH   9  11
HETATM   11  O   UNL     2     -41.262 -52.641  11.057  1.00  0.00    -0.775 OA
HETATM   12  H   UNL     2     -40.641 -52.182  10.476  1.00  0.00     0.167 HD
ENDBRANCH   9  11
ENDBRANCH   8   9
ENDBRANCH   5   8
BRANCH   1  13
HETATM   13  N   UNL     2     -46.743 -52.668  12.452  1.00  0.00    -0.395 N 
HETATM   14  H   UNL     2     -47.000 -53.654  12.296  1.00  0.00     0.156 HD
HETATM   15  H   UNL     2     -47.435 -51.942  12.214  1.00  0.00     0.156 HD
ENDBRANCH   1  13
TORSDOF 4
ENDMDL
MODEL 3
REMARK VINA RESULT:      -4.7      2.197      4.388
REMARK  4 active torsions:
REMARK  status: ('A' for Active; 'I' for Inactive)
REMARK    1  A    between atoms: N_3  and  C_4 
REMARK    2  A    between atoms: N_8  and  C_9 
REMARK    3  A    between atoms: C_9  and  C_10 
REMARK    4  A    between atoms: C_10  and  O_12 
ROOT
HETATM    1  C   UNL     2     -42.508 -53.210  12.697  1.00  0.00     0.095 A 
HETATM    2  C   UNL     2     -41.517 -53.587  13.608  1.00  0.00     0.036 A 
HETATM    3  C   UNL     2     -41.811 -54.484  14.629  1.00  0.00     0.020 A 
HETATM    4  C   UNL     2     -43.097 -55.009  14.736  1.00  0.00     0.095 A 
HETATM    5  N   UNL     2     -44.082 -54.650  13.853  1.00  0.00    -0.313 N 
HETATM    6  C   UNL     2     -43.802 -53.751  12.832  1.00  0.00     0.274 A 
HETATM    7  O   UNL     2     -44.670 -53.430  12.037  1.00  0.00    -0.266 OA
ENDROOT
BRANCH   5   8
HETATM    8  C   UNL     2     -45.416 -55.263  14.000  1.00  0.00     0.241 C 
BRANCH   8   9
HETATM    9  C   UNL     2     -46.333 -54.398  14.826  1.00  0.00     0.158 C 
HETATM   10  O   UNL     2     -46.346 -54.517  16.042  1.00  0.00    -0.649 OA
BRANCH   9  11
HETATM   11  O   UNL     2     -47.153 -53.500  14.242  1.00  0.00    -0.775 OA
HETATM   12  H   UNL     2     -47.185 -52.579  14.532  1.00  0.00     0.167 HD
ENDBRANCH   9  11
ENDBRANCH   8   9
ENDBRANCH   5   8
BRANCH   1  13
HETATM   13  N   UNL     2     -42.193 -52.304  11.650  1.00  0.00    -0.395 N 
HETATM   14  H   UNL     2     -42.781 -51.475  11.479  1.00  0.00     0.156 HD
HETATM   15  H   UNL     2     -41.356 -52.437  11.063  1.00  0.00     0.156 HD
ENDBRANCH   1  13
TORSDOF 4
ENDMDL
MODEL 4
REMARK VINA RESULT:      -4.7     21.414     22.437
REMARK  4 active torsions:
REMARK  status: ('A' for Active; 'I' for Inactive)
REMARK    1  A    between atoms: N_3  and  C_4 
REMARK    2  A    between atoms: N_8  and  C_9 
REMARK    3  A    between atoms: C_9  and  C_10 
REMARK    4  A    between atoms: C_10  and  O_12 
ROOT
HETATM    1  C   UNL     2     -31.765 -53.828  -4.907  1.00  0.00     0.095 A 
HETATM    2  C   UNL     2     -32.039 -52.495  -5.227  1.00  0.00     0.036 A 
HETATM    3  C   UNL     2     -31.009 -51.639  -5.597  1.00  0.00     0.020 A 
HETATM    4  C   UNL     2     -29.701 -52.117  -5.651  1.00  0.00     0.095 A 
HETATM    5  N   UNL     2     -29.413 -53.420  -5.340  1.00  0.00    -0.313 N 
HETATM    6  C   UNL     2     -30.433 -54.284  -4.964  1.00  0.00     0.274 A 
HETATM    7  O   UNL     2     -30.187 -55.448  -4.691  1.00  0.00    -0.266 OA
ENDROOT
BRANCH   5   8
HETATM    8  C   UNL     2     -28.013 -53.875  -5.445  1.00  0.00     0.241 C 
BRANCH   8   9
HETATM    9  C   UNL     2     -27.300 -53.782  -4.121  1.00  0.00     0.158 C 
HETATM   10  O   UNL     2     -26.957 -52.691  -3.693  1.00  0.00    -0.649 OA
BRANCH   9  11
HETATM   11  O   UNL     2     -27.023 -54.890  -3.403  1.00  0.00    -0.775 OA
HETATM   12  H   UNL     2     -26.114 -55.184  -3.255  1.00  0.00     0.167 HD
ENDBRANCH   9  11
ENDBRANCH   8   9
ENDBRANCH   5   8
BRANCH   1  13
HETATM   13  N   UNL     2     -32.828 -54.697  -4.544  1.00  0.00    -0.395 N 
HETATM   14  H   UNL     2     -32.655 -55.701  -4.391  1.00  0.00     0.156 HD
HETATM   15  H   UNL     2     -33.783 -54.340  -4.396  1.00  0.00     0.156 HD
ENDBRANCH   1  13
TORSDOF 4
ENDMDL
MODEL 5
REMARK VINA RESULT:      -4.6      2.504      3.193
REMARK  4 active torsions:
REMARK  status: ('A' for Active; 'I' for Inactive)
REMARK    1  A    between atoms: N_3  and  C_4 
REMARK    2  A    between atoms: N_8  and  C_9 
REMARK    3  A    between atoms: C_9  and  C_10 
REMARK    4  A    between atoms: C_10  and  O_12 
ROOT
HETATM    1  C   UNL     2     -46.167 -52.321  12.847  1.00  0.00     0.095 A 
HETATM    2  C   UNL     2     -46.512 -51.413  13.852  1.00  0.00     0.036 A 
HETATM    3  C   UNL     2     -45.885 -51.469  15.091  1.00  0.00     0.020 A 
HETATM    4  C   UNL     2     -44.906 -52.434  15.325  1.00  0.00     0.095 A 
HETATM    5  N   UNL     2     -44.556 -53.333  14.352  1.00  0.00    -0.313 N 
HETATM    6  C   UNL     2     -45.179 -53.290  13.113  1.00  0.00     0.274 A 
HETATM    7  O   UNL     2     -44.870 -54.083  12.238  1.00  0.00    -0.266 OA
ENDROOT
BRANCH   5   8
HETATM    8  C   UNL     2     -43.492 -54.312  14.650  1.00  0.00     0.241 C 
BRANCH   8   9
HETATM    9  C   UNL     2     -42.174 -53.894  14.052  1.00  0.00     0.158 C 
HETATM   10  O   UNL     2     -41.392 -53.228  14.712  1.00  0.00    -0.649 OA
BRANCH   9  11
HETATM   11  O   UNL     2     -41.846 -54.236  12.788  1.00  0.00    -0.775 OA
HETATM   12  H   UNL     2     -41.638 -55.149  12.547  1.00  0.00     0.167 HD
ENDBRANCH   9  11
ENDBRANCH   8   9
ENDBRANCH   5   8
BRANCH   1  13
HETATM   13  N   UNL     2     -46.805 -52.245  11.581  1.00  0.00    -0.395 N 
HETATM   14  H   UNL     2     -47.548 -51.551  11.409  1.00  0.00     0.156 HD
HETATM   15  H   UNL     2     -46.520 -52.855  10.802  1.00  0.00     0.156 HD
ENDBRANCH   1  13
TORSDOF 4
ENDMDL
MODEL 6
REMARK VINA RESULT:      -4.6      1.665      2.065
REMARK  4 active torsions:
REMARK  status: ('A' for Active; 'I' for Inactive)
REMARK    1  A    between atoms: N_3  and  C_4 
REMARK    2  A    between atoms: N_8  and  C_9 
REMARK    3  A    between atoms: C_9  and  C_10 
REMARK    4  A    between atoms: C_10  and  O_12 
ROOT
HETATM    1  C   UNL     2     -44.856 -53.135  12.868  1.00  0.00     0.095 A 
HETATM    2  C   UNL     2     -45.316 -54.295  13.499  1.00  0.00     0.036 A 
HETATM    3  C   UNL     2     -44.461 -55.037  14.306  1.00  0.00     0.020 A 
HETATM    4  C   UNL     2     -43.145 -54.617  14.485  1.00  0.00     0.095 A 
HETATM    5  N   UNL     2     -42.676 -53.484  13.873  1.00  0.00    -0.313 N 
HETATM    6  C   UNL     2     -43.519 -52.737  13.061  1.00  0.00     0.274 A 
HETATM    7  O   UNL     2     -43.113 -51.723  12.517  1.00  0.00    -0.266 OA
ENDROOT
BRANCH   5   8
HETATM    8  C   UNL     2     -41.281 -53.075  14.125  1.00  0.00     0.241 C 
BRANCH   8   9
HETATM    9  C   UNL     2     -40.338 -53.670  13.111  1.00  0.00     0.158 C 
HETATM   10  O   UNL     2     -39.377 -54.321  13.488  1.00  0.00    -0.649 OA
BRANCH   9  11
HETATM   11  O   UNL     2     -40.534 -53.483  11.789  1.00  0.00    -0.775 OA
HETATM   12  H   UNL     2     -40.062 -52.797  11.299  1.00  0.00     0.167 HD
ENDBRANCH   9  11
ENDBRANCH   8   9
ENDBRANCH   5   8
BRANCH   1  13
HETATM   13  N   UNL     2     -45.743 -52.377  12.058  1.00  0.00    -0.395 N 
HETATM   14  H   UNL     2     -45.420 -51.964  11.172  1.00  0.00     0.156 HD
HETATM   15  H   UNL     2     -46.731 -52.251  12.322  1.00  0.00     0.156 HD
ENDBRANCH   1  13
TORSDOF 4
ENDMDL
MODEL 7
REMARK VINA RESULT:      -4.6      2.845      4.338
REMARK  4 active torsions:
REMARK  status: ('A' for Active; 'I' for Inactive)
REMARK    1  A    between atoms: N_3  and  C_4 
REMARK    2  A    between atoms: N_8  and  C_9 
REMARK    3  A    between atoms: C_9  and  C_10 
REMARK    4  A    between atoms: C_10  and  O_12 
ROOT
HETATM    1  C   UNL     2     -41.229 -51.999  12.189  1.00  0.00     0.095 A 
HETATM    2  C   UNL     2     -42.540 -52.478  12.267  1.00  0.00     0.036 A 
HETATM    3  C   UNL     2     -42.897 -53.379  13.264  1.00  0.00     0.020 A 
HETATM    4  C   UNL     2     -41.941 -53.799  14.187  1.00  0.00     0.095 A 
HETATM    5  N   UNL     2     -40.651 -53.342  14.125  1.00  0.00    -0.313 N 
HETATM    6  C   UNL     2     -40.281 -52.445  13.132  1.00  0.00     0.274 A 
HETATM    7  O   UNL     2     -39.137 -52.028  13.071  1.00  0.00    -0.266 OA
ENDROOT
BRANCH   5   8
HETATM    8  C   UNL     2     -39.693 -53.801  15.149  1.00  0.00     0.241 C 
BRANCH   8   9
HETATM    9  C   UNL     2     -38.969 -55.047  14.709  1.00  0.00     0.158 C 
HETATM   10  O   UNL     2     -38.620 -55.870  15.540  1.00  0.00    -0.649 OA
BRANCH   9  11
HETATM   11  O   UNL     2     -38.687 -55.263  13.407  1.00  0.00    -0.775 OA
HETATM   12  H   UNL     2     -37.928 -54.847  12.977  1.00  0.00     0.167 HD
ENDBRANCH   9  11
ENDBRANCH   8   9
ENDBRANCH   5   8
BRANCH   1  13
HETATM   13  N   UNL     2     -40.880 -51.067  11.176  1.00  0.00    -0.395 N 
HETATM   14  H   UNL     2     -41.113 -51.253  10.189  1.00  0.00     0.156 HD
HETATM   15  H   UNL     2     -40.417 -50.176  11.406  1.00  0.00     0.156 HD
ENDBRANCH   1  13
TORSDOF 4
ENDMDL
MODEL 8
REMARK VINA RESULT:      -4.5      2.746      3.730
REMARK  4 active torsions:
REMARK  status: ('A' for Active; 'I' for Inactive)
REMARK    1  A    between atoms: N_3  and  C_4 
REMARK    2  A    between atoms: N_8  and  C_9 
REMARK    3  A    between atoms: C_9  and  C_10 
REMARK    4  A    between atoms: C_10  and  O_12 
ROOT
HETATM    1  C   UNL     2     -41.703 -52.824  12.453  1.00  0.00     0.095 A 
HETATM    2  C   UNL     2     -41.460 -53.928  13.276  1.00  0.00     0.036 A 
HETATM    3  C   UNL     2     -40.304 -53.985  14.045  1.00  0.00     0.020 A 
HETATM    4  C   UNL     2     -39.389 -52.935  13.994  1.00  0.00     0.095 A 
HETATM    5  N   UNL     2     -39.610 -51.846  13.193  1.00  0.00    -0.313 N 
HETATM    6  C   UNL     2     -40.759 -51.778  12.417  1.00  0.00     0.274 A 
HETATM    7  O   UNL     2     -40.967 -50.810  11.704  1.00  0.00    -0.266 OA
ENDROOT
BRANCH   5   8
HETATM    8  C   UNL     2     -38.619 -50.752  13.205  1.00  0.00     0.241 C 
BRANCH   8   9
HETATM    9  C   UNL     2     -37.699 -50.826  12.014  1.00  0.00     0.158 C 
HETATM   10  O   UNL     2     -36.715 -51.548  12.052  1.00  0.00    -0.649 OA
BRANCH   9  11
HETATM   11  O   UNL     2     -37.940 -50.095  10.905  1.00  0.00    -0.775 OA
HETATM   12  H   UNL     2     -37.846 -49.133  10.902  1.00  0.00     0.167 HD
ENDBRANCH   9  11
ENDBRANCH   8   9
ENDBRANCH   5   8
BRANCH   1  13
HETATM   13  N   UNL     2     -42.895 -52.769  11.684  1.00  0.00    -0.395 N 
HETATM   14  H   UNL     2     -43.750 -53.245  12.007  1.00  0.00     0.156 HD
HETATM   15  H   UNL     2     -42.940 -52.231  10.806  1.00  0.00     0.156 HD
ENDBRANCH   1  13
TORSDOF 4
ENDMDL
MODEL 9
REMARK VINA RESULT:      -4.5      3.727      5.382
REMARK  4 active torsions:
REMARK  status: ('A' for Active; 'I' for Inactive)
REMARK    1  A    between atoms: N_3  and  C_4 
REMARK    2  A    between atoms: N_8  and  C_9 
REMARK    3  A    between atoms: C_9  and  C_10 
REMARK    4  A    between atoms: C_10  and  O_12 
ROOT
HETATM    1  C   UNL     2     -39.736 -50.432  11.513  1.00  0.00     0.095 A 
HETATM    2  C   UNL     2     -38.440 -49.974  11.770  1.00  0.00     0.036 A 
HETATM    3  C   UNL     2     -37.719 -50.485  12.844  1.00  0.00     0.020 A 
HETATM    4  C   UNL     2     -38.294 -51.458  13.659  1.00  0.00     0.095 A 
HETATM    5  N   UNL     2     -39.563 -51.917  13.423  1.00  0.00    -0.313 N 
HETATM    6  C   UNL     2     -40.295 -51.412  12.357  1.00  0.00     0.274 A 
HETATM    7  O   UNL     2     -41.424 -51.818  12.134  1.00  0.00    -0.266 OA
ENDROOT
BRANCH   5   8
HETATM    8  C   UNL     2     -40.106 -52.969  14.304  1.00  0.00     0.241 C 
BRANCH   8   9
HETATM    9  C   UNL     2     -39.170 -54.146  14.401  1.00  0.00     0.158 C 
HETATM   10  O   UNL     2     -38.748 -54.496  15.492  1.00  0.00    -0.649 OA
BRANCH   9  11
HETATM   11  O   UNL     2     -38.779 -54.815  13.296  1.00  0.00    -0.775 OA
HETATM   12  H   UNL     2     -37.920 -54.654  12.883  1.00  0.00     0.167 HD
ENDBRANCH   9  11
ENDBRANCH   8   9
ENDBRANCH   5   8
BRANCH   1  13
HETATM   13  N   UNL     2     -40.457 -49.913  10.404  1.00  0.00    -0.395 N 
HETATM   14  H   UNL     2     -40.344 -48.929  10.120  1.00  0.00     0.156 HD
HETATM   15  H   UNL     2     -41.080 -50.513   9.845  1.00  0.00     0.156 HD
ENDBRANCH   1  13
TORSDOF 4
ENDMDL
