MODEL 1
REMARK VINA RESULT:      -6.6      0.000      0.000
REMARK  5 active torsions:
REMARK  status: ('A' for Active; 'I' for Inactive)
REMARK    1  A    between atoms: N_4  and  C_5 
REMARK    2  A    between atoms: C_5  and  C_6 
REMARK    3  A    between atoms: C_6  and  O_7 
REMARK    4  A    between atoms: C_6  and  C_8 
REMARK    5  A    between atoms: C_8  and  N_9 
ROOT
HETATM    1  N   UNL     1     -42.640 -51.939  13.456  1.00  0.00    -0.254 N 
HETATM    2  N   UNL     1     -43.865 -51.776  12.867  1.00  0.00    -0.300 N 
ATOM      3  HN  UNL     1     -44.073 -50.940  12.320  1.00  0.00     0.187 HD
HETATM    4  C   UNL     1     -44.755 -52.705  13.018  1.00  0.00     0.029 A 
HETATM    5  C   UNL     1     -46.072 -52.485  12.309  1.00  0.00     0.070 C 
HETATM    6  C   UNL     1     -44.556 -53.937  13.827  1.00  0.00    -0.012 A 
HETATM    7  C   UNL     1     -45.672 -54.922  14.020  1.00  0.00     0.052 C 
HETATM    8  C   UNL     1     -43.331 -54.090  14.364  1.00  0.00     0.121 A 
HETATM    9  C   UNL     1     -43.008 -55.206  15.186  1.00  0.00     0.105 C 
HETATM   10  N   UNL     1     -42.821 -56.138  15.851  1.00  0.00    -0.191 NA
HETATM   11  C   UNL     1     -42.266 -53.077  14.156  1.00  0.00     0.283 A 
HETATM   12  O   UNL     1     -41.132 -53.258  14.596  1.00  0.00    -0.265 OA
ENDROOT
BRANCH   1  13
HETATM   13  C   UNL     1     -41.707 -50.818  13.328  1.00  0.00     0.186 C 
BRANCH  13  14
HETATM   14  C   UNL     1     -41.334 -50.483  11.877  1.00  0.00     0.166 C 
BRANCH  14  15
HETATM   15  C   UNL     1     -40.172 -49.463  11.771  1.00  0.00     0.305 C 
BRANCH  15  16
HETATM   16  N   UNL     1     -40.566 -48.177  11.157  1.00  0.00     0.096 N 
HETATM   17  C   UNL     1     -40.416 -47.056  12.107  1.00  0.00     0.303 C 
HETATM   18  C   UNL     1     -40.849 -45.706  11.487  1.00  0.00     0.146 C 
HETATM   19  C   UNL     1     -39.880 -45.201  10.418  1.00  0.00     0.041 C 
HETATM   20  O   UNL     1     -42.197 -45.773  10.984  1.00  0.00    -0.378 OA
HETATM   21  C   UNL     1     -42.375 -46.850  10.052  1.00  0.00     0.146 C 
HETATM   22  C   UNL     1     -41.960 -48.198  10.669  1.00  0.00     0.303 C 
HETATM   23  C   UNL     1     -43.844 -46.893   9.648  1.00  0.00     0.041 C 
ENDBRANCH  15  16
ENDBRANCH  14  15
BRANCH  14  24
HETATM   24  O   UNL     1     -41.022 -51.684  11.158  1.00  0.00    -0.392 OA
HETATM   25  H   UNL     1     -41.133 -51.455  10.214  1.00  0.00     0.210 HD
ENDBRANCH  14  24
ENDBRANCH  13  14
ENDBRANCH   1  13
TORSDOF 5
ENDMDL
MODEL 2
REMARK VINA RESULT:      -6.4      2.633      3.484
REMARK  5 active torsions:
REMARK  status: ('A' for Active; 'I' for Inactive)
REMARK    1  A    between atoms: N_4  and  C_5 
REMARK    2  A    between atoms: C_5  and  C_6 
REMARK    3  A    between atoms: C_6  and  O_7 
REMARK    4  A    between atoms: C_6  and  C_8 
REMARK    5  A    between atoms: C_8  and  N_9 
ROOT
HETATM    1  N   UNL     1     -43.511 -53.793  13.732  1.00  0.00    -0.254 N 
HETATM    2  N   UNL     1     -44.255 -52.899  13.011  1.00  0.00    -0.300 N 
ATOM      3  HN  UNL     1     -43.931 -52.563  12.104  1.00  0.00     0.187 HD
HETATM    4  C   UNL     1     -45.379 -52.487  13.506  1.00  0.00     0.029 A 
HETATM    5  C   UNL     1     -46.174 -51.532  12.643  1.00  0.00     0.070 C 
HETATM    6  C   UNL     1     -45.912 -52.890  14.834  1.00  0.00    -0.012 A 
HETATM    7  C   UNL     1     -47.184 -52.297  15.368  1.00  0.00     0.052 C 
HETATM    8  C   UNL     1     -45.179 -53.798  15.505  1.00  0.00     0.121 A 
HETATM    9  C   UNL     1     -45.553 -54.252  16.801  1.00  0.00     0.105 C 
HETATM   10  N   UNL     1     -45.918 -54.570  17.855  1.00  0.00    -0.191 NA
HETATM   11  C   UNL     1     -43.919 -54.342  14.939  1.00  0.00     0.283 A 
HETATM   12  O   UNL     1     -43.292 -55.219  15.530  1.00  0.00    -0.265 OA
ENDROOT
BRANCH   1  13
HETATM   13  C   UNL     1     -42.208 -54.153  13.168  1.00  0.00     0.186 C 
BRANCH  13  14
HETATM   14  C   UNL     1     -41.463 -52.974  12.526  1.00  0.00     0.166 C 
BRANCH  14  15
HETATM   15  C   UNL     1     -40.588 -52.189  13.536  1.00  0.00     0.305 C 
BRANCH  15  16
HETATM   16  N   UNL     1     -39.829 -51.077  12.926  1.00  0.00     0.096 N 
HETATM   17  C   UNL     1     -38.403 -51.122  13.308  1.00  0.00     0.303 C 
HETATM   18  C   UNL     1     -37.599 -49.950  12.697  1.00  0.00     0.146 C 
HETATM   19  C   UNL     1     -37.411 -50.079  11.185  1.00  0.00     0.041 C 
HETATM   20  O   UNL     1     -38.184 -48.680  13.047  1.00  0.00    -0.378 OA
HETATM   21  C   UNL     1     -39.570 -48.602  12.682  1.00  0.00     0.146 C 
HETATM   22  C   UNL     1     -40.376 -49.758  13.300  1.00  0.00     0.303 C 
HETATM   23  C   UNL     1     -40.117 -47.267  13.170  1.00  0.00     0.041 C 
ENDBRANCH  15  16
ENDBRANCH  14  15
BRANCH  14  24
HETATM   24  O   UNL     1     -40.674 -53.432  11.420  1.00  0.00    -0.392 OA
HETATM   25  H   UNL     1     -39.991 -52.744  11.288  1.00  0.00     0.210 HD
ENDBRANCH  14  24
ENDBRANCH  13  14
ENDBRANCH   1  13
TORSDOF 5
ENDMDL
MODEL 3
REMARK VINA RESULT:      -6.4      1.744      2.191
REMARK  5 active torsions:
REMARK  status: ('A' for Active; 'I' for Inactive)
REMARK    1  A    between atoms: N_4  and  C_5 
REMARK    2  A    between atoms: C_5  and  C_6 
REMARK    3  A    between atoms: C_6  and  O_7 
REMARK    4  A    between atoms: C_6  and  C_8 
REMARK    5  A    between atoms: C_8  and  N_9 
ROOT
HETATM    1  N   UNL     1     -40.638 -52.062  13.178  1.00  0.00    -0.254 N 
HETATM    2  N   UNL     1     -42.001 -52.159  13.242  1.00  0.00    -0.300 N 
ATOM      3  HN  UNL     1     -42.595 -51.460  12.794  1.00  0.00     0.187 HD
HETATM    4  C   UNL     1     -42.523 -53.157  13.882  1.00  0.00     0.029 A 
HETATM    5  C   UNL     1     -44.034 -53.231  13.879  1.00  0.00     0.070 C 
HETATM    6  C   UNL     1     -41.741 -54.200  14.596  1.00  0.00    -0.012 A 
HETATM    7  C   UNL     1     -42.428 -55.275  15.386  1.00  0.00     0.052 C 
HETATM    8  C   UNL     1     -40.402 -54.102  14.487  1.00  0.00     0.121 A 
HETATM    9  C   UNL     1     -39.529 -55.013  15.143  1.00  0.00     0.105 C 
HETATM   10  N   UNL     1     -38.881 -55.789  15.713  1.00  0.00    -0.191 NA
HETATM   11  C   UNL     1     -39.771 -53.008  13.706  1.00  0.00     0.283 A 
HETATM   12  O   UNL     1     -38.552 -52.965  13.558  1.00  0.00    -0.265 OA
ENDROOT
BRANCH   1  13
HETATM   13  C   UNL     1     -40.105 -50.866  12.522  1.00  0.00     0.186 C 
BRANCH  13  14
HETATM   14  C   UNL     1     -41.082 -50.214  11.534  1.00  0.00     0.166 C 
BRANCH  14  15
HETATM   15  C   UNL     1     -41.751 -48.935  12.100  1.00  0.00     0.305 C 
BRANCH  15  16
HETATM   16  N   UNL     1     -41.590 -47.748  11.234  1.00  0.00     0.096 N 
HETATM   17  C   UNL     1     -41.208 -46.556  12.018  1.00  0.00     0.303 C 
HETATM   18  C   UNL     1     -41.060 -45.298  11.129  1.00  0.00     0.146 C 
HETATM   19  C   UNL     1     -39.832 -45.350  10.219  1.00  0.00     0.041 C 
HETATM   20  O   UNL     1     -42.263 -45.051  10.374  1.00  0.00    -0.378 OA
HETATM   21  C   UNL     1     -42.658 -46.191   9.595  1.00  0.00     0.146 C 
HETATM   22  C   UNL     1     -42.821 -47.441  10.478  1.00  0.00     0.303 C 
HETATM   23  C   UNL     1     -43.978 -45.863   8.908  1.00  0.00     0.041 C 
ENDBRANCH  15  16
ENDBRANCH  14  15
BRANCH  14  24
HETATM   24  O   UNL     1     -40.416 -49.931  10.296  1.00  0.00    -0.392 OA
HETATM   25  H   UNL     1     -39.526 -50.326  10.386  1.00  0.00     0.210 HD
ENDBRANCH  14  24
ENDBRANCH  13  14
ENDBRANCH   1  13
TORSDOF 5
ENDMDL
MODEL 4
REMARK VINA RESULT:      -6.3      2.297      3.262
REMARK  5 active torsions:
REMARK  status: ('A' for Active; 'I' for Inactive)
REMARK    1  A    between atoms: N_4  and  C_5 
REMARK    2  A    between atoms: C_5  and  C_6 
REMARK    3  A    between atoms: C_6  and  O_7 
REMARK    4  A    between atoms: C_6  and  C_8 
REMARK    5  A    between atoms: C_8  and  N_9 
ROOT
HETATM    1  N   UNL     1     -42.385 -52.864  12.496  1.00  0.00    -0.254 N 
HETATM    2  N   UNL     1     -43.653 -52.435  12.209  1.00  0.00    -0.300 N 
ATOM      3  HN  UNL     1     -43.813 -51.725  11.494  1.00  0.00     0.187 HD
HETATM    4  C   UNL     1     -44.645 -52.949  12.865  1.00  0.00     0.029 A 
HETATM    5  C   UNL     1     -46.023 -52.464  12.473  1.00  0.00     0.070 C 
HETATM    6  C   UNL     1     -44.505 -53.959  13.948  1.00  0.00    -0.012 A 
HETATM    7  C   UNL     1     -45.703 -54.438  14.715  1.00  0.00     0.052 C 
HETATM    8  C   UNL     1     -43.252 -54.390  14.184  1.00  0.00     0.121 A 
HETATM    9  C   UNL     1     -42.966 -55.332  15.212  1.00  0.00     0.105 C 
HETATM   10  N   UNL     1     -42.810 -56.096  16.071  1.00  0.00    -0.191 NA
HETATM   11  C   UNL     1     -42.099 -53.871  13.406  1.00  0.00     0.283 A 
HETATM   12  O   UNL     1     -40.968 -54.319  13.585  1.00  0.00    -0.265 OA
ENDROOT
BRANCH   1  13
HETATM   13  C   UNL     1     -41.298 -52.184  11.791  1.00  0.00     0.186 C 
BRANCH  13  14
HETATM   14  C   UNL     1     -41.147 -50.702  12.164  1.00  0.00     0.166 C 
BRANCH  14  15
HETATM   15  C   UNL     1     -39.799 -50.095  11.700  1.00  0.00     0.305 C 
BRANCH  15  16
HETATM   16  N   UNL     1     -39.033 -49.451  12.789  1.00  0.00     0.096 N 
HETATM   17  C   UNL     1     -39.365 -50.037  14.103  1.00  0.00     0.303 C 
HETATM   18  C   UNL     1     -38.590 -49.356  15.256  1.00  0.00     0.146 C 
HETATM   19  C   UNL     1     -37.098 -49.690  15.252  1.00  0.00     0.041 C 
HETATM   20  O   UNL     1     -38.809 -47.932  15.260  1.00  0.00    -0.378 OA
HETATM   21  C   UNL     1     -38.489 -47.330  13.997  1.00  0.00     0.146 C 
HETATM   22  C   UNL     1     -39.269 -47.995  12.848  1.00  0.00     0.303 C 
HETATM   23  C   UNL     1     -38.836 -45.848  14.073  1.00  0.00     0.041 C 
ENDBRANCH  15  16
ENDBRANCH  14  15
BRANCH  14  24
HETATM   24  O   UNL     1     -42.249 -49.948  11.642  1.00  0.00    -0.392 OA
HETATM   25  H   UNL     1     -42.129 -49.954  10.671  1.00  0.00     0.210 HD
ENDBRANCH  14  24
ENDBRANCH  13  14
ENDBRANCH   1  13
TORSDOF 5
ENDMDL
MODEL 5
REMARK VINA RESULT:      -6.2      2.603      3.856
REMARK  5 active torsions:
REMARK  status: ('A' for Active; 'I' for Inactive)
REMARK    1  A    between atoms: N_4  and  C_5 
REMARK    2  A    between atoms: C_5  and  C_6 
REMARK    3  A    between atoms: C_6  and  O_7 
REMARK    4  A    between atoms: C_6  and  C_8 
REMARK    5  A    between atoms: C_8  and  N_9 
ROOT
HETATM    1  N   UNL     1     -42.393 -52.891  12.530  1.00  0.00    -0.254 N 
HETATM    2  N   UNL     1     -43.656 -52.458  12.229  1.00  0.00    -0.300 N 
ATOM      3  HN  UNL     1     -43.806 -51.745  11.514  1.00  0.00     0.187 HD
HETATM    4  C   UNL     1     -44.657 -52.972  12.870  1.00  0.00     0.029 A 
HETATM    5  C   UNL     1     -46.029 -52.483  12.463  1.00  0.00     0.070 C 
HETATM    6  C   UNL     1     -44.534 -53.985  13.952  1.00  0.00    -0.012 A 
HETATM    7  C   UNL     1     -45.742 -54.464  14.703  1.00  0.00     0.052 C 
HETATM    8  C   UNL     1     -43.284 -54.420  14.202  1.00  0.00     0.121 A 
HETATM    9  C   UNL     1     -43.013 -55.366  15.230  1.00  0.00     0.105 C 
HETATM   10  N   UNL     1     -42.869 -56.133  16.089  1.00  0.00    -0.191 NA
HETATM   11  C   UNL     1     -42.120 -53.901  13.440  1.00  0.00     0.283 A 
HETATM   12  O   UNL     1     -40.993 -54.353  13.632  1.00  0.00    -0.265 OA
ENDROOT
BRANCH   1  13
HETATM   13  C   UNL     1     -41.295 -52.211  11.840  1.00  0.00     0.186 C 
BRANCH  13  14
HETATM   14  C   UNL     1     -41.135 -50.735  12.234  1.00  0.00     0.166 C 
BRANCH  14  15
HETATM   15  C   UNL     1     -39.669 -50.240  12.141  1.00  0.00     0.305 C 
BRANCH  15  16
HETATM   16  N   UNL     1     -39.158 -49.659  13.400  1.00  0.00     0.096 N 
HETATM   17  C   UNL     1     -37.963 -48.824  13.164  1.00  0.00     0.303 C 
HETATM   18  C   UNL     1     -37.401 -48.228  14.477  1.00  0.00     0.146 C 
HETATM   19  C   UNL     1     -38.297 -47.142  15.072  1.00  0.00     0.041 C 
HETATM   20  O   UNL     1     -37.121 -49.263  15.440  1.00  0.00    -0.378 OA
HETATM   21  C   UNL     1     -38.266 -50.090  15.696  1.00  0.00     0.146 C 
HETATM   22  C   UNL     1     -38.820 -50.696  14.394  1.00  0.00     0.303 C 
HETATM   23  C   UNL     1     -37.848 -51.201  16.651  1.00  0.00     0.041 C 
ENDBRANCH  15  16
ENDBRANCH  14  15
BRANCH  14  24
HETATM   24  O   UNL     1     -41.999 -49.915  11.435  1.00  0.00    -0.392 OA
HETATM   25  H   UNL     1     -41.628 -49.955  10.531  1.00  0.00     0.210 HD
ENDBRANCH  14  24
ENDBRANCH  13  14
ENDBRANCH   1  13
TORSDOF 5
ENDMDL
MODEL 6
REMARK VINA RESULT:      -6.2      1.185      2.113
REMARK  5 active torsions:
REMARK  status: ('A' for Active; 'I' for Inactive)
REMARK    1  A    between atoms: N_4  and  C_5 
REMARK    2  A    between atoms: C_5  and  C_6 
REMARK    3  A    between atoms: C_6  and  O_7 
REMARK    4  A    between atoms: C_6  and  C_8 
REMARK    5  A    between atoms: C_8  and  N_9 
ROOT
HETATM    1  N   UNL     1     -42.634 -51.979  13.262  1.00  0.00    -0.254 N 
HETATM    2  N   UNL     1     -43.882 -51.786  12.734  1.00  0.00    -0.300 N 
ATOM      3  HN  UNL     1     -44.088 -50.958  12.174  1.00  0.00     0.187 HD
HETATM    4  C   UNL     1     -44.796 -52.675  12.961  1.00  0.00     0.029 A 
HETATM    5  C   UNL     1     -46.141 -52.425  12.316  1.00  0.00     0.070 C 
HETATM    6  C   UNL     1     -44.599 -53.890  13.795  1.00  0.00    -0.012 A 
HETATM    7  C   UNL     1     -45.739 -54.826  14.077  1.00  0.00     0.052 C 
HETATM    8  C   UNL     1     -43.354 -54.075  14.271  1.00  0.00     0.121 A 
HETATM    9  C   UNL     1     -43.028 -55.178  15.109  1.00  0.00     0.105 C 
HETATM   10  N   UNL     1     -42.840 -56.098  15.791  1.00  0.00    -0.191 NA
HETATM   11  C   UNL     1     -42.265 -53.109  13.976  1.00  0.00     0.283 A 
HETATM   12  O   UNL     1     -41.117 -53.322  14.360  1.00  0.00    -0.265 OA
ENDROOT
BRANCH   1  13
HETATM   13  C   UNL     1     -41.669 -50.898  13.051  1.00  0.00     0.186 C 
BRANCH  13  14
HETATM   14  C   UNL     1     -40.832 -51.055  11.773  1.00  0.00     0.166 C 
BRANCH  14  15
HETATM   15  C   UNL     1     -40.306 -49.703  11.225  1.00  0.00     0.305 C 
BRANCH  15  16
HETATM   16  N   UNL     1     -40.740 -48.533  12.017  1.00  0.00     0.096 N 
HETATM   17  C   UNL     1     -41.563 -47.610  11.210  1.00  0.00     0.303 C 
HETATM   18  C   UNL     1     -42.004 -46.366  12.018  1.00  0.00     0.146 C 
HETATM   19  C   UNL     1     -43.046 -46.688  13.089  1.00  0.00     0.041 C 
HETATM   20  O   UNL     1     -40.868 -45.681  12.580  1.00  0.00    -0.378 OA
HETATM   21  C   UNL     1     -40.050 -46.551  13.376  1.00  0.00     0.146 C 
HETATM   22  C   UNL     1     -39.596 -47.782  12.572  1.00  0.00     0.303 C 
HETATM   23  C   UNL     1     -38.835 -45.762  13.849  1.00  0.00     0.041 C 
ENDBRANCH  15  16
ENDBRANCH  14  15
BRANCH  14  24
HETATM   24  O   UNL     1     -39.749 -51.966  12.001  1.00  0.00    -0.392 OA
HETATM   25  H   UNL     1     -39.173 -51.522  12.655  1.00  0.00     0.210 HD
ENDBRANCH  14  24
ENDBRANCH  13  14
ENDBRANCH   1  13
TORSDOF 5
ENDMDL
MODEL 7
REMARK VINA RESULT:      -6.2      2.078      7.410
REMARK  5 active torsions:
REMARK  status: ('A' for Active; 'I' for Inactive)
REMARK    1  A    between atoms: N_4  and  C_5 
REMARK    2  A    between atoms: C_5  and  C_6 
REMARK    3  A    between atoms: C_6  and  O_7 
REMARK    4  A    between atoms: C_6  and  C_8 
REMARK    5  A    between atoms: C_8  and  N_9 
ROOT
HETATM    1  N   UNL     1     -41.489 -49.759  12.520  1.00  0.00    -0.254 N 
HETATM    2  N   UNL     1     -42.081 -49.391  11.342  1.00  0.00    -0.300 N 
ATOM      3  HN  UNL     1     -42.718 -50.026  10.859  1.00  0.00     0.187 HD
HETATM    4  C   UNL     1     -41.816 -48.222  10.853  1.00  0.00     0.029 A 
HETATM    5  C   UNL     1     -42.533 -47.859   9.572  1.00  0.00     0.070 C 
HETATM    6  C   UNL     1     -40.873 -47.248  11.464  1.00  0.00    -0.012 A 
HETATM    7  C   UNL     1     -40.557 -45.947  10.784  1.00  0.00     0.052 C 
HETATM    8  C   UNL     1     -40.333 -47.619  12.641  1.00  0.00     0.121 A 
HETATM    9  C   UNL     1     -39.392 -46.800  13.324  1.00  0.00     0.105 C 
HETATM   10  N   UNL     1     -38.626 -46.082  13.819  1.00  0.00    -0.191 NA
HETATM   11  C   UNL     1     -40.666 -48.925  13.264  1.00  0.00     0.283 A 
HETATM   12  O   UNL     1     -40.219 -49.226  14.369  1.00  0.00    -0.265 OA
ENDROOT
BRANCH   1  13
HETATM   13  C   UNL     1     -41.753 -51.125  12.978  1.00  0.00     0.186 C 
BRANCH  13  14
HETATM   14  C   UNL     1     -40.889 -52.188  12.286  1.00  0.00     0.166 C 
BRANCH  14  15
HETATM   15  C   UNL     1     -40.846 -53.531  13.060  1.00  0.00     0.305 C 
BRANCH  15  16
HETATM   16  N   UNL     1     -41.949 -53.691  14.031  1.00  0.00     0.096 N 
HETATM   17  C   UNL     1     -41.537 -54.514  15.186  1.00  0.00     0.303 C 
HETATM   18  C   UNL     1     -42.689 -54.712  16.200  1.00  0.00     0.146 C 
HETATM   19  C   UNL     1     -43.034 -53.437  16.969  1.00  0.00     0.041 C 
HETATM   20  O   UNL     1     -43.853 -55.271  15.562  1.00  0.00    -0.378 OA
HETATM   21  C   UNL     1     -44.284 -54.489  14.437  1.00  0.00     0.146 C 
HETATM   22  C   UNL     1     -43.145 -54.303  13.419  1.00  0.00     0.303 C 
HETATM   23  C   UNL     1     -45.458 -55.205  13.780  1.00  0.00     0.041 C 
ENDBRANCH  15  16
ENDBRANCH  14  15
BRANCH  14  24
HETATM   24  O   UNL     1     -41.342 -52.393  10.941  1.00  0.00    -0.392 OA
HETATM   25  H   UNL     1     -41.881 -53.209  10.972  1.00  0.00     0.210 HD
ENDBRANCH  14  24
ENDBRANCH  13  14
ENDBRANCH   1  13
TORSDOF 5
ENDMDL
MODEL 8
REMARK VINA RESULT:      -6.1      1.991      2.448
REMARK  5 active torsions:
REMARK  status: ('A' for Active; 'I' for Inactive)
REMARK    1  A    between atoms: N_4  and  C_5 
REMARK    2  A    between atoms: C_5  and  C_6 
REMARK    3  A    between atoms: C_6  and  O_7 
REMARK    4  A    between atoms: C_6  and  C_8 
REMARK    5  A    between atoms: C_8  and  N_9 
ROOT
HETATM    1  N   UNL     1     -42.791 -51.314  13.830  1.00  0.00    -0.254 N 
HETATM    2  N   UNL     1     -43.686 -51.859  12.950  1.00  0.00    -0.300 N 
ATOM      3  HN  UNL     1     -43.375 -52.223  12.048  1.00  0.00     0.187 HD
HETATM    4  C   UNL     1     -44.936 -51.904  13.284  1.00  0.00     0.029 A 
HETATM    5  C   UNL     1     -45.868 -52.555  12.288  1.00  0.00     0.070 C 
HETATM    6  C   UNL     1     -45.486 -51.365  14.557  1.00  0.00    -0.012 A 
HETATM    7  C   UNL     1     -46.963 -51.381  14.827  1.00  0.00     0.052 C 
HETATM    8  C   UNL     1     -44.580 -50.869  15.420  1.00  0.00     0.121 A 
HETATM    9  C   UNL     1     -44.966 -50.293  16.662  1.00  0.00     0.105 C 
HETATM   10  N   UNL     1     -45.358 -49.833  17.653  1.00  0.00    -0.191 NA
HETATM   11  C   UNL     1     -43.131 -50.862  15.096  1.00  0.00     0.283 A 
HETATM   12  O   UNL     1     -42.306 -50.467  15.918  1.00  0.00    -0.265 OA
ENDROOT
BRANCH   1  13
HETATM   13  C   UNL     1     -41.407 -51.207  13.361  1.00  0.00     0.186 C 
BRANCH  13  14
HETATM   14  C   UNL     1     -41.281 -50.959  11.852  1.00  0.00     0.166 C 
BRANCH  14  15
HETATM   15  C   UNL     1     -40.100 -50.023  11.489  1.00  0.00     0.305 C 
BRANCH  15  16
HETATM   16  N   UNL     1     -40.522 -48.668  11.075  1.00  0.00     0.096 N 
HETATM   17  C   UNL     1     -40.242 -47.670  12.127  1.00  0.00     0.303 C 
HETATM   18  C   UNL     1     -40.702 -46.250  11.719  1.00  0.00     0.146 C 
HETATM   19  C   UNL     1     -39.837 -45.636  10.617  1.00  0.00     0.041 C 
HETATM   20  O   UNL     1     -42.097 -46.238  11.359  1.00  0.00    -0.378 OA
HETATM   21  C   UNL     1     -42.400 -47.194  10.332  1.00  0.00     0.146 C 
HETATM   22  C   UNL     1     -41.959 -48.611  10.740  1.00  0.00     0.303 C 
HETATM   23  C   UNL     1     -43.904 -47.168  10.087  1.00  0.00     0.041 C 
ENDBRANCH  15  16
ENDBRANCH  14  15
BRANCH  14  24
HETATM   24  O   UNL     1     -41.172 -52.207  11.154  1.00  0.00    -0.392 OA
HETATM   25  H   UNL     1     -41.742 -52.110  10.364  1.00  0.00     0.210 HD
ENDBRANCH  14  24
ENDBRANCH  13  14
ENDBRANCH   1  13
TORSDOF 5
ENDMDL
MODEL 9
REMARK VINA RESULT:      -6.0      3.629      6.949
REMARK  5 active torsions:
REMARK  status: ('A' for Active; 'I' for Inactive)
REMARK    1  A    between atoms: N_4  and  C_5 
REMARK    2  A    between atoms: C_5  and  C_6 
REMARK    3  A    between atoms: C_6  and  O_7 
REMARK    4  A    between atoms: C_6  and  C_8 
REMARK    5  A    between atoms: C_8  and  N_9 
ROOT
HETATM    1  N   UNL     1     -39.374 -51.926  13.867  1.00  0.00    -0.254 N 
HETATM    2  N   UNL     1     -38.750 -51.395  12.771  1.00  0.00    -0.300 N 
ATOM      3  HN  UNL     1     -38.729 -51.903  11.886  1.00  0.00     0.187 HD
HETATM    4  C   UNL     1     -38.186 -50.234  12.880  1.00  0.00     0.029 A 
HETATM    5  C   UNL     1     -37.551 -49.683  11.623  1.00  0.00     0.070 C 
HETATM    6  C   UNL     1     -38.132 -49.439  14.135  1.00  0.00    -0.012 A 
HETATM    7  C   UNL     1     -37.382 -48.140  14.195  1.00  0.00     0.052 C 
HETATM    8  C   UNL     1     -38.784 -49.967  15.188  1.00  0.00     0.121 A 
HETATM    9  C   UNL     1     -38.791 -49.331  16.461  1.00  0.00     0.105 C 
HETATM   10  N   UNL     1     -38.746 -48.758  17.469  1.00  0.00    -0.191 NA
HETATM   11  C   UNL     1     -39.498 -51.265  15.080  1.00  0.00     0.283 A 
HETATM   12  O   UNL     1     -40.145 -51.706  16.028  1.00  0.00    -0.265 OA
ENDROOT
BRANCH   1  13
HETATM   13  C   UNL     1     -39.913 -53.279  13.712  1.00  0.00     0.186 C 
BRANCH  13  14
HETATM   14  C   UNL     1     -41.043 -53.381  12.678  1.00  0.00     0.166 C 
BRANCH  14  15
HETATM   15  C   UNL     1     -42.133 -52.295  12.863  1.00  0.00     0.305 C 
BRANCH  15  16
HETATM   16  N   UNL     1     -43.364 -52.795  13.513  1.00  0.00     0.096 N 
HETATM   17  C   UNL     1     -44.344 -53.272  12.517  1.00  0.00     0.303 C 
HETATM   18  C   UNL     1     -45.649 -53.776  13.180  1.00  0.00     0.146 C 
HETATM   19  C   UNL     1     -45.465 -55.092  13.936  1.00  0.00     0.041 C 
HETATM   20  O   UNL     1     -46.228 -52.761  14.024  1.00  0.00    -0.378 OA
HETATM   21  C   UNL     1     -45.300 -52.280  15.008  1.00  0.00     0.146 C 
HETATM   22  C   UNL     1     -44.007 -51.765  14.352  1.00  0.00     0.303 C 
HETATM   23  C   UNL     1     -45.973 -51.156  15.787  1.00  0.00     0.041 C 
ENDBRANCH  15  16
ENDBRANCH  14  15
BRANCH  14  24
HETATM   24  O   UNL     1     -40.502 -53.335  11.350  1.00  0.00    -0.392 OA
HETATM   25  H   UNL     1     -40.515 -54.261  11.035  1.00  0.00     0.210 HD
ENDBRANCH  14  24
ENDBRANCH  13  14
ENDBRANCH   1  13
TORSDOF 5
ENDMDL
