MODEL 1
REMARK VINA RESULT:      -5.1      0.000      0.000
REMARK  7 active torsions:
REMARK  status: ('A' for Active; 'I' for Inactive)
REMARK    1  A    between atoms: C_2  and  N_3 
REMARK    2  A    between atoms: N_3  and  C_4 
REMARK       I    between atoms: N_3  and  C_7 
REMARK    3  A    between atoms: C_7  and  C_9 
REMARK    4  A    between atoms: C_9  and  N_10 
REMARK    5  A    between atoms: N_10  and  C_11 
REMARK    6  A    between atoms: C_11  and  C_13 
REMARK    7  A    between atoms: C_13  and  N_15 
ROOT
HETATM    1  N   UNL     1     -42.285 -50.107  11.990  1.00  0.00     0.098 N 
HETATM    2  H   UNL     1     -42.968 -50.817  11.709  1.00  0.00     0.317 HD
ENDROOT
BRANCH   1   3
HETATM    3  C   UNL     1     -41.557 -50.652  13.148  1.00  0.00     0.372 C 
BRANCH   3   4
HETATM    4  C   UNL     1     -40.145 -51.082  12.716  1.00  0.00     0.248 C 
HETATM    5  N   UNL     1     -39.089 -50.188  12.949  1.00  0.00    -0.346 N 
HETATM    6  O   UNL     1     -39.975 -52.185  12.182  1.00  0.00    -0.271 OA
BRANCH   5   7
HETATM    7  C   UNL     1     -37.743 -50.626  12.588  1.00  0.00     0.122 C 
HETATM    8  C   UNL     1     -37.313 -50.124  11.219  1.00  0.00     0.026 C 
ENDBRANCH   5   7
BRANCH   5   9
HETATM    9  C   UNL     1     -39.235 -48.960  13.699  1.00  0.00     0.087 A 
HETATM   10  C   UNL     1     -38.024 -48.258  14.257  1.00  0.00     0.027 A 
HETATM   11  C   UNL     1     -39.019 -48.851  15.192  1.00  0.00     0.027 A 
ENDBRANCH   5   9
ENDBRANCH   3   4
ENDBRANCH   1   3
BRANCH   1  12
HETATM   12  C   UNL     1     -42.986 -48.834  12.234  1.00  0.00     0.241 C 
HETATM   13  C   UNL     1     -42.835 -48.354  13.687  1.00  0.00     0.045 C 
BRANCH  12  14
HETATM   14  C   UNL     1     -42.511 -47.710  11.251  1.00  0.00     0.136 C 
HETATM   15  C   UNL     1     -41.002 -47.695  10.959  1.00  0.00     0.036 C 
BRANCH  14  16
HETATM   16  N   UNL     1     -43.301 -47.717  10.019  1.00  0.00    -0.297 N 
HETATM   17  C   UNL     1     -44.651 -47.528   9.879  1.00  0.00     0.112 A 
HETATM   18  C   UNL     1     -44.912 -47.574   8.530  1.00  0.00     0.037 A 
HETATM   19  C   UNL     1     -43.659 -47.799   7.940  1.00  0.00     0.108 A 
HETATM   20  N   UNL     1     -42.674 -47.885   8.838  1.00  0.00    -0.310 N 
ATOM     21  HN  UNL     1     -41.680 -48.042   8.671  1.00  0.00     0.186 HD
ENDBRANCH  14  16
ENDBRANCH  12  14
ENDBRANCH   1  12
TORSDOF 7
ENDMDL
MODEL 2
REMARK VINA RESULT:      -5.0      2.777      4.617
REMARK  7 active torsions:
REMARK  status: ('A' for Active; 'I' for Inactive)
REMARK    1  A    between atoms: C_2  and  N_3 
REMARK    2  A    between atoms: N_3  and  C_4 
REMARK       I    between atoms: N_3  and  C_7 
REMARK    3  A    between atoms: C_7  and  C_9 
REMARK    4  A    between atoms: C_9  and  N_10 
REMARK    5  A    between atoms: N_10  and  C_11 
REMARK    6  A    between atoms: C_11  and  C_13 
REMARK    7  A    between atoms: C_13  and  N_15 
ROOT
HETATM    1  N   UNL     1     -43.106 -49.526  11.996  1.00  0.00     0.098 N 
HETATM    2  H   UNL     1     -43.936 -48.932  11.931  1.00  0.00     0.317 HD
ENDROOT
BRANCH   1   3
HETATM    3  C   UNL     1     -43.200 -50.250  13.275  1.00  0.00     0.372 C 
BRANCH   3   4
HETATM    4  C   UNL     1     -43.250 -51.764  13.010  1.00  0.00     0.248 C 
HETATM    5  N   UNL     1     -44.286 -52.498  13.608  1.00  0.00    -0.346 N 
HETATM    6  O   UNL     1     -42.394 -52.291  12.291  1.00  0.00    -0.271 OA
BRANCH   5   7
HETATM    7  C   UNL     1     -44.362 -53.926  13.307  1.00  0.00     0.122 C 
HETATM    8  C   UNL     1     -43.771 -54.788  14.410  1.00  0.00     0.026 C 
ENDBRANCH   5   7
BRANCH   5   9
HETATM    9  C   UNL     1     -45.380 -51.889  14.332  1.00  0.00     0.087 A 
HETATM   10  C   UNL     1     -46.675 -52.636  14.530  1.00  0.00     0.027 A 
HETATM   11  C   UNL     1     -46.660 -51.411  13.684  1.00  0.00     0.027 A 
ENDBRANCH   5   9
ENDBRANCH   3   4
ENDBRANCH   1   3
BRANCH   1  12
HETATM   12  C   UNL     1     -41.901 -48.691  11.837  1.00  0.00     0.241 C 
HETATM   13  C   UNL     1     -40.781 -49.422  11.077  1.00  0.00     0.045 C 
BRANCH  12  14
HETATM   14  C   UNL     1     -42.225 -47.332  11.127  1.00  0.00     0.136 C 
HETATM   15  C   UNL     1     -40.997 -46.504  10.715  1.00  0.00     0.036 C 
BRANCH  14  16
HETATM   16  N   UNL     1     -43.148 -47.527  10.008  1.00  0.00    -0.297 N 
HETATM   17  C   UNL     1     -44.509 -47.374   9.999  1.00  0.00     0.112 A 
HETATM   18  C   UNL     1     -44.918 -47.619   8.709  1.00  0.00     0.037 A 
HETATM   19  C   UNL     1     -43.734 -47.915   8.017  1.00  0.00     0.108 A 
HETATM   20  N   UNL     1     -42.653 -47.859   8.800  1.00  0.00    -0.310 N 
ATOM     21  HN  UNL     1     -41.681 -48.029   8.544  1.00  0.00     0.186 HD
ENDBRANCH  14  16
ENDBRANCH  12  14
ENDBRANCH   1  12
TORSDOF 7
ENDMDL
MODEL 3
REMARK VINA RESULT:      -5.0      3.099      5.210
REMARK  7 active torsions:
REMARK  status: ('A' for Active; 'I' for Inactive)
REMARK    1  A    between atoms: C_2  and  N_3 
REMARK    2  A    between atoms: N_3  and  C_4 
REMARK       I    between atoms: N_3  and  C_7 
REMARK    3  A    between atoms: C_7  and  C_9 
REMARK    4  A    between atoms: C_9  and  N_10 
REMARK    5  A    between atoms: N_10  and  C_11 
REMARK    6  A    between atoms: C_11  and  C_13 
REMARK    7  A    between atoms: C_13  and  N_15 
ROOT
HETATM    1  N   UNL     1     -41.862 -50.067  11.569  1.00  0.00     0.098 N 
HETATM    2  H   UNL     1     -42.330 -50.463  10.750  1.00  0.00     0.317 HD
ENDROOT
BRANCH   1   3
HETATM    3  C   UNL     1     -42.627 -50.503  12.749  1.00  0.00     0.372 C 
BRANCH   3   4
HETATM    4  C   UNL     1     -42.817 -52.029  12.707  1.00  0.00     0.248 C 
HETATM    5  N   UNL     1     -44.029 -52.549  13.184  1.00  0.00    -0.346 N 
HETATM    6  O   UNL     1     -41.915 -52.748  12.264  1.00  0.00    -0.271 OA
BRANCH   5   7
HETATM    7  C   UNL     1     -44.227 -53.994  13.089  1.00  0.00     0.122 C 
HETATM    8  C   UNL     1     -43.828 -54.723  14.362  1.00  0.00     0.026 C 
ENDBRANCH   5   7
BRANCH   5   9
HETATM    9  C   UNL     1     -45.154 -51.726  13.572  1.00  0.00     0.087 A 
HETATM   10  C   UNL     1     -46.475 -52.358  13.932  1.00  0.00     0.027 A 
HETATM   11  C   UNL     1     -46.379 -51.510  12.712  1.00  0.00     0.027 A 
ENDBRANCH   5   9
ENDBRANCH   3   4
ENDBRANCH   1   3
BRANCH   1  12
HETATM   12  C   UNL     1     -41.749 -48.606  11.401  1.00  0.00     0.241 C 
HETATM   13  C   UNL     1     -42.985 -47.861  11.931  1.00  0.00     0.045 C 
BRANCH  12  14
HETATM   14  C   UNL     1     -40.455 -48.040  12.080  1.00  0.00     0.136 C 
HETATM   15  C   UNL     1     -39.202 -48.917  11.925  1.00  0.00     0.036 C 
BRANCH  14  16
HETATM   16  N   UNL     1     -40.204 -46.658  11.669  1.00  0.00    -0.297 N 
HETATM   17  C   UNL     1     -40.057 -45.554  12.465  1.00  0.00     0.112 A 
HETATM   18  C   UNL     1     -39.788 -44.501  11.622  1.00  0.00     0.037 A 
HETATM   19  C   UNL     1     -39.798 -45.070  10.339  1.00  0.00     0.108 A 
HETATM   20  N   UNL     1     -40.048 -46.381  10.360  1.00  0.00    -0.310 N 
ATOM     21  HN  UNL     1     -40.108 -47.024   9.570  1.00  0.00     0.186 HD
ENDBRANCH  14  16
ENDBRANCH  12  14
ENDBRANCH   1  12
TORSDOF 7
ENDMDL
MODEL 4
REMARK VINA RESULT:      -4.9      4.725      6.533
REMARK  7 active torsions:
REMARK  status: ('A' for Active; 'I' for Inactive)
REMARK    1  A    between atoms: C_2  and  N_3 
REMARK    2  A    between atoms: N_3  and  C_4 
REMARK       I    between atoms: N_3  and  C_7 
REMARK    3  A    between atoms: C_7  and  C_9 
REMARK    4  A    between atoms: C_9  and  N_10 
REMARK    5  A    between atoms: N_10  and  C_11 
REMARK    6  A    between atoms: C_11  and  C_13 
REMARK    7  A    between atoms: C_13  and  N_15 
ROOT
HETATM    1  N   UNL     1     -46.339 -53.734  13.586  1.00  0.00     0.098 N 
HETATM    2  H   UNL     1     -46.691 -53.752  14.548  1.00  0.00     0.317 HD
ENDROOT
BRANCH   1   3
HETATM    3  C   UNL     1     -45.223 -54.694  13.525  1.00  0.00     0.372 C 
BRANCH   3   4
HETATM    4  C   UNL     1     -44.320 -54.517  14.757  1.00  0.00     0.248 C 
HETATM    5  N   UNL     1     -42.948 -54.321  14.538  1.00  0.00    -0.346 N 
HETATM    6  O   UNL     1     -44.813 -54.551  15.890  1.00  0.00    -0.271 OA
BRANCH   5   7
HETATM    7  C   UNL     1     -42.104 -54.096  15.710  1.00  0.00     0.122 C 
HETATM    8  C   UNL     1     -41.446 -55.373  16.209  1.00  0.00     0.026 C 
ENDBRANCH   5   7
BRANCH   5   9
HETATM    9  C   UNL     1     -42.368 -54.132  13.227  1.00  0.00     0.087 A 
HETATM   10  C   UNL     1     -41.000 -53.515  13.079  1.00  0.00     0.027 A 
HETATM   11  C   UNL     1     -42.190 -52.782  12.568  1.00  0.00     0.027 A 
ENDBRANCH   5   9
ENDBRANCH   3   4
ENDBRANCH   1   3
BRANCH   1  12
HETATM   12  C   UNL     1     -45.993 -52.348  13.225  1.00  0.00     0.241 C 
HETATM   13  C   UNL     1     -46.767 -51.857  11.990  1.00  0.00     0.045 C 
BRANCH  12  14
HETATM   14  C   UNL     1     -46.219 -51.361  14.420  1.00  0.00     0.136 C 
HETATM   15  C   UNL     1     -47.178 -51.866  15.510  1.00  0.00     0.036 C 
BRANCH  14  16
HETATM   16  N   UNL     1     -44.944 -50.915  14.985  1.00  0.00    -0.297 N 
HETATM   17  C   UNL     1     -44.489 -51.067  16.268  1.00  0.00     0.112 A 
HETATM   18  C   UNL     1     -43.222 -50.531  16.296  1.00  0.00     0.037 A 
HETATM   19  C   UNL     1     -43.006 -50.077  14.986  1.00  0.00     0.108 A 
HETATM   20  N   UNL     1     -44.047 -50.309  14.183  1.00  0.00    -0.310 N 
ATOM     21  HN  UNL     1     -44.142 -50.080  13.193  1.00  0.00     0.186 HD
ENDBRANCH  14  16
ENDBRANCH  12  14
ENDBRANCH   1  12
TORSDOF 7
ENDMDL
MODEL 5
REMARK VINA RESULT:      -4.9      2.794      4.586
REMARK  7 active torsions:
REMARK  status: ('A' for Active; 'I' for Inactive)
REMARK    1  A    between atoms: C_2  and  N_3 
REMARK    2  A    between atoms: N_3  and  C_4 
REMARK       I    between atoms: N_3  and  C_7 
REMARK    3  A    between atoms: C_7  and  C_9 
REMARK    4  A    between atoms: C_9  and  N_10 
REMARK    5  A    between atoms: N_10  and  C_11 
REMARK    6  A    between atoms: C_11  and  C_13 
REMARK    7  A    between atoms: C_13  and  N_15 
ROOT
HETATM    1  N   UNL     1     -41.374 -50.070  11.088  1.00  0.00     0.098 N 
HETATM    2  H   UNL     1     -41.960 -50.468  10.348  1.00  0.00     0.317 HD
ENDROOT
BRANCH   1   3
HETATM    3  C   UNL     1     -41.852 -50.638  12.359  1.00  0.00     0.372 C 
BRANCH   3   4
HETATM    4  C   UNL     1     -41.104 -51.949  12.654  1.00  0.00     0.248 C 
HETATM    5  N   UNL     1     -41.829 -52.999  13.237  1.00  0.00    -0.346 N 
HETATM    6  O   UNL     1     -39.903 -52.047  12.377  1.00  0.00    -0.271 OA
BRANCH   5   7
HETATM    7  C   UNL     1     -41.128 -54.261  13.462  1.00  0.00     0.122 C 
HETATM    8  C   UNL     1     -40.562 -54.372  14.868  1.00  0.00     0.026 C 
ENDBRANCH   5   7
BRANCH   5   9
HETATM    9  C   UNL     1     -43.261 -52.964  13.437  1.00  0.00     0.087 A 
HETATM   10  C   UNL     1     -44.033 -54.240  13.658  1.00  0.00     0.027 A 
HETATM   11  C   UNL     1     -44.269 -53.450  12.420  1.00  0.00     0.027 A 
ENDBRANCH   5   9
ENDBRANCH   3   4
ENDBRANCH   1   3
BRANCH   1  12
HETATM   12  C   UNL     1     -41.421 -48.599  11.002  1.00  0.00     0.241 C 
HETATM   13  C   UNL     1     -42.798 -48.036  11.394  1.00  0.00     0.045 C 
BRANCH  12  14
HETATM   14  C   UNL     1     -40.305 -47.929  11.873  1.00  0.00     0.136 C 
HETATM   15  C   UNL     1     -38.955 -48.664  11.879  1.00  0.00     0.036 C 
BRANCH  14  16
HETATM   16  N   UNL     1     -40.150 -46.513  11.536  1.00  0.00    -0.297 N 
HETATM   17  C   UNL     1     -40.259 -45.430  12.367  1.00  0.00     0.112 A 
HETATM   18  C   UNL     1     -39.980 -44.323  11.599  1.00  0.00     0.037 A 
HETATM   19  C   UNL     1     -39.719 -44.841  10.322  1.00  0.00     0.108 A 
HETATM   20  N   UNL     1     -39.819 -46.172  10.275  1.00  0.00    -0.310 N 
ATOM     21  HN  UNL     1     -39.679 -46.786   9.474  1.00  0.00     0.186 HD
ENDBRANCH  14  16
ENDBRANCH  12  14
ENDBRANCH   1  12
TORSDOF 7
ENDMDL
MODEL 6
REMARK VINA RESULT:      -4.9      2.113      3.284
REMARK  7 active torsions:
REMARK  status: ('A' for Active; 'I' for Inactive)
REMARK    1  A    between atoms: C_2  and  N_3 
REMARK    2  A    between atoms: N_3  and  C_4 
REMARK       I    between atoms: N_3  and  C_7 
REMARK    3  A    between atoms: C_7  and  C_9 
REMARK    4  A    between atoms: C_9  and  N_10 
REMARK    5  A    between atoms: N_10  and  C_11 
REMARK    6  A    between atoms: C_11  and  C_13 
REMARK    7  A    between atoms: C_13  and  N_15 
ROOT
HETATM    1  N   UNL     1     -40.738 -49.868  12.239  1.00  0.00     0.098 N 
HETATM    2  H   UNL     1     -40.382 -50.544  11.557  1.00  0.00     0.317 HD
ENDROOT
BRANCH   1   3
HETATM    3  C   UNL     1     -40.654 -50.514  13.560  1.00  0.00     0.372 C 
BRANCH   3   4
HETATM    4  C   UNL     1     -39.891 -51.843  13.439  1.00  0.00     0.248 C 
HETATM    5  N   UNL     1     -40.564 -53.019  13.803  1.00  0.00    -0.346 N 
HETATM    6  O   UNL     1     -38.723 -51.847  13.033  1.00  0.00    -0.271 OA
BRANCH   5   7
HETATM    7  C   UNL     1     -39.854 -54.284  13.631  1.00  0.00     0.122 C 
HETATM    8  C   UNL     1     -39.171 -54.748  14.908  1.00  0.00     0.026 C 
ENDBRANCH   5   7
BRANCH   5   9
HETATM    9  C   UNL     1     -41.970 -53.061  14.142  1.00  0.00     0.087 A 
HETATM   10  C   UNL     1     -42.706 -54.376  14.184  1.00  0.00     0.027 A 
HETATM   11  C   UNL     1     -43.069 -53.370  13.150  1.00  0.00     0.027 A 
ENDBRANCH   5   9
ENDBRANCH   3   4
ENDBRANCH   1   3
BRANCH   1  12
HETATM   12  C   UNL     1     -42.090 -49.442  11.835  1.00  0.00     0.241 C 
HETATM   13  C   UNL     1     -43.121 -49.628  12.961  1.00  0.00     0.045 C 
BRANCH  12  14
HETATM   14  C   UNL     1     -42.108 -47.957  11.337  1.00  0.00     0.136 C 
HETATM   15  C   UNL     1     -40.724 -47.337  11.086  1.00  0.00     0.036 C 
BRANCH  14  16
HETATM   16  N   UNL     1     -42.990 -47.799  10.180  1.00  0.00    -0.297 N 
HETATM   17  C   UNL     1     -44.312 -47.439  10.168  1.00  0.00     0.112 A 
HETATM   18  C   UNL     1     -44.686 -47.377   8.846  1.00  0.00     0.037 A 
HETATM   19  C   UNL     1     -43.523 -47.720   8.139  1.00  0.00     0.108 A 
HETATM   20  N   UNL     1     -42.488 -47.976   8.943  1.00  0.00    -0.310 N 
ATOM     21  HN  UNL     1     -41.539 -48.243   8.682  1.00  0.00     0.186 HD
ENDBRANCH  14  16
ENDBRANCH  12  14
ENDBRANCH   1  12
TORSDOF 7
ENDMDL
MODEL 7
REMARK VINA RESULT:      -4.8      2.761      5.560
REMARK  7 active torsions:
REMARK  status: ('A' for Active; 'I' for Inactive)
REMARK    1  A    between atoms: C_2  and  N_3 
REMARK    2  A    between atoms: N_3  and  C_4 
REMARK       I    between atoms: N_3  and  C_7 
REMARK    3  A    between atoms: C_7  and  C_9 
REMARK    4  A    between atoms: C_9  and  N_10 
REMARK    5  A    between atoms: N_10  and  C_11 
REMARK    6  A    between atoms: C_11  and  C_13 
REMARK    7  A    between atoms: C_13  and  N_15 
ROOT
HETATM    1  N   UNL     1     -42.018 -50.265  11.741  1.00  0.00     0.098 N 
HETATM    2  H   UNL     1     -42.521 -50.767  11.005  1.00  0.00     0.317 HD
ENDROOT
BRANCH   1   3
HETATM    3  C   UNL     1     -42.543 -50.755  13.026  1.00  0.00     0.372 C 
BRANCH   3   4
HETATM    4  C   UNL     1     -42.823 -52.264  12.929  1.00  0.00     0.248 C 
HETATM    5  N   UNL     1     -44.080 -52.724  13.350  1.00  0.00    -0.346 N 
HETATM    6  O   UNL     1     -41.952 -53.024  12.490  1.00  0.00    -0.271 OA
BRANCH   5   7
HETATM    7  C   UNL     1     -44.362 -54.150  13.202  1.00  0.00     0.122 C 
HETATM    8  C   UNL     1     -44.029 -54.944  14.454  1.00  0.00     0.026 C 
ENDBRANCH   5   7
BRANCH   5   9
HETATM    9  C   UNL     1     -45.165 -51.845  13.730  1.00  0.00     0.087 A 
HETATM   10  C   UNL     1     -46.554 -52.392  13.936  1.00  0.00     0.027 A 
HETATM   11  C   UNL     1     -46.299 -51.456  12.808  1.00  0.00     0.027 A 
ENDBRANCH   5   9
ENDBRANCH   3   4
ENDBRANCH   1   3
BRANCH   1  12
HETATM   12  C   UNL     1     -42.160 -48.814  11.519  1.00  0.00     0.241 C 
HETATM   13  C   UNL     1     -42.642 -48.076  12.779  1.00  0.00     0.045 C 
BRANCH  12  14
HETATM   14  C   UNL     1     -40.829 -48.171  11.002  1.00  0.00     0.136 C 
HETATM   15  C   UNL     1     -40.758 -46.639  11.116  1.00  0.00     0.036 C 
BRANCH  14  16
HETATM   16  N   UNL     1     -39.662 -48.814  11.606  1.00  0.00    -0.297 N 
HETATM   17  C   UNL     1     -39.121 -48.591  12.845  1.00  0.00     0.112 A 
HETATM   18  C   UNL     1     -38.071 -49.470  12.974  1.00  0.00     0.037 A 
HETATM   19  C   UNL     1     -38.056 -50.176  11.761  1.00  0.00     0.108 A 
HETATM   20  N   UNL     1     -39.021 -49.784  10.926  1.00  0.00    -0.310 N 
ATOM     21  HN  UNL     1     -39.226 -50.136   9.990  1.00  0.00     0.186 HD
ENDBRANCH  14  16
ENDBRANCH  12  14
ENDBRANCH   1  12
TORSDOF 7
ENDMDL
MODEL 8
REMARK VINA RESULT:      -4.7      2.584      4.905
REMARK  7 active torsions:
REMARK  status: ('A' for Active; 'I' for Inactive)
REMARK    1  A    between atoms: C_2  and  N_3 
REMARK    2  A    between atoms: N_3  and  C_4 
REMARK       I    between atoms: N_3  and  C_7 
REMARK    3  A    between atoms: C_7  and  C_9 
REMARK    4  A    between atoms: C_9  and  N_10 
REMARK    5  A    between atoms: N_10  and  C_11 
REMARK    6  A    between atoms: C_11  and  C_13 
REMARK    7  A    between atoms: C_13  and  N_15 
ROOT
HETATM    1  N   UNL     1     -41.801 -50.788  11.702  1.00  0.00     0.098 N 
HETATM    2  H   UNL     1     -42.452 -51.169  11.010  1.00  0.00     0.317 HD
ENDROOT
BRANCH   1   3
HETATM    3  C   UNL     1     -42.022 -51.535  12.951  1.00  0.00     0.372 C 
BRANCH   3   4
HETATM    4  C   UNL     1     -40.870 -52.530  13.170  1.00  0.00     0.248 C 
HETATM    5  N   UNL     1     -41.043 -53.526  14.142  1.00  0.00    -0.346 N 
HETATM    6  O   UNL     1     -39.837 -52.432  12.497  1.00  0.00    -0.271 OA
BRANCH   5   7
HETATM    7  C   UNL     1     -39.969 -54.504  14.306  1.00  0.00     0.122 C 
HETATM    8  C   UNL     1     -39.033 -54.156  15.452  1.00  0.00     0.026 C 
ENDBRANCH   5   7
BRANCH   5   9
HETATM    9  C   UNL     1     -42.291 -53.754  14.838  1.00  0.00     0.087 A 
HETATM   10  C   UNL     1     -42.598 -55.106  15.432  1.00  0.00     0.027 A 
HETATM   11  C   UNL     1     -43.418 -54.604  14.296  1.00  0.00     0.027 A 
ENDBRANCH   5   9
ENDBRANCH   3   4
ENDBRANCH   1   3
BRANCH   1  12
HETATM   12  C   UNL     1     -42.000 -49.330  11.800  1.00  0.00     0.241 C 
HETATM   13  C   UNL     1     -42.228 -48.870  13.249  1.00  0.00     0.045 C 
BRANCH  12  14
HETATM   14  C   UNL     1     -40.804 -48.536  11.172  1.00  0.00     0.136 C 
HETATM   15  C   UNL     1     -40.903 -47.007  11.293  1.00  0.00     0.036 C 
BRANCH  14  16
HETATM   16  N   UNL     1     -39.521 -49.037  11.663  1.00  0.00    -0.297 N 
HETATM   17  C   UNL     1     -38.951 -48.839  12.894  1.00  0.00     0.112 A 
HETATM   18  C   UNL     1     -37.773 -49.550  12.895  1.00  0.00     0.037 A 
HETATM   19  C   UNL     1     -37.719 -50.137  11.622  1.00  0.00     0.108 A 
HETATM   20  N   UNL     1     -38.779 -49.832  10.869  1.00  0.00    -0.310 N 
ATOM     21  HN  UNL     1     -38.979 -50.131   9.914  1.00  0.00     0.186 HD
ENDBRANCH  14  16
ENDBRANCH  12  14
ENDBRANCH   1  12
TORSDOF 7
ENDMDL
MODEL 9
REMARK VINA RESULT:      -4.7      2.626      5.236
REMARK  7 active torsions:
REMARK  status: ('A' for Active; 'I' for Inactive)
REMARK    1  A    between atoms: C_2  and  N_3 
REMARK    2  A    between atoms: N_3  and  C_4 
REMARK       I    between atoms: N_3  and  C_7 
REMARK    3  A    between atoms: C_7  and  C_9 
REMARK    4  A    between atoms: C_9  and  N_10 
REMARK    5  A    between atoms: N_10  and  C_11 
REMARK    6  A    between atoms: C_11  and  C_13 
REMARK    7  A    between atoms: C_13  and  N_15 
ROOT
HETATM    1  N   UNL     1     -42.125 -50.218  11.852  1.00  0.00     0.098 N 
HETATM    2  H   UNL     1     -42.972 -50.144  11.282  1.00  0.00     0.317 HD
ENDROOT
BRANCH   1   3
HETATM    3  C   UNL     1     -41.015 -49.707  11.030  1.00  0.00     0.372 C 
BRANCH   3   4
HETATM    4  C   UNL     1     -40.688 -48.262  11.443  1.00  0.00     0.248 C 
HETATM    5  N   UNL     1     -41.358 -47.225  10.776  1.00  0.00    -0.346 N 
HETATM    6  O   UNL     1     -39.858 -48.051  12.334  1.00  0.00    -0.271 OA
BRANCH   5   7
HETATM    7  C   UNL     1     -41.086 -45.857  11.212  1.00  0.00     0.122 C 
HETATM    8  C   UNL     1     -39.962 -45.205  10.422  1.00  0.00     0.026 C 
ENDBRANCH   5   7
BRANCH   5   9
HETATM    9  C   UNL     1     -42.434 -47.445   9.836  1.00  0.00     0.087 A 
HETATM   10  C   UNL     1     -43.333 -46.307   9.423  1.00  0.00     0.027 A 
HETATM   11  C   UNL     1     -43.900 -47.436  10.211  1.00  0.00     0.027 A 
ENDBRANCH   5   9
ENDBRANCH   3   4
ENDBRANCH   1   3
BRANCH   1  12
HETATM   12  C   UNL     1     -41.973 -51.610  12.313  1.00  0.00     0.241 C 
HETATM   13  C   UNL     1     -40.499 -52.003  12.508  1.00  0.00     0.045 C 
BRANCH  12  14
HETATM   14  C   UNL     1     -42.774 -51.876  13.633  1.00  0.00     0.136 C 
HETATM   15  C   UNL     1     -42.427 -50.943  14.804  1.00  0.00     0.036 C 
BRANCH  14  16
HETATM   16  N   UNL     1     -44.214 -51.915  13.379  1.00  0.00    -0.297 N 
HETATM   17  C   UNL     1     -45.203 -51.205  14.008  1.00  0.00     0.112 A 
HETATM   18  C   UNL     1     -46.381 -51.545  13.385  1.00  0.00     0.037 A 
HETATM   19  C   UNL     1     -46.001 -52.468  12.399  1.00  0.00     0.108 A 
HETATM   20  N   UNL     1     -44.685 -52.696  12.387  1.00  0.00    -0.310 N 
ATOM     21  HN  UNL     1     -44.158 -53.317  11.773  1.00  0.00     0.186 HD
ENDBRANCH  14  16
ENDBRANCH  12  14
ENDBRANCH   1  12
TORSDOF 7
ENDMDL
