MODEL 1
REMARK VINA RESULT:      -6.2      0.000      0.000
REMARK  5 active torsions:
REMARK  status: ('A' for Active; 'I' for Inactive)
REMARK    1  A    between atoms: C_7  and  C_8 
REMARK    2  A    between atoms: C_8  and  C_9 
REMARK       I    between atoms: C_9  and  N_11 
REMARK    3  A    between atoms: N_11  and  C_12 
REMARK    4  A    between atoms: C_12  and  C_13 
REMARK    5  A    between atoms: C_13  and  C_14 
ROOT
HETATM    1  C   UNL     1     -40.538 -50.873  13.473  1.00  0.00     0.149 C 
ENDROOT
BRANCH   1   2
HETATM    2  C   UNL     1     -41.249 -49.954  12.511  1.00  0.00     0.041 A 
HETATM    3  C   UNL     1     -42.511 -49.474  12.581  1.00  0.00     0.018 A 
HETATM    4  N   UNL     1     -43.083 -48.672  11.618  1.00  0.00    -0.349 N 
HETATM    5  C   UNL     1     -43.451 -49.780  13.719  1.00  0.00     0.069 C 
HETATM    6  C   UNL     1     -42.367 -48.328  10.606  1.00  0.00     0.080 A 
ATOM      7  HN  UNL     1     -44.049 -48.357  11.706  1.00  0.00     0.167 HD
HETATM    8  C   UNL     1     -42.936 -47.458   9.522  1.00  0.00     0.089 C 
HETATM    9  N   UNL     1     -41.078 -48.717  10.441  1.00  0.00    -0.313 N 
HETATM   10  C   UNL     1     -40.467 -49.563  11.314  1.00  0.00     0.255 A 
HETATM   11  H   UNL     1     -40.545 -48.457   9.623  1.00  0.00     0.170 HD
HETATM   12  O   UNL     1     -39.344 -50.011  11.106  1.00  0.00    -0.268 OA
ENDBRANCH   1   2
BRANCH   1  13
HETATM   13  C   UNL     1     -40.929 -52.334  13.241  1.00  0.00     0.222 C 
HETATM   14  O   UNL     1     -40.462 -52.970  12.296  1.00  0.00    -0.273 OA
HETATM   15  N   UNL     1     -41.791 -52.911  14.168  1.00  0.00    -0.361 N 
HETATM   16  H   UNL     1     -42.369 -52.300  14.737  1.00  0.00     0.162 HD
BRANCH  15  17
HETATM   17  C   UNL     1     -42.218 -54.283  13.922  1.00  0.00     0.127 C 
BRANCH  17  18
HETATM   18  C   UNL     1     -43.597 -54.704  14.457  1.00  0.00     0.053 C 
BRANCH  18  19
HETATM   19  C   UNL     1     -44.667 -53.652  14.150  1.00  0.00    -0.082 A 
HETATM   20  C   UNL     1     -45.072 -53.404  12.896  1.00  0.00    -0.024 A 
HETATM   21  C   UNL     1     -46.066 -52.362  12.498  1.00  0.00     0.027 A 
HETATM   22  C   UNL     1     -46.694 -51.529  13.610  1.00  0.00     0.004 A 
HETATM   23  C   UNL     1     -46.281 -51.812  15.049  1.00  0.00     0.005 A 
HETATM   24  C   UNL     1     -45.229 -52.889  15.321  1.00  0.00     0.034 A 
ENDBRANCH  18  19
ENDBRANCH  17  18
ENDBRANCH  15  17
ENDBRANCH   1  13
TORSDOF 5
ENDMDL
MODEL 2
REMARK VINA RESULT:      -6.0      3.220      5.342
REMARK  5 active torsions:
REMARK  status: ('A' for Active; 'I' for Inactive)
REMARK    1  A    between atoms: C_7  and  C_8 
REMARK    2  A    between atoms: C_8  and  C_9 
REMARK       I    between atoms: C_9  and  N_11 
REMARK    3  A    between atoms: N_11  and  C_12 
REMARK    4  A    between atoms: C_12  and  C_13 
REMARK    5  A    between atoms: C_13  and  C_14 
ROOT
HETATM    1  C   UNL     1     -45.496 -54.945  14.137  1.00  0.00     0.149 C 
ENDROOT
BRANCH   1   2
HETATM    2  C   UNL     1     -44.210 -54.321  13.654  1.00  0.00     0.041 A 
HETATM    3  C   UNL     1     -42.966 -54.453  14.165  1.00  0.00     0.018 A 
HETATM    4  N   UNL     1     -41.859 -53.798  13.672  1.00  0.00    -0.349 N 
HETATM    5  C   UNL     1     -42.647 -55.323  15.355  1.00  0.00     0.069 C 
HETATM    6  C   UNL     1     -42.007 -53.040  12.643  1.00  0.00     0.080 A 
ATOM      7  HN  UNL     1     -40.945 -53.911  14.111  1.00  0.00     0.167 HD
HETATM    8  C   UNL     1     -40.837 -52.296  12.063  1.00  0.00     0.089 C 
HETATM    9  N   UNL     1     -43.197 -52.855  12.021  1.00  0.00    -0.313 N 
HETATM   10  C   UNL     1     -44.346 -53.413  12.490  1.00  0.00     0.255 A 
HETATM   11  H   UNL     1     -43.293 -52.232  11.232  1.00  0.00     0.170 HD
HETATM   12  O   UNL     1     -45.441 -53.153  12.003  1.00  0.00    -0.268 OA
ENDBRANCH   1   2
BRANCH   1  13
HETATM   13  C   UNL     1     -46.108 -54.143  15.288  1.00  0.00     0.222 C 
HETATM   14  O   UNL     1     -46.084 -54.574  16.441  1.00  0.00    -0.273 OA
HETATM   15  N   UNL     1     -46.643 -52.897  14.973  1.00  0.00    -0.361 N 
HETATM   16  H   UNL     1     -46.907 -52.714  14.011  1.00  0.00     0.162 HD
BRANCH  15  17
HETATM   17  C   UNL     1     -47.283 -52.152  16.051  1.00  0.00     0.127 C 
BRANCH  17  18
HETATM   18  C   UNL     1     -46.579 -50.878  16.548  1.00  0.00     0.053 C 
BRANCH  18  19
HETATM   19  C   UNL     1     -45.058 -50.973  16.387  1.00  0.00    -0.082 A 
HETATM   20  C   UNL     1     -44.425 -50.429  15.338  1.00  0.00    -0.024 A 
HETATM   21  C   UNL     1     -42.958 -50.519  15.071  1.00  0.00     0.027 A 
HETATM   22  C   UNL     1     -42.103 -51.267  16.088  1.00  0.00     0.004 A 
HETATM   23  C   UNL     1     -42.789 -51.866  17.310  1.00  0.00     0.005 A 
HETATM   24  C   UNL     1     -44.306 -51.728  17.452  1.00  0.00     0.034 A 
ENDBRANCH  18  19
ENDBRANCH  17  18
ENDBRANCH  15  17
ENDBRANCH   1  13
TORSDOF 5
ENDMDL
MODEL 3
REMARK VINA RESULT:      -6.0      1.007      1.856
REMARK  5 active torsions:
REMARK  status: ('A' for Active; 'I' for Inactive)
REMARK    1  A    between atoms: C_7  and  C_8 
REMARK    2  A    between atoms: C_8  and  C_9 
REMARK       I    between atoms: C_9  and  N_11 
REMARK    3  A    between atoms: N_11  and  C_12 
REMARK    4  A    between atoms: C_12  and  C_13 
REMARK    5  A    between atoms: C_13  and  C_14 
ROOT
HETATM    1  C   UNL     1     -40.393 -51.173  13.767  1.00  0.00     0.149 C 
ENDROOT
BRANCH   1   2
HETATM    2  C   UNL     1     -40.863 -50.247  12.672  1.00  0.00     0.041 A 
HETATM    3  C   UNL     1     -40.131 -49.634  11.716  1.00  0.00     0.018 A 
HETATM    4  N   UNL     1     -40.656 -48.765  10.784  1.00  0.00    -0.349 N 
HETATM    5  C   UNL     1     -38.641 -49.814  11.569  1.00  0.00     0.069 C 
HETATM    6  C   UNL     1     -41.924 -48.547  10.801  1.00  0.00     0.080 A 
ATOM      7  HN  UNL     1     -40.056 -48.307  10.099  1.00  0.00     0.167 HD
HETATM    8  C   UNL     1     -42.555 -47.607   9.812  1.00  0.00     0.089 C 
HETATM    9  N   UNL     1     -42.767 -49.130  11.688  1.00  0.00    -0.313 N 
HETATM   10  C   UNL     1     -42.314 -49.945  12.679  1.00  0.00     0.255 A 
HETATM   11  H   UNL     1     -43.756 -48.921  11.699  1.00  0.00     0.170 HD
HETATM   12  O   UNL     1     -43.056 -50.378  13.554  1.00  0.00    -0.268 OA
ENDBRANCH   1   2
BRANCH   1  13
HETATM   13  C   UNL     1     -40.859 -52.609  13.522  1.00  0.00     0.222 C 
HETATM   14  O   UNL     1     -40.363 -53.290  12.625  1.00  0.00    -0.273 OA
HETATM   15  N   UNL     1     -41.827 -53.114  14.385  1.00  0.00    -0.361 N 
HETATM   16  H   UNL     1     -42.407 -52.458  14.899  1.00  0.00     0.162 HD
BRANCH  15  17
HETATM   17  C   UNL     1     -42.323 -54.460  14.122  1.00  0.00     0.127 C 
BRANCH  17  18
HETATM   18  C   UNL     1     -43.748 -54.796  14.592  1.00  0.00     0.053 C 
BRANCH  18  19
HETATM   19  C   UNL     1     -44.743 -53.695  14.212  1.00  0.00    -0.082 A 
HETATM   20  C   UNL     1     -45.116 -53.490  12.941  1.00  0.00    -0.024 A 
HETATM   21  C   UNL     1     -46.034 -52.409  12.472  1.00  0.00     0.027 A 
HETATM   22  C   UNL     1     -46.619 -51.477  13.528  1.00  0.00     0.004 A 
HETATM   23  C   UNL     1     -46.243 -51.707  14.986  1.00  0.00     0.005 A 
HETATM   24  C   UNL     1     -45.267 -52.834  15.332  1.00  0.00     0.034 A 
ENDBRANCH  18  19
ENDBRANCH  17  18
ENDBRANCH  15  17
ENDBRANCH   1  13
TORSDOF 5
ENDMDL
MODEL 4
REMARK VINA RESULT:      -5.8      2.934      6.473
REMARK  5 active torsions:
REMARK  status: ('A' for Active; 'I' for Inactive)
REMARK    1  A    between atoms: C_7  and  C_8 
REMARK    2  A    between atoms: C_8  and  C_9 
REMARK       I    between atoms: C_9  and  N_11 
REMARK    3  A    between atoms: N_11  and  C_12 
REMARK    4  A    between atoms: C_12  and  C_13 
REMARK    5  A    between atoms: C_13  and  C_14 
ROOT
HETATM    1  C   UNL     1     -44.945 -54.248  13.232  1.00  0.00     0.149 C 
ENDROOT
BRANCH   1   2
HETATM    2  C   UNL     1     -45.712 -53.339  14.160  1.00  0.00     0.041 A 
HETATM    3  C   UNL     1     -46.412 -52.224  13.858  1.00  0.00     0.018 A 
HETATM    4  N   UNL     1     -47.043 -51.434  14.796  1.00  0.00    -0.349 N 
HETATM    5  C   UNL     1     -46.569 -51.698  12.454  1.00  0.00     0.069 C 
HETATM    6  C   UNL     1     -46.993 -51.795  16.030  1.00  0.00     0.080 A 
ATOM      7  HN  UNL     1     -47.537 -50.587  14.518  1.00  0.00     0.167 HD
HETATM    8  C   UNL     1     -47.658 -50.973  17.098  1.00  0.00     0.089 C 
HETATM    9  N   UNL     1     -46.352 -52.912  16.452  1.00  0.00    -0.313 N 
HETATM   10  C   UNL     1     -45.650 -53.703  15.596  1.00  0.00     0.255 A 
HETATM   11  H   UNL     1     -46.303 -53.159  17.431  1.00  0.00     0.170 HD
HETATM   12  O   UNL     1     -44.971 -54.645  15.991  1.00  0.00    -0.268 OA
ENDBRANCH   1   2
BRANCH   1  13
HETATM   13  C   UNL     1     -43.521 -53.738  13.003  1.00  0.00     0.222 C 
HETATM   14  O   UNL     1     -43.283 -52.897  12.137  1.00  0.00    -0.273 OA
HETATM   15  N   UNL     1     -42.531 -54.234  13.846  1.00  0.00    -0.361 N 
HETATM   16  H   UNL     1     -42.700 -55.111  14.327  1.00  0.00     0.162 HD
BRANCH  15  17
HETATM   17  C   UNL     1     -41.161 -53.801  13.597  1.00  0.00     0.127 C 
BRANCH  17  18
HETATM   18  C   UNL     1     -40.659 -52.562  14.357  1.00  0.00     0.053 C 
BRANCH  18  19
HETATM   19  C   UNL     1     -39.732 -51.704  13.490  1.00  0.00    -0.082 A 
HETATM   20  C   UNL     1     -38.402 -51.714  13.656  1.00  0.00    -0.024 A 
HETATM   21  C   UNL     1     -37.429 -50.873  12.896  1.00  0.00     0.027 A 
HETATM   22  C   UNL     1     -37.989 -49.946  11.822  1.00  0.00     0.004 A 
HETATM   23  C   UNL     1     -39.493 -49.939  11.585  1.00  0.00     0.005 A 
HETATM   24  C   UNL     1     -40.386 -50.829  12.452  1.00  0.00     0.034 A 
ENDBRANCH  18  19
ENDBRANCH  17  18
ENDBRANCH  15  17
ENDBRANCH   1  13
TORSDOF 5
ENDMDL
MODEL 5
REMARK VINA RESULT:      -5.8      2.667      4.132
REMARK  5 active torsions:
REMARK  status: ('A' for Active; 'I' for Inactive)
REMARK    1  A    between atoms: C_7  and  C_8 
REMARK    2  A    between atoms: C_8  and  C_9 
REMARK       I    between atoms: C_9  and  N_11 
REMARK    3  A    between atoms: N_11  and  C_12 
REMARK    4  A    between atoms: C_12  and  C_13 
REMARK    5  A    between atoms: C_13  and  C_14 
ROOT
HETATM    1  C   UNL     1     -41.268 -54.216  12.984  1.00  0.00     0.149 C 
ENDROOT
BRANCH   1   2
HETATM    2  C   UNL     1     -40.310 -53.146  13.445  1.00  0.00     0.041 A 
HETATM    3  C   UNL     1     -39.495 -53.153  14.522  1.00  0.00     0.018 A 
HETATM    4  N   UNL     1     -38.686 -52.096  14.882  1.00  0.00    -0.349 N 
HETATM    5  C   UNL     1     -39.388 -54.317  15.474  1.00  0.00     0.069 C 
HETATM    6  C   UNL     1     -38.680 -51.051  14.131  1.00  0.00     0.080 A 
ATOM      7  HN  UNL     1     -38.108 -52.141  15.720  1.00  0.00     0.167 HD
HETATM    8  C   UNL     1     -37.822 -49.865  14.473  1.00  0.00     0.089 C 
HETATM    9  N   UNL     1     -39.427 -50.939  13.006  1.00  0.00    -0.313 N 
HETATM   10  C   UNL     1     -40.299 -51.912  12.624  1.00  0.00     0.255 A 
HETATM   11  H   UNL     1     -39.425 -50.096  12.448  1.00  0.00     0.170 HD
HETATM   12  O   UNL     1     -41.062 -51.764  11.675  1.00  0.00    -0.268 OA
ENDBRANCH   1   2
BRANCH   1  13
HETATM   13  C   UNL     1     -42.705 -53.898  13.404  1.00  0.00     0.222 C 
HETATM   14  O   UNL     1     -43.053 -53.987  14.581  1.00  0.00    -0.273 OA
HETATM   15  N   UNL     1     -43.571 -53.462  12.406  1.00  0.00    -0.361 N 
HETATM   16  H   UNL     1     -43.346 -53.680  11.441  1.00  0.00     0.162 HD
BRANCH  15  17
HETATM   17  C   UNL     1     -44.957 -53.214  12.784  1.00  0.00     0.127 C 
BRANCH  17  18
HETATM   18  C   UNL     1     -45.402 -51.749  12.931  1.00  0.00     0.053 C 
BRANCH  18  19
HETATM   19  C   UNL     1     -45.740 -51.405  14.385  1.00  0.00    -0.082 A 
HETATM   20  C   UNL     1     -46.969 -51.592  14.887  1.00  0.00    -0.024 A 
HETATM   21  C   UNL     1     -47.401 -51.236  16.271  1.00  0.00     0.027 A 
HETATM   22  C   UNL     1     -46.354 -50.635  17.203  1.00  0.00     0.004 A 
HETATM   23  C   UNL     1     -44.939 -50.444  16.673  1.00  0.00     0.005 A 
HETATM   24  C   UNL     1     -44.630 -50.824  15.223  1.00  0.00     0.034 A 
ENDBRANCH  18  19
ENDBRANCH  17  18
ENDBRANCH  15  17
ENDBRANCH   1  13
TORSDOF 5
ENDMDL
MODEL 6
REMARK VINA RESULT:      -5.7      1.741      2.719
REMARK  5 active torsions:
REMARK  status: ('A' for Active; 'I' for Inactive)
REMARK    1  A    between atoms: C_7  and  C_8 
REMARK    2  A    between atoms: C_8  and  C_9 
REMARK       I    between atoms: C_9  and  N_11 
REMARK    3  A    between atoms: N_11  and  C_12 
REMARK    4  A    between atoms: C_12  and  C_13 
REMARK    5  A    between atoms: C_13  and  C_14 
ROOT
HETATM    1  C   UNL     1     -40.513 -48.601  13.125  1.00  0.00     0.149 C 
ENDROOT
BRANCH   1   2
HETATM    2  C   UNL     1     -41.481 -48.197  12.041  1.00  0.00     0.041 A 
HETATM    3  C   UNL     1     -42.764 -48.588  11.870  1.00  0.00     0.018 A 
HETATM    4  N   UNL     1     -43.553 -48.192  10.812  1.00  0.00    -0.349 N 
HETATM    5  C   UNL     1     -43.479 -49.523  12.812  1.00  0.00     0.069 C 
HETATM    6  C   UNL     1     -43.054 -47.376   9.951  1.00  0.00     0.080 A 
ATOM      7  HN  UNL     1     -44.508 -48.536  10.714  1.00  0.00     0.167 HD
HETATM    8  C   UNL     1     -43.865 -46.912   8.773  1.00  0.00     0.089 C 
HETATM    9  N   UNL     1     -41.793 -46.887  10.034  1.00  0.00    -0.313 N 
HETATM   10  C   UNL     1     -40.933 -47.284  11.011  1.00  0.00     0.255 A 
HETATM   11  H   UNL     1     -41.414 -46.270   9.329  1.00  0.00     0.170 HD
HETATM   12  O   UNL     1     -39.756 -46.937  11.020  1.00  0.00    -0.268 OA
ENDBRANCH   1   2
BRANCH   1  13
HETATM   13  C   UNL     1     -39.988 -50.021  12.904  1.00  0.00     0.222 C 
HETATM   14  O   UNL     1     -39.149 -50.255  12.034  1.00  0.00    -0.273 OA
HETATM   15  N   UNL     1     -40.467 -51.011  13.757  1.00  0.00    -0.361 N 
HETATM   16  H   UNL     1     -41.343 -50.849  14.241  1.00  0.00     0.162 HD
BRANCH  15  17
HETATM   17  C   UNL     1     -40.019 -52.377  13.514  1.00  0.00     0.127 C 
BRANCH  17  18
HETATM   18  C   UNL     1     -40.838 -53.228  12.528  1.00  0.00     0.053 C 
BRANCH  18  19
HETATM   19  C   UNL     1     -42.132 -53.743  13.165  1.00  0.00    -0.082 A 
HETATM   20  C   UNL     1     -42.120 -54.500  14.272  1.00  0.00    -0.024 A 
HETATM   21  C   UNL     1     -43.325 -55.090  14.929  1.00  0.00     0.027 A 
HETATM   22  C   UNL     1     -44.684 -54.785  14.309  1.00  0.00     0.004 A 
HETATM   23  C   UNL     1     -44.733 -53.897  13.072  1.00  0.00     0.005 A 
HETATM   24  C   UNL     1     -43.422 -53.378  12.478  1.00  0.00     0.034 A 
ENDBRANCH  18  19
ENDBRANCH  17  18
ENDBRANCH  15  17
ENDBRANCH   1  13
TORSDOF 5
ENDMDL
MODEL 7
REMARK VINA RESULT:      -5.7      2.010      3.390
REMARK  5 active torsions:
REMARK  status: ('A' for Active; 'I' for Inactive)
REMARK    1  A    between atoms: C_7  and  C_8 
REMARK    2  A    between atoms: C_8  and  C_9 
REMARK       I    between atoms: C_9  and  N_11 
REMARK    3  A    between atoms: N_11  and  C_12 
REMARK    4  A    between atoms: C_12  and  C_13 
REMARK    5  A    between atoms: C_13  and  C_14 
ROOT
HETATM    1  C   UNL     1     -40.899 -48.130  13.248  1.00  0.00     0.149 C 
ENDROOT
BRANCH   1   2
HETATM    2  C   UNL     1     -41.592 -47.814  11.945  1.00  0.00     0.041 A 
HETATM    3  C   UNL     1     -41.170 -47.017  10.939  1.00  0.00     0.018 A 
HETATM    4  N   UNL     1     -41.906 -46.758   9.803  1.00  0.00    -0.349 N 
HETATM    5  C   UNL     1     -39.845 -46.298  10.951  1.00  0.00     0.069 C 
HETATM    6  C   UNL     1     -43.049 -47.333   9.673  1.00  0.00     0.080 A 
ATOM      7  HN  UNL     1     -41.553 -46.127   9.084  1.00  0.00     0.167 HD
HETATM    8  C   UNL     1     -43.899 -47.087   8.458  1.00  0.00     0.089 C 
HETATM    9  N   UNL     1     -43.564 -48.181  10.597  1.00  0.00    -0.313 N 
HETATM   10  C   UNL     1     -42.928 -48.432  11.774  1.00  0.00     0.255 A 
HETATM   11  H   UNL     1     -44.478 -48.598  10.485  1.00  0.00     0.170 HD
HETATM   12  O   UNL     1     -43.445 -49.102  12.661  1.00  0.00    -0.268 OA
ENDBRANCH   1   2
BRANCH   1  13
HETATM   13  C   UNL     1     -40.154 -49.464  13.174  1.00  0.00     0.222 C 
HETATM   14  O   UNL     1     -38.936 -49.498  12.999  1.00  0.00    -0.273 OA
HETATM   15  N   UNL     1     -40.908 -50.619  13.361  1.00  0.00    -0.361 N 
HETATM   16  H   UNL     1     -41.910 -50.572  13.207  1.00  0.00     0.162 HD
BRANCH  15  17
HETATM   17  C   UNL     1     -40.218 -51.897  13.232  1.00  0.00     0.127 C 
BRANCH  17  18
HETATM   18  C   UNL     1     -40.888 -52.980  12.369  1.00  0.00     0.053 C 
BRANCH  18  19
HETATM   19  C   UNL     1     -42.078 -53.620  13.090  1.00  0.00    -0.082 A 
HETATM   20  C   UNL     1     -41.920 -54.340  14.210  1.00  0.00    -0.024 A 
HETATM   21  C   UNL     1     -43.012 -55.044  14.948  1.00  0.00     0.027 A 
HETATM   22  C   UNL     1     -44.429 -54.911  14.400  1.00  0.00     0.004 A 
HETATM   23  C   UNL     1     -44.646 -54.069  13.149  1.00  0.00     0.005 A 
HETATM   24  C   UNL     1     -43.437 -53.422  12.470  1.00  0.00     0.034 A 
ENDBRANCH  18  19
ENDBRANCH  17  18
ENDBRANCH  15  17
ENDBRANCH   1  13
TORSDOF 5
ENDMDL
MODEL 8
REMARK VINA RESULT:      -5.6      2.166      3.966
REMARK  5 active torsions:
REMARK  status: ('A' for Active; 'I' for Inactive)
REMARK    1  A    between atoms: C_7  and  C_8 
REMARK    2  A    between atoms: C_8  and  C_9 
REMARK       I    between atoms: C_9  and  N_11 
REMARK    3  A    between atoms: N_11  and  C_12 
REMARK    4  A    between atoms: C_12  and  C_13 
REMARK    5  A    between atoms: C_13  and  C_14 
ROOT
HETATM    1  C   UNL     1     -42.750 -49.218  13.185  1.00  0.00     0.149 C 
ENDROOT
BRANCH   1   2
HETATM    2  C   UNL     1     -41.345 -49.617  12.807  1.00  0.00     0.041 A 
HETATM    3  C   UNL     1     -40.394 -50.186  13.581  1.00  0.00     0.018 A 
HETATM    4  N   UNL     1     -39.118 -50.471  13.147  1.00  0.00    -0.349 N 
HETATM    5  C   UNL     1     -40.615 -50.560  15.025  1.00  0.00     0.069 C 
HETATM    6  C   UNL     1     -38.818 -50.212  11.923  1.00  0.00     0.080 A 
ATOM      7  HN  UNL     1     -38.429 -50.877  13.779  1.00  0.00     0.167 HD
HETATM    8  C   UNL     1     -37.441 -50.496  11.393  1.00  0.00     0.089 C 
HETATM    9  N   UNL     1     -39.696 -49.674  11.041  1.00  0.00    -0.313 N 
HETATM   10  C   UNL     1     -40.951 -49.303  11.413  1.00  0.00     0.255 A 
HETATM   11  H   UNL     1     -39.428 -49.453  10.092  1.00  0.00     0.170 HD
HETATM   12  O   UNL     1     -41.705 -48.708  10.651  1.00  0.00    -0.268 OA
ENDBRANCH   1   2
BRANCH   1  13
HETATM   13  C   UNL     1     -43.599 -50.439  13.544  1.00  0.00     0.222 C 
HETATM   14  O   UNL     1     -44.137 -50.532  14.647  1.00  0.00    -0.273 OA
HETATM   15  N   UNL     1     -43.768 -51.402  12.554  1.00  0.00    -0.361 N 
HETATM   16  H   UNL     1     -43.095 -51.440  11.796  1.00  0.00     0.162 HD
BRANCH  15  17
HETATM   17  C   UNL     1     -44.525 -52.598  12.906  1.00  0.00     0.127 C 
BRANCH  17  18
HETATM   18  C   UNL     1     -43.852 -53.960  12.665  1.00  0.00     0.053 C 
BRANCH  18  19
HETATM   19  C   UNL     1     -42.567 -54.108  13.485  1.00  0.00    -0.082 A 
HETATM   20  C   UNL     1     -41.358 -53.895  12.945  1.00  0.00    -0.024 A 
HETATM   21  C   UNL     1     -40.053 -54.068  13.651  1.00  0.00     0.027 A 
HETATM   22  C   UNL     1     -40.096 -54.495  15.114  1.00  0.00     0.004 A 
HETATM   23  C   UNL     1     -41.456 -54.710  15.766  1.00  0.00     0.005 A 
HETATM   24  C   UNL     1     -42.721 -54.527  14.924  1.00  0.00     0.034 A 
ENDBRANCH  18  19
ENDBRANCH  17  18
ENDBRANCH  15  17
ENDBRANCH   1  13
TORSDOF 5
ENDMDL
MODEL 9
REMARK VINA RESULT:      -5.6      2.506      3.634
REMARK  5 active torsions:
REMARK  status: ('A' for Active; 'I' for Inactive)
REMARK    1  A    between atoms: C_7  and  C_8 
REMARK    2  A    between atoms: C_8  and  C_9 
REMARK       I    between atoms: C_9  and  N_11 
REMARK    3  A    between atoms: N_11  and  C_12 
REMARK    4  A    between atoms: C_12  and  C_13 
REMARK    5  A    between atoms: C_13  and  C_14 
ROOT
HETATM    1  C   UNL     1     -43.514 -48.417  11.993  1.00  0.00     0.149 C 
ENDROOT
BRANCH   1   2
HETATM    2  C   UNL     1     -42.669 -47.186  11.776  1.00  0.00     0.041 A 
HETATM    3  C   UNL     1     -42.515 -46.117  12.589  1.00  0.00     0.018 A 
HETATM    4  N   UNL     1     -41.749 -45.015  12.274  1.00  0.00    -0.349 N 
HETATM    5  C   UNL     1     -43.182 -45.996  13.936  1.00  0.00     0.069 C 
HETATM    6  C   UNL     1     -41.116 -45.013  11.154  1.00  0.00     0.080 A 
ATOM      7  HN  UNL     1     -41.686 -44.222  12.912  1.00  0.00     0.167 HD
HETATM    8  C   UNL     1     -40.268 -43.839  10.753  1.00  0.00     0.089 C 
HETATM    9  N   UNL     1     -41.163 -46.041  10.271  1.00  0.00    -0.313 N 
HETATM   10  C   UNL     1     -41.950 -47.131  10.482  1.00  0.00     0.255 A 
HETATM   11  H   UNL     1     -40.679 -46.004   9.385  1.00  0.00     0.170 HD
HETATM   12  O   UNL     1     -42.088 -48.006   9.633  1.00  0.00    -0.268 OA
ENDBRANCH   1   2
BRANCH   1  13
HETATM   13  C   UNL     1     -42.711 -49.533  12.665  1.00  0.00     0.222 C 
HETATM   14  O   UNL     1     -42.784 -49.720  13.879  1.00  0.00    -0.273 OA
HETATM   15  N   UNL     1     -41.942 -50.343  11.835  1.00  0.00    -0.361 N 
HETATM   16  H   UNL     1     -41.678 -49.989  10.922  1.00  0.00     0.162 HD
BRANCH  15  17
HETATM   17  C   UNL     1     -41.126 -51.370  12.473  1.00  0.00     0.127 C 
BRANCH  17  18
HETATM   18  C   UNL     1     -41.344 -52.827  12.029  1.00  0.00     0.053 C 
BRANCH  18  19
HETATM   19  C   UNL     1     -42.417 -53.520  12.875  1.00  0.00    -0.082 A 
HETATM   20  C   UNL     1     -42.103 -54.229  13.969  1.00  0.00    -0.024 A 
HETATM   21  C   UNL     1     -43.073 -54.981  14.820  1.00  0.00     0.027 A 
HETATM   22  C   UNL     1     -44.546 -54.916  14.433  1.00  0.00     0.004 A 
HETATM   23  C   UNL     1     -44.939 -54.088  13.216  1.00  0.00     0.005 A 
HETATM   24  C   UNL     1     -43.844 -53.386  12.410  1.00  0.00     0.034 A 
ENDBRANCH  18  19
ENDBRANCH  17  18
ENDBRANCH  15  17
ENDBRANCH   1  13
TORSDOF 5
ENDMDL
