MODEL 1
REMARK VINA RESULT:      -6.5      0.000      0.000
REMARK  4 active torsions:
REMARK  status: ('A' for Active; 'I' for Inactive)
REMARK    1  A    between atoms: C_3  and  C_12 
REMARK    2  A    between atoms: N_5  and  C_19 
REMARK    3  A    between atoms: C_7  and  N_11 
REMARK    4  A    between atoms: N_11  and  C_12 
ROOT
HETATM    1  C   UNL     1     -42.263 -50.250  12.841  1.00  0.00     0.167 C 
ENDROOT
BRANCH   1   2
HETATM    2  C   UNL     1     -43.218 -51.401  12.913  1.00  0.00     0.043 A 
HETATM    3  C   UNL     1     -42.625 -52.669  12.409  1.00  0.00     0.258 A 
HETATM    4  N   UNL     1     -43.428 -53.768  12.430  1.00  0.00    -0.275 N 
HETATM    5  O   UNL     1     -41.467 -52.724  12.005  1.00  0.00    -0.267 OA
HETATM    6  C   UNL     1     -44.684 -53.834  12.967  1.00  0.00     0.329 A 
HETATM    7  H   UNL     1     -43.029 -54.635  12.109  1.00  0.00     0.173 HD
HETATM    8  N   UNL     1     -45.204 -52.626  13.413  1.00  0.00    -0.309 N 
HETATM    9  O   UNL     1     -45.268 -54.912  13.037  1.00  0.00    -0.246 OA
HETATM   10  C   UNL     1     -44.474 -51.451  13.374  1.00  0.00     0.110 A 
BRANCH   8  11
HETATM   11  C   UNL     1     -46.534 -52.617  14.023  1.00  0.00     0.128 C 
HETATM   12  C   UNL     1     -46.758 -51.379  14.880  1.00  0.00     0.027 C 
ENDBRANCH   8  11
ENDBRANCH   1   2
BRANCH   1  13
HETATM   13  N   UNL     1     -41.872 -49.845  11.517  1.00  0.00    -0.371 N 
HETATM   14  H   UNL     1     -41.729 -50.519  10.779  1.00  0.00     0.161 HD
BRANCH  13  15
HETATM   15  C   UNL     1     -41.738 -48.566  11.050  1.00  0.00     0.109 A 
HETATM   16  N   UNL     1     -42.742 -48.257  10.205  1.00  0.00    -0.338 N 
HETATM   17  C   UNL     1     -42.738 -47.046   9.631  1.00  0.00     0.181 A 
ATOM     18  HN  UNL     1     -43.486 -48.928  10.008  1.00  0.00     0.168 HD
HETATM   19  N   UNL     1     -41.826 -46.092   9.821  1.00  0.00    -0.361 N 
HETATM   20  C   UNL     1     -40.846 -46.426  10.675  1.00  0.00     0.099 A 
ATOM     21  HN  UNL     1     -41.870 -45.185   9.356  1.00  0.00     0.166 HD
HETATM   22  C   UNL     1     -40.738 -47.646  11.337  1.00  0.00    -0.003 A 
HETATM   23  C   UNL     1     -39.560 -47.779  12.249  1.00  0.00     0.054 C 
ENDBRANCH  13  15
ENDBRANCH   1  13
TORSDOF 4
ENDMDL
MODEL 2
REMARK VINA RESULT:      -6.1      3.785      6.854
REMARK  4 active torsions:
REMARK  status: ('A' for Active; 'I' for Inactive)
REMARK    1  A    between atoms: C_3  and  C_12 
REMARK    2  A    between atoms: N_5  and  C_19 
REMARK    3  A    between atoms: C_7  and  N_11 
REMARK    4  A    between atoms: N_11  and  C_12 
ROOT
HETATM    1  C   UNL     1     -45.167 -55.170  13.971  1.00  0.00     0.167 C 
ENDROOT
BRANCH   1   2
HETATM    2  C   UNL     1     -43.957 -54.368  13.603  1.00  0.00     0.043 A 
HETATM    3  C   UNL     1     -44.209 -53.436  12.471  1.00  0.00     0.258 A 
HETATM    4  N   UNL     1     -43.159 -52.672  12.064  1.00  0.00    -0.275 N 
HETATM    5  O   UNL     1     -45.312 -53.352  11.939  1.00  0.00    -0.267 OA
HETATM    6  C   UNL     1     -41.932 -52.609  12.666  1.00  0.00     0.329 A 
HETATM    7  H   UNL     1     -43.326 -52.024  11.312  1.00  0.00     0.173 HD
HETATM    8  N   UNL     1     -41.734 -53.505  13.709  1.00  0.00    -0.309 N 
HETATM    9  O   UNL     1     -41.099 -51.793  12.281  1.00  0.00    -0.246 OA
HETATM   10  C   UNL     1     -42.733 -54.356  14.146  1.00  0.00     0.110 A 
BRANCH   8  11
HETATM   11  C   UNL     1     -40.456 -53.483  14.419  1.00  0.00     0.128 C 
HETATM   12  C   UNL     1     -39.492 -54.534  13.886  1.00  0.00     0.027 C 
ENDBRANCH   8  11
ENDBRANCH   1   2
BRANCH   1  13
HETATM   13  N   UNL     1     -46.286 -54.417  14.472  1.00  0.00    -0.371 N 
HETATM   14  H   UNL     1     -47.225 -54.578  14.137  1.00  0.00     0.161 HD
BRANCH  13  15
HETATM   15  C   UNL     1     -46.275 -53.496  15.485  1.00  0.00     0.109 A 
HETATM   16  N   UNL     1     -45.996 -54.086  16.665  1.00  0.00    -0.338 N 
HETATM   17  C   UNL     1     -45.982 -53.324  17.767  1.00  0.00     0.181 A 
ATOM     18  HN  UNL     1     -45.802 -55.087  16.717  1.00  0.00     0.168 HD
HETATM   19  N   UNL     1     -46.213 -52.012  17.814  1.00  0.00    -0.361 N 
HETATM   20  C   UNL     1     -46.476 -51.452  16.623  1.00  0.00     0.099 A 
ATOM     21  HN  UNL     1     -46.191 -51.478  18.683  1.00  0.00     0.166 HD
HETATM   22  C   UNL     1     -46.518 -52.131  15.409  1.00  0.00    -0.003 A 
HETATM   23  C   UNL     1     -46.823 -51.287  14.212  1.00  0.00     0.054 C 
ENDBRANCH  13  15
ENDBRANCH   1  13
TORSDOF 4
ENDMDL
MODEL 3
REMARK VINA RESULT:      -6.1      1.833      2.196
REMARK  4 active torsions:
REMARK  status: ('A' for Active; 'I' for Inactive)
REMARK    1  A    between atoms: C_3  and  C_12 
REMARK    2  A    between atoms: N_5  and  C_19 
REMARK    3  A    between atoms: C_7  and  N_11 
REMARK    4  A    between atoms: N_11  and  C_12 
ROOT
HETATM    1  C   UNL     1     -40.838 -52.579  12.479  1.00  0.00     0.167 C 
ENDROOT
BRANCH   1   2
HETATM    2  C   UNL     1     -42.150 -53.124  12.955  1.00  0.00     0.043 A 
HETATM    3  C   UNL     1     -41.990 -54.179  13.990  1.00  0.00     0.258 A 
HETATM    4  N   UNL     1     -43.133 -54.737  14.474  1.00  0.00    -0.275 N 
HETATM    5  O   UNL     1     -40.883 -54.522  14.397  1.00  0.00    -0.267 OA
HETATM    6  C   UNL     1     -44.408 -54.343  14.172  1.00  0.00     0.329 A 
HETATM    7  H   UNL     1     -43.036 -55.438  15.190  1.00  0.00     0.173 HD
HETATM    8  N   UNL     1     -44.512 -53.365  13.191  1.00  0.00    -0.309 N 
HETATM    9  O   UNL     1     -45.363 -54.842  14.762  1.00  0.00    -0.246 OA
HETATM   10  C   UNL     1     -43.398 -52.788  12.608  1.00  0.00     0.110 A 
BRANCH   8  11
HETATM   11  C   UNL     1     -45.841 -52.873  12.829  1.00  0.00     0.128 C 
HETATM   12  C   UNL     1     -46.182 -51.576  13.549  1.00  0.00     0.027 C 
ENDBRANCH   8  11
ENDBRANCH   1   2
BRANCH   1  13
HETATM   13  N   UNL     1     -40.908 -51.652  11.381  1.00  0.00    -0.371 N 
HETATM   14  H   UNL     1     -41.310 -51.915  10.492  1.00  0.00     0.161 HD
BRANCH  13  15
HETATM   15  C   UNL     1     -40.561 -50.329  11.393  1.00  0.00     0.109 A 
HETATM   16  N   UNL     1     -41.587 -49.560  10.978  1.00  0.00    -0.338 N 
HETATM   17  C   UNL     1     -41.396 -48.236  10.899  1.00  0.00     0.181 A 
ATOM     18  HN  UNL     1     -42.486 -49.976  10.730  1.00  0.00     0.168 HD
HETATM   19  N   UNL     1     -40.272 -47.587  11.204  1.00  0.00    -0.361 N 
HETATM   20  C   UNL     1     -39.273 -48.378  11.625  1.00  0.00     0.099 A 
ATOM     21  HN  UNL     1     -40.180 -46.574  11.125  1.00  0.00     0.166 HD
HETATM   22  C   UNL     1     -39.345 -49.762  11.753  1.00  0.00    -0.003 A 
HETATM   23  C   UNL     1     -38.100 -50.426  12.252  1.00  0.00     0.054 C 
ENDBRANCH  13  15
ENDBRANCH   1  13
TORSDOF 4
ENDMDL
MODEL 4
REMARK VINA RESULT:      -5.9      2.549      3.310
REMARK  4 active torsions:
REMARK  status: ('A' for Active; 'I' for Inactive)
REMARK    1  A    between atoms: C_3  and  C_12 
REMARK    2  A    between atoms: N_5  and  C_19 
REMARK    3  A    between atoms: C_7  and  N_11 
REMARK    4  A    between atoms: N_11  and  C_12 
ROOT
HETATM    1  C   UNL     1     -42.570 -48.844  11.969  1.00  0.00     0.167 C 
ENDROOT
BRANCH   1   2
HETATM    2  C   UNL     1     -42.079 -50.225  12.279  1.00  0.00     0.043 A 
HETATM    3  C   UNL     1     -40.723 -50.488  11.727  1.00  0.00     0.258 A 
HETATM    4  N   UNL     1     -40.201 -51.724  11.954  1.00  0.00    -0.275 N 
HETATM    5  O   UNL     1     -40.101 -49.630  11.107  1.00  0.00    -0.267 OA
HETATM    6  C   UNL     1     -40.762 -52.701  12.729  1.00  0.00     0.329 A 
HETATM    7  H   UNL     1     -39.275 -51.904  11.602  1.00  0.00     0.173 HD
HETATM    8  N   UNL     1     -42.034 -52.420  13.213  1.00  0.00    -0.309 N 
HETATM    9  O   UNL     1     -40.142 -53.736  12.961  1.00  0.00    -0.246 OA
HETATM   10  C   UNL     1     -42.658 -51.208  12.978  1.00  0.00     0.110 A 
BRANCH   8  11
HETATM   11  C   UNL     1     -42.692 -53.406  14.070  1.00  0.00     0.128 C 
HETATM   12  C   UNL     1     -42.589 -53.037  15.543  1.00  0.00     0.027 C 
ENDBRANCH   8  11
ENDBRANCH   1   2
BRANCH   1  13
HETATM   13  N   UNL     1     -42.750 -48.544  10.574  1.00  0.00    -0.371 N 
HETATM   14  H   UNL     1     -42.375 -49.143   9.851  1.00  0.00     0.161 HD
BRANCH  13  15
HETATM   15  C   UNL     1     -43.491 -47.527  10.036  1.00  0.00     0.109 A 
HETATM   16  N   UNL     1     -44.720 -47.961   9.691  1.00  0.00    -0.338 N 
HETATM   17  C   UNL     1     -45.561 -47.091   9.115  1.00  0.00     0.181 A 
ATOM     18  HN  UNL     1     -45.001 -48.927   9.863  1.00  0.00     0.168 HD
HETATM   19  N   UNL     1     -45.303 -45.810   8.852  1.00  0.00    -0.361 N 
HETATM   20  C   UNL     1     -44.076 -45.405   9.217  1.00  0.00     0.099 A 
ATOM     21  HN  UNL     1     -45.981 -45.189   8.410  1.00  0.00     0.166 HD
HETATM   22  C   UNL     1     -43.114 -46.208   9.824  1.00  0.00    -0.003 A 
HETATM   23  C   UNL     1     -41.822 -45.526  10.147  1.00  0.00     0.054 C 
ENDBRANCH  13  15
ENDBRANCH   1  13
TORSDOF 4
ENDMDL
MODEL 5
REMARK VINA RESULT:      -5.7      2.133      3.082
REMARK  4 active torsions:
REMARK  status: ('A' for Active; 'I' for Inactive)
REMARK    1  A    between atoms: C_3  and  C_12 
REMARK    2  A    between atoms: N_5  and  C_19 
REMARK    3  A    between atoms: C_7  and  N_11 
REMARK    4  A    between atoms: N_11  and  C_12 
ROOT
HETATM    1  C   UNL     1     -44.101 -50.418  13.849  1.00  0.00     0.167 C 
ENDROOT
BRANCH   1   2
HETATM    2  C   UNL     1     -44.403 -51.881  13.957  1.00  0.00     0.043 A 
HETATM    3  C   UNL     1     -45.707 -52.244  13.339  1.00  0.00     0.258 A 
HETATM    4  N   UNL     1     -46.066 -53.555  13.399  1.00  0.00    -0.275 N 
HETATM    5  O   UNL     1     -46.417 -51.405  12.793  1.00  0.00    -0.267 OA
HETATM    6  C   UNL     1     -45.294 -54.577  13.879  1.00  0.00     0.329 A 
HETATM    7  H   UNL     1     -46.938 -53.813  12.966  1.00  0.00     0.173 HD
HETATM    8  N   UNL     1     -44.092 -54.193  14.459  1.00  0.00    -0.309 N 
HETATM    9  O   UNL     1     -45.676 -55.739  13.772  1.00  0.00    -0.246 OA
HETATM   10  C   UNL     1     -43.679 -52.873  14.489  1.00  0.00     0.110 A 
BRANCH   8  11
HETATM   11  C   UNL     1     -43.199 -55.230  14.974  1.00  0.00     0.128 C 
HETATM   12  C   UNL     1     -41.785 -54.709  15.185  1.00  0.00     0.027 C 
ENDBRANCH   8  11
ENDBRANCH   1   2
BRANCH   1  13
HETATM   13  N   UNL     1     -43.765 -49.946  12.532  1.00  0.00    -0.371 N 
HETATM   14  H   UNL     1     -44.446 -49.930  11.786  1.00  0.00     0.161 HD
BRANCH  13  15
HETATM   15  C   UNL     1     -42.582 -49.387  12.131  1.00  0.00     0.109 A 
HETATM   16  N   UNL     1     -41.741 -50.331  11.663  1.00  0.00    -0.338 N 
HETATM   17  C   UNL     1     -40.520 -49.950  11.261  1.00  0.00     0.181 A 
ATOM     18  HN  UNL     1     -42.026 -51.310  11.617  1.00  0.00     0.168 HD
HETATM   19  N   UNL     1     -40.047 -48.704  11.270  1.00  0.00    -0.361 N 
HETATM   20  C   UNL     1     -40.911 -47.786  11.730  1.00  0.00     0.099 A 
ATOM     21  HN  UNL     1     -39.107 -48.468  10.952  1.00  0.00     0.166 HD
HETATM   22  C   UNL     1     -42.203 -48.052  12.173  1.00  0.00    -0.003 A 
HETATM   23  C   UNL     1     -42.982 -46.859  12.632  1.00  0.00     0.054 C 
ENDBRANCH  13  15
ENDBRANCH   1  13
TORSDOF 4
ENDMDL
MODEL 6
REMARK VINA RESULT:      -5.5      1.291      1.897
REMARK  4 active torsions:
REMARK  status: ('A' for Active; 'I' for Inactive)
REMARK    1  A    between atoms: C_3  and  C_12 
REMARK    2  A    between atoms: N_5  and  C_19 
REMARK    3  A    between atoms: C_7  and  N_11 
REMARK    4  A    between atoms: N_11  and  C_12 
ROOT
HETATM    1  C   UNL     1     -42.545 -49.479  13.774  1.00  0.00     0.167 C 
ENDROOT
BRANCH   1   2
HETATM    2  C   UNL     1     -43.307 -50.717  13.415  1.00  0.00     0.043 A 
HETATM    3  C   UNL     1     -42.510 -51.660  12.584  1.00  0.00     0.258 A 
HETATM    4  N   UNL     1     -43.129 -52.811  12.205  1.00  0.00    -0.275 N 
HETATM    5  O   UNL     1     -41.350 -51.416  12.266  1.00  0.00    -0.267 OA
HETATM    6  C   UNL     1     -44.371 -53.223  12.604  1.00  0.00     0.329 A 
HETATM    7  H   UNL     1     -42.591 -53.464  11.659  1.00  0.00     0.173 HD
HETATM    8  N   UNL     1     -45.085 -52.308  13.367  1.00  0.00    -0.309 N 
HETATM    9  O   UNL     1     -44.778 -54.339  12.292  1.00  0.00    -0.246 OA
HETATM   10  C   UNL     1     -44.549 -51.091  13.747  1.00  0.00     0.110 A 
BRANCH   8  11
HETATM   11  C   UNL     1     -46.412 -52.684  13.853  1.00  0.00     0.128 C 
HETATM   12  C   UNL     1     -46.907 -51.742  14.940  1.00  0.00     0.027 C 
ENDBRANCH   8  11
ENDBRANCH   1   2
BRANCH   1  13
HETATM   13  N   UNL     1     -42.946 -48.279  13.089  1.00  0.00    -0.371 N 
HETATM   14  H   UNL     1     -43.747 -47.741  13.389  1.00  0.00     0.161 HD
BRANCH  13  15
HETATM   15  C   UNL     1     -42.295 -47.660  12.057  1.00  0.00     0.109 A 
HETATM   16  N   UNL     1     -41.006 -47.425  12.376  1.00  0.00    -0.338 N 
HETATM   17  C   UNL     1     -40.237 -46.790  11.480  1.00  0.00     0.181 A 
ATOM     18  HN  UNL     1     -40.627 -47.722  13.275  1.00  0.00     0.168 HD
HETATM   19  N   UNL     1     -40.624 -46.366  10.277  1.00  0.00    -0.361 N 
HETATM   20  C   UNL     1     -41.908 -46.624   9.985  1.00  0.00     0.099 A 
ATOM     21  HN  UNL     1     -39.996 -45.886   9.633  1.00  0.00     0.166 HD
HETATM   22  C   UNL     1     -42.807 -47.276  10.824  1.00  0.00    -0.003 A 
HETATM   23  C   UNL     1     -44.185 -47.457  10.271  1.00  0.00     0.054 C 
ENDBRANCH  13  15
ENDBRANCH   1  13
TORSDOF 4
ENDMDL
MODEL 7
REMARK VINA RESULT:      -5.4      2.818      3.412
REMARK  4 active torsions:
REMARK  status: ('A' for Active; 'I' for Inactive)
REMARK    1  A    between atoms: C_3  and  C_12 
REMARK    2  A    between atoms: N_5  and  C_19 
REMARK    3  A    between atoms: C_7  and  N_11 
REMARK    4  A    between atoms: N_11  and  C_12 
ROOT
HETATM    1  C   UNL     1     -41.964 -52.103  12.086  1.00  0.00     0.167 C 
ENDROOT
BRANCH   1   2
HETATM    2  C   UNL     1     -43.068 -52.767  12.851  1.00  0.00     0.043 A 
HETATM    3  C   UNL     1     -42.597 -53.941  13.634  1.00  0.00     0.258 A 
HETATM    4  N   UNL     1     -43.538 -54.611  14.353  1.00  0.00    -0.275 N 
HETATM    5  O   UNL     1     -41.417 -54.282  13.639  1.00  0.00    -0.267 OA
HETATM    6  C   UNL     1     -44.846 -54.241  14.504  1.00  0.00     0.329 A 
HETATM    7  H   UNL     1     -43.225 -55.395  14.903  1.00  0.00     0.173 HD
HETATM    8  N   UNL     1     -45.247 -53.149  13.746  1.00  0.00    -0.309 N 
HETATM    9  O   UNL     1     -45.575 -54.858  15.277  1.00  0.00    -0.246 OA
HETATM   10  C   UNL     1     -44.364 -52.448  12.943  1.00  0.00     0.110 A 
BRANCH   8  11
HETATM   11  C   UNL     1     -46.625 -52.677  13.869  1.00  0.00     0.128 C 
HETATM   12  C   UNL     1     -46.718 -51.405  14.700  1.00  0.00     0.027 C 
ENDBRANCH   8  11
ENDBRANCH   1   2
BRANCH   1  13
HETATM   13  N   UNL     1     -41.157 -51.176  12.834  1.00  0.00    -0.371 N 
HETATM   14  H   UNL     1     -41.537 -50.649  13.608  1.00  0.00     0.161 HD
BRANCH  13  15
HETATM   15  C   UNL     1     -39.815 -50.948  12.693  1.00  0.00     0.109 A 
HETATM   16  N   UNL     1     -39.566 -50.230  11.580  1.00  0.00    -0.338 N 
HETATM   17  C   UNL     1     -38.289 -49.951  11.279  1.00  0.00     0.181 A 
ATOM     18  HN  UNL     1     -40.328 -49.908  10.983  1.00  0.00     0.168 HD
HETATM   19  N   UNL     1     -37.220 -50.312  11.988  1.00  0.00    -0.361 N 
HETATM   20  C   UNL     1     -37.502 -51.016  13.096  1.00  0.00     0.099 A 
ATOM     21  HN  UNL     1     -36.268 -50.073  11.713  1.00  0.00     0.166 HD
HETATM   22  C   UNL     1     -38.781 -51.367  13.519  1.00  0.00    -0.003 A 
HETATM   23  C   UNL     1     -38.842 -52.147  14.795  1.00  0.00     0.054 C 
ENDBRANCH  13  15
ENDBRANCH   1  13
TORSDOF 4
ENDMDL
MODEL 8
REMARK VINA RESULT:      -5.3      2.070      2.852
REMARK  4 active torsions:
REMARK  status: ('A' for Active; 'I' for Inactive)
REMARK    1  A    between atoms: C_3  and  C_12 
REMARK    2  A    between atoms: N_5  and  C_19 
REMARK    3  A    between atoms: C_7  and  N_11 
REMARK    4  A    between atoms: N_11  and  C_12 
ROOT
HETATM    1  C   UNL     1     -42.284 -53.197  12.539  1.00  0.00     0.167 C 
ENDROOT
BRANCH   1   2
HETATM    2  C   UNL     1     -43.340 -53.494  13.558  1.00  0.00     0.043 A 
HETATM    3  C   UNL     1     -42.829 -54.313  14.690  1.00  0.00     0.258 A 
HETATM    4  N   UNL     1     -43.725 -54.638  15.661  1.00  0.00    -0.275 N 
HETATM    5  O   UNL     1     -41.655 -54.668  14.752  1.00  0.00    -0.267 OA
HETATM    6  C   UNL     1     -45.017 -54.195  15.741  1.00  0.00     0.329 A 
HETATM    7  H   UNL     1     -43.384 -55.175  16.441  1.00  0.00     0.173 HD
HETATM    8  N   UNL     1     -45.457 -53.445  14.658  1.00  0.00    -0.309 N 
HETATM    9  O   UNL     1     -45.698 -54.458  16.729  1.00  0.00    -0.246 OA
HETATM   10  C   UNL     1     -44.624 -53.119  13.602  1.00  0.00     0.110 A 
BRANCH   8  11
HETATM   11  C   UNL     1     -46.820 -52.914  14.679  1.00  0.00     0.128 C 
HETATM   12  C   UNL     1     -46.843 -51.403  14.504  1.00  0.00     0.027 C 
ENDBRANCH   8  11
ENDBRANCH   1   2
BRANCH   1  13
HETATM   13  N   UNL     1     -41.432 -52.074  12.832  1.00  0.00    -0.371 N 
HETATM   14  H   UNL     1     -40.677 -52.144  13.499  1.00  0.00     0.161 HD
BRANCH  13  15
HETATM   15  C   UNL     1     -41.442 -50.849  12.223  1.00  0.00     0.109 A 
HETATM   16  N   UNL     1     -40.468 -50.767  11.295  1.00  0.00    -0.338 N 
HETATM   17  C   UNL     1     -40.321 -49.613  10.630  1.00  0.00     0.181 A 
ATOM     18  HN  UNL     1     -39.858 -51.563  11.104  1.00  0.00     0.168 HD
HETATM   19  N   UNL     1     -41.062 -48.517  10.791  1.00  0.00    -0.361 N 
HETATM   20  C   UNL     1     -42.030 -48.633  11.713  1.00  0.00     0.099 A 
ATOM     21  HN  UNL     1     -40.907 -47.661  10.257  1.00  0.00     0.166 HD
HETATM   22  C   UNL     1     -42.287 -49.774  12.467  1.00  0.00    -0.003 A 
HETATM   23  C   UNL     1     -43.429 -49.665  13.428  1.00  0.00     0.054 C 
ENDBRANCH  13  15
ENDBRANCH   1  13
TORSDOF 4
ENDMDL
MODEL 9
REMARK VINA RESULT:      -5.3      2.953      6.329
REMARK  4 active torsions:
REMARK  status: ('A' for Active; 'I' for Inactive)
REMARK    1  A    between atoms: C_3  and  C_12 
REMARK    2  A    between atoms: N_5  and  C_19 
REMARK    3  A    between atoms: C_7  and  N_11 
REMARK    4  A    between atoms: N_11  and  C_12 
ROOT
HETATM    1  C   UNL     1     -43.531 -50.094  13.566  1.00  0.00     0.167 C 
ENDROOT
BRANCH   1   2
HETATM    2  C   UNL     1     -42.132 -50.542  13.277  1.00  0.00     0.043 A 
HETATM    3  C   UNL     1     -41.545 -49.859  12.093  1.00  0.00     0.258 A 
HETATM    4  N   UNL     1     -40.276 -50.212  11.752  1.00  0.00    -0.275 N 
HETATM    5  O   UNL     1     -42.169 -49.011  11.462  1.00  0.00    -0.267 OA
HETATM    6  C   UNL     1     -39.460 -51.054  12.458  1.00  0.00     0.329 A 
HETATM    7  H   UNL     1     -39.863 -49.740  10.965  1.00  0.00     0.173 HD
HETATM    8  N   UNL     1     -40.052 -51.681  13.547  1.00  0.00    -0.309 N 
HETATM    9  O   UNL     1     -38.290 -51.206  12.118  1.00  0.00    -0.246 OA
HETATM   10  C   UNL     1     -41.357 -51.419  13.926  1.00  0.00     0.110 A 
BRANCH   8  11
HETATM   11  C   UNL     1     -39.239 -52.579  14.367  1.00  0.00     0.128 C 
HETATM   12  C   UNL     1     -39.512 -54.042  14.048  1.00  0.00     0.027 C 
ENDBRANCH   8  11
ENDBRANCH   1   2
BRANCH   1  13
HETATM   13  N   UNL     1     -44.573 -50.830  12.900  1.00  0.00    -0.371 N 
HETATM   14  H   UNL     1     -44.858 -50.606  11.957  1.00  0.00     0.161 HD
BRANCH  13  15
HETATM   15  C   UNL     1     -45.228 -51.938  13.364  1.00  0.00     0.109 A 
HETATM   16  N   UNL     1     -46.320 -51.586  14.072  1.00  0.00    -0.338 N 
HETATM   17  C   UNL     1     -47.056 -52.560  14.627  1.00  0.00     0.181 A 
ATOM     18  HN  UNL     1     -46.579 -50.606  14.183  1.00  0.00     0.168 HD
HETATM   19  N   UNL     1     -46.817 -53.868  14.540  1.00  0.00    -0.361 N 
HETATM   20  C   UNL     1     -45.730 -54.186  13.819  1.00  0.00     0.099 A 
ATOM     21  HN  UNL     1     -47.411 -54.569  14.984  1.00  0.00     0.166 HD
HETATM   22  C   UNL     1     -44.888 -53.273  13.192  1.00  0.00    -0.003 A 
HETATM   23  C   UNL     1     -43.743 -53.871  12.436  1.00  0.00     0.054 C 
ENDBRANCH  13  15
ENDBRANCH   1  13
TORSDOF 4
ENDMDL
