MODEL 1
REMARK VINA RESULT:      -6.4      0.000      0.000
REMARK  6 active torsions:
REMARK  status: ('A' for Active; 'I' for Inactive)
REMARK    1  A    between atoms: S_2  and  C_3 
REMARK    2  A    between atoms: C_6  and  N_7 
REMARK    3  A    between atoms: N_7  and  C_8 
REMARK    4  A    between atoms: C_8  and  C_9 
REMARK    5  A    between atoms: N_11  and  C_12 
REMARK    6  A    between atoms: C_12  and  C_13 
ROOT
HETATM    1  N   UNL     1     -40.310 -51.534  12.067  1.00  0.00    -0.275 NA
HETATM    2  H   UNL     1     -40.178 -52.222  11.332  1.00  0.00     0.129 HD
ENDROOT
BRANCH   1   3
HETATM    3  C   UNL     1     -40.902 -50.365  11.575  1.00  0.00     0.094 A 
HETATM    4  C   UNL     1     -41.908 -49.765  12.322  1.00  0.00     0.046 A 
HETATM    5  C   UNL     1     -42.588 -48.659  11.807  1.00  0.00     0.041 A 
HETATM    6  C   UNL     1     -42.249 -48.193  10.550  1.00  0.00     0.084 A 
HETATM    7  N   UNL     1     -41.265 -48.779   9.845  1.00  0.00    -0.293 N 
HETATM    8  N   UNL     1     -40.599 -49.868  10.361  1.00  0.00    -0.289 N 
ATOM      9  HN  UNL     1     -41.011 -48.415   8.927  1.00  0.00     0.187 HD
ATOM     10  HN  UNL     1     -39.860 -50.308   9.812  1.00  0.00     0.188 HD
BRANCH   6  11
HETATM   11  S   UNL     1     -43.123 -46.814   9.842  1.00  0.00    -0.116 SA
HETATM   12  C   UNL     1     -43.582 -47.522   8.236  1.00  0.00     0.097 C 
ENDBRANCH   6  11
ENDBRANCH   1   3
BRANCH   1  13
HETATM   13  C   UNL     1     -40.909 -52.096  13.287  1.00  0.00     0.127 C 
BRANCH  13  14
HETATM   14  C   UNL     1     -41.460 -53.517  13.010  1.00  0.00     0.163 C 
HETATM   15  C   UNL     1     -42.963 -53.494  12.653  1.00  0.00     0.305 C 
HETATM   16  N   UNL     1     -43.812 -53.104  13.806  1.00  0.00     0.093 N 
HETATM   17  C   UNL     1     -43.523 -54.027  14.925  1.00  0.00     0.298 C 
HETATM   18  C   UNL     1     -42.021 -54.090  15.254  1.00  0.00     0.198 C 
HETATM   19  O   UNL     1     -41.240 -54.435  14.104  1.00  0.00    -0.381 OA
BRANCH  16  20
HETATM   20  C   UNL     1     -45.233 -53.119  13.419  1.00  0.00     0.276 C 
BRANCH  20  21
HETATM   21  C   UNL     1     -45.892 -51.729  13.254  1.00  0.00     0.006 C 
HETATM   22  C   UNL     1     -46.805 -51.658  12.027  1.00  0.00     0.011 C 
HETATM   23  C   UNL     1     -46.685 -51.383  14.518  1.00  0.00     0.011 C 
ENDBRANCH  20  21
ENDBRANCH  16  20
ENDBRANCH  13  14
ENDBRANCH   1  13
TORSDOF 6
ENDMDL
MODEL 2
REMARK VINA RESULT:      -6.2      1.081      1.390
REMARK  6 active torsions:
REMARK  status: ('A' for Active; 'I' for Inactive)
REMARK    1  A    between atoms: S_2  and  C_3 
REMARK    2  A    between atoms: C_6  and  N_7 
REMARK    3  A    between atoms: N_7  and  C_8 
REMARK    4  A    between atoms: C_8  and  C_9 
REMARK    5  A    between atoms: N_11  and  C_12 
REMARK    6  A    between atoms: C_12  and  C_13 
ROOT
HETATM    1  N   UNL     1     -39.599 -51.381  11.955  1.00  0.00    -0.275 NA
HETATM    2  H   UNL     1     -39.442 -51.975  11.146  1.00  0.00     0.129 HD
ENDROOT
BRANCH   1   3
HETATM    3  C   UNL     1     -40.125 -50.139  11.584  1.00  0.00     0.094 A 
HETATM    4  C   UNL     1     -40.292 -49.169  12.564  1.00  0.00     0.046 A 
HETATM    5  C   UNL     1     -40.911 -47.958  12.244  1.00  0.00     0.041 A 
HETATM    6  C   UNL     1     -41.356 -47.759  10.950  1.00  0.00     0.084 A 
HETATM    7  N   UNL     1     -41.177 -48.704  10.011  1.00  0.00    -0.293 N 
HETATM    8  N   UNL     1     -40.566 -49.894  10.335  1.00  0.00    -0.289 N 
ATOM      9  HN  UNL     1     -41.495 -48.538   9.056  1.00  0.00     0.187 HD
ATOM     10  HN  UNL     1     -40.444 -50.606   9.614  1.00  0.00     0.188 HD
BRANCH   6  11
HETATM   11  S   UNL     1     -42.189 -46.247  10.515  1.00  0.00    -0.116 SA
HETATM   12  C   UNL     1     -43.277 -46.855   9.195  1.00  0.00     0.097 C 
ENDBRANCH   6  11
ENDBRANCH   1   3
BRANCH   1  13
HETATM   13  C   UNL     1     -40.289 -52.071  13.055  1.00  0.00     0.127 C 
BRANCH  13  14
HETATM   14  C   UNL     1     -41.487 -52.889  12.511  1.00  0.00     0.163 C 
HETATM   15  C   UNL     1     -42.790 -52.057  12.488  1.00  0.00     0.305 C 
HETATM   16  N   UNL     1     -43.284 -51.744  13.852  1.00  0.00     0.093 N 
HETATM   17  C   UNL     1     -43.452 -53.018  14.586  1.00  0.00     0.298 C 
HETATM   18  C   UNL     1     -42.172 -53.872  14.571  1.00  0.00     0.198 C 
HETATM   19  O   UNL     1     -41.713 -54.117  13.236  1.00  0.00    -0.381 OA
BRANCH  16  20
HETATM   20  C   UNL     1     -44.536 -50.973  13.774  1.00  0.00     0.276 C 
BRANCH  20  21
HETATM   21  C   UNL     1     -45.836 -51.809  13.832  1.00  0.00     0.006 C 
HETATM   22  C   UNL     1     -46.751 -51.387  14.985  1.00  0.00     0.011 C 
HETATM   23  C   UNL     1     -46.584 -51.690  12.501  1.00  0.00     0.011 C 
ENDBRANCH  20  21
ENDBRANCH  16  20
ENDBRANCH  13  14
ENDBRANCH   1  13
TORSDOF 6
ENDMDL
MODEL 3
REMARK VINA RESULT:      -6.1      1.740      1.887
REMARK  6 active torsions:
REMARK  status: ('A' for Active; 'I' for Inactive)
REMARK    1  A    between atoms: S_2  and  C_3 
REMARK    2  A    between atoms: C_6  and  N_7 
REMARK    3  A    between atoms: N_7  and  C_8 
REMARK    4  A    between atoms: C_8  and  C_9 
REMARK    5  A    between atoms: N_11  and  C_12 
REMARK    6  A    between atoms: C_12  and  C_13 
ROOT
HETATM    1  N   UNL     1     -40.634 -51.034  11.228  1.00  0.00    -0.275 NA
HETATM    2  H   UNL     1     -41.091 -51.417  10.406  1.00  0.00     0.129 HD
ENDROOT
BRANCH   1   3
HETATM    3  C   UNL     1     -40.525 -49.641  11.151  1.00  0.00     0.094 A 
HETATM    4  C   UNL     1     -39.732 -48.985  12.083  1.00  0.00     0.046 A 
HETATM    5  C   UNL     1     -39.689 -47.588  12.096  1.00  0.00     0.041 A 
HETATM    6  C   UNL     1     -40.451 -46.889  11.180  1.00  0.00     0.084 A 
HETATM    7  N   UNL     1     -41.205 -47.540  10.276  1.00  0.00    -0.293 N 
HETATM    8  N   UNL     1     -41.242 -48.917  10.271  1.00  0.00    -0.289 N 
ATOM      9  HN  UNL     1     -41.751 -47.013   9.594  1.00  0.00     0.187 HD
ATOM     10  HN  UNL     1     -41.825 -49.398   9.585  1.00  0.00     0.188 HD
BRANCH   6  11
HETATM   11  S   UNL     1     -40.456 -45.109  11.194  1.00  0.00    -0.116 SA
HETATM   12  C   UNL     1     -39.336 -44.779   9.805  1.00  0.00     0.097 C 
ENDBRANCH   6  11
ENDBRANCH   1   3
BRANCH   1  13
HETATM   13  C   UNL     1     -41.165 -51.571  12.490  1.00  0.00     0.127 C 
BRANCH  13  14
HETATM   14  C   UNL     1     -41.710 -53.005  12.278  1.00  0.00     0.163 C 
HETATM   15  C   UNL     1     -43.242 -53.074  12.468  1.00  0.00     0.305 C 
HETATM   16  N   UNL     1     -43.647 -52.845  13.878  1.00  0.00     0.093 N 
HETATM   17  C   UNL     1     -42.939 -53.828  14.726  1.00  0.00     0.298 C 
HETATM   18  C   UNL     1     -41.416 -53.798  14.506  1.00  0.00     0.198 C 
HETATM   19  O   UNL     1     -41.075 -53.986  13.127  1.00  0.00    -0.381 OA
BRANCH  16  20
HETATM   20  C   UNL     1     -45.111 -52.944  14.008  1.00  0.00     0.276 C 
BRANCH  20  21
HETATM   21  C   UNL     1     -45.886 -51.620  13.807  1.00  0.00     0.006 C 
HETATM   22  C   UNL     1     -46.640 -51.583  12.475  1.00  0.00     0.011 C 
HETATM   23  C   UNL     1     -46.863 -51.415  14.968  1.00  0.00     0.011 C 
ENDBRANCH  20  21
ENDBRANCH  16  20
ENDBRANCH  13  14
ENDBRANCH   1  13
TORSDOF 6
ENDMDL
MODEL 4
REMARK VINA RESULT:      -6.0      1.472      1.919
REMARK  6 active torsions:
REMARK  status: ('A' for Active; 'I' for Inactive)
REMARK    1  A    between atoms: S_2  and  C_3 
REMARK    2  A    between atoms: C_6  and  N_7 
REMARK    3  A    between atoms: N_7  and  C_8 
REMARK    4  A    between atoms: C_8  and  C_9 
REMARK    5  A    between atoms: N_11  and  C_12 
REMARK    6  A    between atoms: C_12  and  C_13 
ROOT
HETATM    1  N   UNL     1     -39.351 -51.431  12.081  1.00  0.00    -0.275 NA
HETATM    2  H   UNL     1     -39.244 -52.073  11.302  1.00  0.00     0.129 HD
ENDROOT
BRANCH   1   3
HETATM    3  C   UNL     1     -39.911 -50.216  11.671  1.00  0.00     0.094 A 
HETATM    4  C   UNL     1     -39.902 -49.148  12.559  1.00  0.00     0.046 A 
HETATM    5  C   UNL     1     -40.546 -47.957  12.218  1.00  0.00     0.041 A 
HETATM    6  C   UNL     1     -41.192 -47.874  10.998  1.00  0.00     0.084 A 
HETATM    7  N   UNL     1     -41.181 -48.913  10.146  1.00  0.00    -0.293 N 
HETATM    8  N   UNL     1     -40.544 -50.084  10.490  1.00  0.00    -0.289 N 
ATOM      9  HN  UNL     1     -41.647 -48.834   9.241  1.00  0.00     0.187 HD
ATOM     10  HN  UNL     1     -40.551 -50.868   9.837  1.00  0.00     0.188 HD
BRANCH   6  11
HETATM   11  S   UNL     1     -42.061 -46.388  10.546  1.00  0.00    -0.116 SA
HETATM   12  C   UNL     1     -40.685 -45.205  10.543  1.00  0.00     0.097 C 
ENDBRANCH   6  11
ENDBRANCH   1   3
BRANCH   1  13
HETATM   13  C   UNL     1     -39.958 -52.054  13.267  1.00  0.00     0.127 C 
BRANCH  13  14
HETATM   14  C   UNL     1     -40.669 -53.374  12.877  1.00  0.00     0.163 C 
HETATM   15  C   UNL     1     -42.203 -53.272  13.037  1.00  0.00     0.305 C 
HETATM   16  N   UNL     1     -42.616 -53.162  14.458  1.00  0.00     0.093 N 
HETATM   17  C   UNL     1     -42.058 -54.318  15.192  1.00  0.00     0.298 C 
HETATM   18  C   UNL     1     -40.538 -54.453  14.998  1.00  0.00     0.198 C 
HETATM   19  O   UNL     1     -40.184 -54.520  13.611  1.00  0.00    -0.381 OA
BRANCH  16  20
HETATM   20  C   UNL     1     -44.084 -53.091  14.556  1.00  0.00     0.276 C 
BRANCH  20  21
HETATM   21  C   UNL     1     -44.860 -53.759  13.397  1.00  0.00     0.006 C 
HETATM   22  C   UNL     1     -45.537 -55.065  13.823  1.00  0.00     0.011 C 
HETATM   23  C   UNL     1     -45.905 -52.784  12.847  1.00  0.00     0.011 C 
ENDBRANCH  20  21
ENDBRANCH  16  20
ENDBRANCH  13  14
ENDBRANCH   1  13
TORSDOF 6
ENDMDL
MODEL 5
REMARK VINA RESULT:      -5.9      1.915      2.787
REMARK  6 active torsions:
REMARK  status: ('A' for Active; 'I' for Inactive)
REMARK    1  A    between atoms: S_2  and  C_3 
REMARK    2  A    between atoms: C_6  and  N_7 
REMARK    3  A    between atoms: N_7  and  C_8 
REMARK    4  A    between atoms: C_8  and  C_9 
REMARK    5  A    between atoms: N_11  and  C_12 
REMARK    6  A    between atoms: C_12  and  C_13 
ROOT
HETATM    1  N   UNL     1     -42.118 -52.905  12.144  1.00  0.00    -0.275 NA
HETATM    2  H   UNL     1     -42.345 -53.343  11.256  1.00  0.00     0.129 HD
ENDROOT
BRANCH   1   3
HETATM    3  C   UNL     1     -41.681 -51.587  11.969  1.00  0.00     0.094 A 
HETATM    4  C   UNL     1     -42.254 -50.589  12.746  1.00  0.00     0.046 A 
HETATM    5  C   UNL     1     -41.915 -49.253  12.521  1.00  0.00     0.041 A 
HETATM    6  C   UNL     1     -41.017 -48.954  11.512  1.00  0.00     0.084 A 
HETATM    7  N   UNL     1     -40.463 -49.934  10.776  1.00  0.00    -0.293 N 
HETATM    8  N   UNL     1     -40.803 -51.248  11.006  1.00  0.00    -0.289 N 
ATOM      9  HN  UNL     1     -39.790 -49.702  10.046  1.00  0.00     0.187 HD
ATOM     10  HN  UNL     1     -40.382 -51.980  10.434  1.00  0.00     0.188 HD
BRANCH   6  11
HETATM   11  S   UNL     1     -40.594 -47.261  11.165  1.00  0.00    -0.116 SA
HETATM   12  C   UNL     1     -42.096 -46.731  10.295  1.00  0.00     0.097 C 
ENDBRANCH   6  11
ENDBRANCH   1   3
BRANCH   1  13
HETATM   13  C   UNL     1     -43.147 -53.112  13.173  1.00  0.00     0.127 C 
BRANCH  13  14
HETATM   14  C   UNL     1     -44.535 -53.311  12.514  1.00  0.00     0.163 C 
HETATM   15  C   UNL     1     -45.569 -52.282  13.024  1.00  0.00     0.305 C 
HETATM   16  N   UNL     1     -45.922 -52.496  14.449  1.00  0.00     0.093 N 
HETATM   17  C   UNL     1     -46.404 -53.886  14.601  1.00  0.00     0.298 C 
HETATM   18  C   UNL     1     -45.399 -54.913  14.051  1.00  0.00     0.198 C 
HETATM   19  O   UNL     1     -45.060 -54.646  12.686  1.00  0.00    -0.381 OA
BRANCH  16  20
HETATM   20  C   UNL     1     -46.925 -51.505  14.878  1.00  0.00     0.276 C 
BRANCH  20  21
HETATM   21  C   UNL     1     -46.710 -50.911  16.290  1.00  0.00     0.006 C 
HETATM   22  C   UNL     1     -47.555 -51.615  17.355  1.00  0.00     0.011 C 
HETATM   23  C   UNL     1     -45.226 -50.992  16.661  1.00  0.00     0.011 C 
ENDBRANCH  20  21
ENDBRANCH  16  20
ENDBRANCH  13  14
ENDBRANCH   1  13
TORSDOF 6
ENDMDL
MODEL 6
REMARK VINA RESULT:      -5.9      1.871      2.615
REMARK  6 active torsions:
REMARK  status: ('A' for Active; 'I' for Inactive)
REMARK    1  A    between atoms: S_2  and  C_3 
REMARK    2  A    between atoms: C_6  and  N_7 
REMARK    3  A    between atoms: N_7  and  C_8 
REMARK    4  A    between atoms: C_8  and  C_9 
REMARK    5  A    between atoms: N_11  and  C_12 
REMARK    6  A    between atoms: C_12  and  C_13 
ROOT
HETATM    1  N   UNL     1     -42.198 -53.806  12.788  1.00  0.00    -0.275 NA
HETATM    2  H   UNL     1     -43.059 -54.134  12.361  1.00  0.00     0.129 HD
ENDROOT
BRANCH   1   3
HETATM    3  C   UNL     1     -41.925 -52.479  12.436  1.00  0.00     0.094 A 
HETATM    4  C   UNL     1     -42.698 -51.471  12.998  1.00  0.00     0.046 A 
HETATM    5  C   UNL     1     -42.518 -50.149  12.587  1.00  0.00     0.041 A 
HETATM    6  C   UNL     1     -41.575 -49.875  11.613  1.00  0.00     0.084 A 
HETATM    7  N   UNL     1     -40.828 -50.862  11.087  1.00  0.00    -0.293 N 
HETATM    8  N   UNL     1     -41.012 -52.163  11.499  1.00  0.00    -0.289 N 
ATOM      9  HN  UNL     1     -40.124 -50.646  10.381  1.00  0.00     0.187 HD
ATOM     10  HN  UNL     1     -40.444 -52.903  11.085  1.00  0.00     0.188 HD
BRANCH   6  11
HETATM   11  S   UNL     1     -41.349 -48.209  11.031  1.00  0.00    -0.116 SA
HETATM   12  C   UNL     1     -39.747 -47.823  11.791  1.00  0.00     0.097 C 
ENDBRANCH   6  11
ENDBRANCH   1   3
BRANCH   1  13
HETATM   13  C   UNL     1     -42.102 -54.127  14.219  1.00  0.00     0.127 C 
BRANCH  13  14
HETATM   14  C   UNL     1     -43.147 -55.204  14.602  1.00  0.00     0.163 C 
HETATM   15  C   UNL     1     -44.591 -54.736  14.310  1.00  0.00     0.305 C 
HETATM   16  N   UNL     1     -45.017 -53.630  15.202  1.00  0.00     0.093 N 
HETATM   17  C   UNL     1     -44.852 -54.076  16.602  1.00  0.00     0.298 C 
HETATM   18  C   UNL     1     -43.429 -54.588  16.886  1.00  0.00     0.198 C 
HETATM   19  O   UNL     1     -43.048 -55.629  15.979  1.00  0.00    -0.381 OA
BRANCH  16  20
HETATM   20  C   UNL     1     -46.404 -53.238  14.898  1.00  0.00     0.276 C 
BRANCH  20  21
HETATM   21  C   UNL     1     -46.605 -51.755  14.509  1.00  0.00     0.006 C 
HETATM   22  C   UNL     1     -45.615 -50.826  15.217  1.00  0.00     0.011 C 
HETATM   23  C   UNL     1     -46.474 -51.599  12.991  1.00  0.00     0.011 C 
ENDBRANCH  20  21
ENDBRANCH  16  20
ENDBRANCH  13  14
ENDBRANCH   1  13
TORSDOF 6
ENDMDL
MODEL 7
REMARK VINA RESULT:      -5.7      4.242      5.936
REMARK  6 active torsions:
REMARK  status: ('A' for Active; 'I' for Inactive)
REMARK    1  A    between atoms: S_2  and  C_3 
REMARK    2  A    between atoms: C_6  and  N_7 
REMARK    3  A    between atoms: N_7  and  C_8 
REMARK    4  A    between atoms: C_8  and  C_9 
REMARK    5  A    between atoms: N_11  and  C_12 
REMARK    6  A    between atoms: C_12  and  C_13 
ROOT
HETATM    1  N   UNL     1     -42.158 -53.532  12.459  1.00  0.00    -0.275 NA
HETATM    2  H   UNL     1     -41.702 -53.032  11.702  1.00  0.00     0.129 HD
ENDROOT
BRANCH   1   3
HETATM    3  C   UNL     1     -41.224 -54.112  13.325  1.00  0.00     0.094 A 
HETATM    4  C   UNL     1     -41.583 -54.306  14.653  1.00  0.00     0.046 A 
HETATM    5  C   UNL     1     -40.637 -54.784  15.564  1.00  0.00     0.041 A 
HETATM    6  C   UNL     1     -39.354 -55.043  15.119  1.00  0.00     0.084 A 
HETATM    7  N   UNL     1     -39.027 -54.860  13.827  1.00  0.00    -0.293 N 
HETATM    8  N   UNL     1     -39.966 -54.388  12.936  1.00  0.00    -0.289 N 
ATOM      9  HN  UNL     1     -38.082 -55.070  13.507  1.00  0.00     0.187 HD
ATOM     10  HN  UNL     1     -39.702 -54.247  11.961  1.00  0.00     0.188 HD
BRANCH   6  11
HETATM   11  S   UNL     1     -38.110 -55.610  16.258  1.00  0.00    -0.116 SA
HETATM   12  C   UNL     1     -38.845 -55.067  17.825  1.00  0.00     0.097 C 
ENDBRANCH   6  11
ENDBRANCH   1   3
BRANCH   1  13
HETATM   13  C   UNL     1     -43.239 -52.764  13.095  1.00  0.00     0.127 C 
BRANCH  13  14
HETATM   14  C   UNL     1     -44.607 -53.150  12.480  1.00  0.00     0.163 C 
HETATM   15  C   UNL     1     -45.767 -52.335  13.097  1.00  0.00     0.305 C 
HETATM   16  N   UNL     1     -46.009 -52.686  14.519  1.00  0.00     0.093 N 
HETATM   17  C   UNL     1     -46.252 -54.143  14.600  1.00  0.00     0.298 C 
HETATM   18  C   UNL     1     -45.123 -54.958  13.944  1.00  0.00     0.198 C 
HETATM   19  O   UNL     1     -44.901 -54.560  12.586  1.00  0.00    -0.381 OA
BRANCH  16  20
HETATM   20  C   UNL     1     -47.136 -51.900  15.051  1.00  0.00     0.276 C 
BRANCH  20  21
HETATM   21  C   UNL     1     -46.814 -51.033  16.291  1.00  0.00     0.006 C 
HETATM   22  C   UNL     1     -47.561 -51.503  17.542  1.00  0.00     0.011 C 
HETATM   23  C   UNL     1     -45.304 -51.045  16.548  1.00  0.00     0.011 C 
ENDBRANCH  20  21
ENDBRANCH  16  20
ENDBRANCH  13  14
ENDBRANCH   1  13
TORSDOF 6
ENDMDL
MODEL 8
REMARK VINA RESULT:      -5.4      3.985      7.068
REMARK  6 active torsions:
REMARK  status: ('A' for Active; 'I' for Inactive)
REMARK    1  A    between atoms: S_2  and  C_3 
REMARK    2  A    between atoms: C_6  and  N_7 
REMARK    3  A    between atoms: N_7  and  C_8 
REMARK    4  A    between atoms: C_8  and  C_9 
REMARK    5  A    between atoms: N_11  and  C_12 
REMARK    6  A    between atoms: C_12  and  C_13 
ROOT
HETATM    1  N   UNL     1     -41.253 -47.590  10.132  1.00  0.00    -0.275 NA
HETATM    2  H   UNL     1     -40.284 -47.294  10.066  1.00  0.00     0.129 HD
ENDROOT
BRANCH   1   3
HETATM    3  C   UNL     1     -41.368 -48.831  10.768  1.00  0.00     0.094 A 
HETATM    4  C   UNL     1     -42.201 -48.935  11.875  1.00  0.00     0.046 A 
HETATM    5  C   UNL     1     -42.255 -50.132  12.592  1.00  0.00     0.041 A 
HETATM    6  C   UNL     1     -41.462 -51.189  12.187  1.00  0.00     0.084 A 
HETATM    7  N   UNL     1     -40.669 -51.075  11.107  1.00  0.00    -0.293 N 
HETATM    8  N   UNL     1     -40.622 -49.891  10.405  1.00  0.00    -0.289 N 
ATOM      9  HN  UNL     1     -40.101 -51.867  10.807  1.00  0.00     0.187 HD
ATOM     10  HN  UNL     1     -40.010 -49.816   9.592  1.00  0.00     0.188 HD
BRANCH   6  11
HETATM   11  S   UNL     1     -41.470 -52.715  13.102  1.00  0.00    -0.116 SA
HETATM   12  C   UNL     1     -39.776 -52.703  13.753  1.00  0.00     0.097 C 
ENDBRANCH   6  11
ENDBRANCH   1   3
BRANCH   1  13
HETATM   13  C   UNL     1     -42.151 -46.531  10.617  1.00  0.00     0.127 C 
BRANCH  13  14
HETATM   14  C   UNL     1     -41.346 -45.246  10.933  1.00  0.00     0.163 C 
HETATM   15  C   UNL     1     -40.055 -45.554  11.726  1.00  0.00     0.305 C 
HETATM   16  N   UNL     1     -40.338 -46.032  13.102  1.00  0.00     0.093 N 
HETATM   17  C   UNL     1     -41.175 -45.018  13.780  1.00  0.00     0.298 C 
HETATM   18  C   UNL     1     -42.438 -44.672  12.972  1.00  0.00     0.198 C 
HETATM   19  O   UNL     1     -42.118 -44.251  11.640  1.00  0.00    -0.381 OA
BRANCH  16  20
HETATM   20  C   UNL     1     -39.078 -46.289  13.820  1.00  0.00     0.276 C 
BRANCH  20  21
HETATM   21  C   UNL     1     -38.869 -47.746  14.294  1.00  0.00     0.006 C 
HETATM   22  C   UNL     1     -40.109 -48.319  14.986  1.00  0.00     0.011 C 
HETATM   23  C   UNL     1     -38.484 -48.625  13.100  1.00  0.00     0.011 C 
ENDBRANCH  20  21
ENDBRANCH  16  20
ENDBRANCH  13  14
ENDBRANCH   1  13
TORSDOF 6
ENDMDL
MODEL 9
REMARK VINA RESULT:      -5.3      2.180      3.895
REMARK  6 active torsions:
REMARK  status: ('A' for Active; 'I' for Inactive)
REMARK    1  A    between atoms: S_2  and  C_3 
REMARK    2  A    between atoms: C_6  and  N_7 
REMARK    3  A    between atoms: N_7  and  C_8 
REMARK    4  A    between atoms: C_8  and  C_9 
REMARK    5  A    between atoms: N_11  and  C_12 
REMARK    6  A    between atoms: C_12  and  C_13 
ROOT
HETATM    1  N   UNL     1     -39.755 -51.494  12.003  1.00  0.00    -0.275 NA
HETATM    2  H   UNL     1     -38.957 -51.846  11.482  1.00  0.00     0.129 HD
ENDROOT
BRANCH   1   3
HETATM    3  C   UNL     1     -40.074 -50.184  11.626  1.00  0.00     0.094 A 
HETATM    4  C   UNL     1     -39.852 -49.159  12.537  1.00  0.00     0.046 A 
HETATM    5  C   UNL     1     -40.258 -47.858  12.230  1.00  0.00     0.041 A 
HETATM    6  C   UNL     1     -40.886 -47.624  11.020  1.00  0.00     0.084 A 
HETATM    7  N   UNL     1     -41.083 -48.626  10.145  1.00  0.00    -0.293 N 
HETATM    8  N   UNL     1     -40.680 -49.905  10.457  1.00  0.00    -0.289 N 
ATOM      9  HN  UNL     1     -41.532 -48.437   9.249  1.00  0.00     0.187 HD
ATOM     10  HN  UNL     1     -40.843 -50.657   9.787  1.00  0.00     0.188 HD
BRANCH   6  11
HETATM   11  S   UNL     1     -41.456 -45.988  10.612  1.00  0.00    -0.116 SA
HETATM   12  C   UNL     1     -42.879 -46.402   9.563  1.00  0.00     0.097 C 
ENDBRANCH   6  11
ENDBRANCH   1   3
BRANCH   1  13
HETATM   13  C   UNL     1     -40.878 -52.442  12.056  1.00  0.00     0.127 C 
BRANCH  13  14
HETATM   14  C   UNL     1     -41.902 -52.003  13.132  1.00  0.00     0.163 C 
HETATM   15  C   UNL     1     -41.479 -52.454  14.548  1.00  0.00     0.305 C 
HETATM   16  N   UNL     1     -41.540 -53.927  14.714  1.00  0.00     0.093 N 
HETATM   17  C   UNL     1     -42.908 -54.374  14.377  1.00  0.00     0.298 C 
HETATM   18  C   UNL     1     -43.353 -53.888  12.986  1.00  0.00     0.198 C 
HETATM   19  O   UNL     1     -43.244 -52.465  12.861  1.00  0.00    -0.381 OA
BRANCH  16  20
HETATM   20  C   UNL     1     -41.150 -54.301  16.085  1.00  0.00     0.276 C 
BRANCH  20  21
HETATM   21  C   UNL     1     -39.763 -54.971  16.221  1.00  0.00     0.006 C 
HETATM   22  C   UNL     1     -39.855 -56.400  16.763  1.00  0.00     0.011 C 
HETATM   23  C   UNL     1     -39.056 -54.972  14.862  1.00  0.00     0.011 C 
ENDBRANCH  20  21
ENDBRANCH  16  20
ENDBRANCH  13  14
ENDBRANCH   1  13
TORSDOF 6
ENDMDL
