MODEL 1
REMARK VINA RESULT:      -5.5      0.000      0.000
REMARK  4 active torsions:
REMARK  status: ('A' for Active; 'I' for Inactive)
REMARK    1  A    between atoms: C_1  and  C_2 
REMARK    2  A    between atoms: C_1  and  N_9 
REMARK    3  A    between atoms: C_2  and  N_3 
REMARK    4  A    between atoms: N_9  and  C_10 
ROOT
HETATM    1  N   UNL     1     -43.752 -53.106  11.980  1.00  0.00     0.089 N 
HETATM    2  H   UNL     1     -43.419 -54.072  11.970  1.00  0.00     0.316 HD
ENDROOT
BRANCH   1   3
HETATM    3  C   UNL     1     -42.716 -52.231  12.555  1.00  0.00     0.291 C 
BRANCH   3   4
HETATM    4  C   UNL     1     -41.339 -52.434  11.921  1.00  0.00     0.178 C 
BRANCH   4   5
HETATM    5  N   UNL     1     -40.427 -53.011  12.896  1.00  0.00    -0.302 N 
HETATM    6  C   UNL     1     -39.751 -52.345  13.879  1.00  0.00     0.111 A 
HETATM    7  C   UNL     1     -39.107 -53.312  14.617  1.00  0.00     0.037 A 
HETATM    8  C   UNL     1     -39.455 -54.526  13.999  1.00  0.00     0.108 A 
HETATM    9  N   UNL     1     -40.260 -54.347  12.949  1.00  0.00    -0.310 N 
ATOM     10  HN  UNL     1     -40.656 -55.056  12.331  1.00  0.00     0.186 HD
ENDBRANCH   4   5
ENDBRANCH   3   4
ENDBRANCH   1   3
BRANCH   1  11
HETATM   11  C   UNL     1     -45.027 -53.035  12.727  1.00  0.00     0.220 C 
HETATM   12  C   UNL     1     -45.215 -51.675  13.434  1.00  0.00     0.035 C 
HETATM   13  C   UNL     1     -46.655 -51.442  13.883  1.00  0.00     0.002 C 
HETATM   14  C   UNL     1     -46.983 -51.947  15.280  1.00  0.00     0.000 C 
HETATM   15  C   UNL     1     -46.356 -53.274  15.694  1.00  0.00     0.000 C 
HETATM   16  C   UNL     1     -46.288 -54.330  14.592  1.00  0.00     0.002 C 
HETATM   17  C   UNL     1     -45.035 -54.215  13.719  1.00  0.00     0.035 C 
ENDBRANCH   1  11
TORSDOF 4
ENDMDL
MODEL 2
REMARK VINA RESULT:      -5.5      1.946      2.900
REMARK  4 active torsions:
REMARK  status: ('A' for Active; 'I' for Inactive)
REMARK    1  A    between atoms: C_1  and  C_2 
REMARK    2  A    between atoms: C_1  and  N_9 
REMARK    3  A    between atoms: C_2  and  N_3 
REMARK    4  A    between atoms: N_9  and  C_10 
ROOT
HETATM    1  N   UNL     1     -43.486 -53.062  11.879  1.00  0.00     0.089 N 
HETATM    2  H   UNL     1     -43.306 -53.999  11.513  1.00  0.00     0.316 HD
ENDROOT
BRANCH   1   3
HETATM    3  C   UNL     1     -42.376 -52.650  12.755  1.00  0.00     0.291 C 
BRANCH   3   4
HETATM    4  C   UNL     1     -41.164 -52.127  11.983  1.00  0.00     0.178 C 
BRANCH   4   5
HETATM    5  N   UNL     1     -41.310 -50.701  11.740  1.00  0.00    -0.302 N 
HETATM    6  C   UNL     1     -42.037 -49.814  12.483  1.00  0.00     0.111 A 
HETATM    7  C   UNL     1     -41.786 -48.574  11.944  1.00  0.00     0.037 A 
HETATM    8  C   UNL     1     -40.900 -48.817  10.880  1.00  0.00     0.108 A 
HETATM    9  N   UNL     1     -40.606 -50.114  10.752  1.00  0.00    -0.310 N 
ATOM     10  HN  UNL     1     -39.993 -50.556  10.066  1.00  0.00     0.186 HD
ENDBRANCH   4   5
ENDBRANCH   3   4
ENDBRANCH   1   3
BRANCH   1  11
HETATM   11  C   UNL     1     -44.790 -53.053  12.581  1.00  0.00     0.220 C 
HETATM   12  C   UNL     1     -45.082 -51.693  13.252  1.00  0.00     0.035 C 
HETATM   13  C   UNL     1     -46.548 -51.538  13.646  1.00  0.00     0.002 C 
HETATM   14  C   UNL     1     -46.896 -52.035  15.041  1.00  0.00     0.000 C 
HETATM   15  C   UNL     1     -46.209 -53.315  15.503  1.00  0.00     0.000 C 
HETATM   16  C   UNL     1     -46.040 -54.385  14.426  1.00  0.00     0.002 C 
HETATM   17  C   UNL     1     -44.765 -54.212  13.595  1.00  0.00     0.035 C 
ENDBRANCH   1  11
TORSDOF 4
ENDMDL
MODEL 3
REMARK VINA RESULT:      -5.5      2.071      2.960
REMARK  4 active torsions:
REMARK  status: ('A' for Active; 'I' for Inactive)
REMARK    1  A    between atoms: C_1  and  C_2 
REMARK    2  A    between atoms: C_1  and  N_9 
REMARK    3  A    between atoms: C_2  and  N_3 
REMARK    4  A    between atoms: N_9  and  C_10 
ROOT
HETATM    1  N   UNL     1     -42.686 -52.503  11.810  1.00  0.00     0.089 N 
HETATM    2  H   UNL     1     -42.679 -53.392  11.305  1.00  0.00     0.316 HD
ENDROOT
BRANCH   1   3
HETATM    3  C   UNL     1     -41.315 -52.152  12.215  1.00  0.00     0.291 C 
BRANCH   3   4
HETATM    4  C   UNL     1     -40.897 -50.751  11.768  1.00  0.00     0.178 C 
BRANCH   4   5
HETATM    5  N   UNL     1     -39.462 -50.585  11.938  1.00  0.00    -0.302 N 
HETATM    6  C   UNL     1     -38.696 -51.078  12.956  1.00  0.00     0.111 A 
HETATM    7  C   UNL     1     -37.395 -50.768  12.636  1.00  0.00     0.037 A 
HETATM    8  C   UNL     1     -37.480 -50.087  11.408  1.00  0.00     0.108 A 
HETATM    9  N   UNL     1     -38.740 -49.973  10.979  1.00  0.00    -0.310 N 
ATOM     10  HN  UNL     1     -39.076 -49.527  10.125  1.00  0.00     0.186 HD
ENDBRANCH   4   5
ENDBRANCH   3   4
ENDBRANCH   1   3
BRANCH   1  11
HETATM   11  C   UNL     1     -43.606 -52.604  12.965  1.00  0.00     0.220 C 
HETATM   12  C   UNL     1     -44.764 -53.592  12.705  1.00  0.00     0.035 C 
HETATM   13  C   UNL     1     -45.491 -53.992  13.986  1.00  0.00     0.002 C 
HETATM   14  C   UNL     1     -46.658 -53.094  14.371  1.00  0.00     0.000 C 
HETATM   15  C   UNL     1     -46.475 -51.598  14.140  1.00  0.00     0.000 C 
HETATM   16  C   UNL     1     -45.079 -51.060  14.446  1.00  0.00     0.002 C 
HETATM   17  C   UNL     1     -44.111 -51.179  13.265  1.00  0.00     0.035 C 
ENDBRANCH   1  11
TORSDOF 4
ENDMDL
MODEL 4
REMARK VINA RESULT:      -4.8      3.678      5.765
REMARK  4 active torsions:
REMARK  status: ('A' for Active; 'I' for Inactive)
REMARK    1  A    between atoms: C_1  and  C_2 
REMARK    2  A    between atoms: C_1  and  N_9 
REMARK    3  A    between atoms: C_2  and  N_3 
REMARK    4  A    between atoms: N_9  and  C_10 
ROOT
HETATM    1  N   UNL     1     -40.655 -50.415  11.032  1.00  0.00     0.089 N 
HETATM    2  H   UNL     1     -41.084 -50.902  10.244  1.00  0.00     0.316 HD
ENDROOT
BRANCH   1   3
HETATM    3  C   UNL     1     -41.011 -51.096  12.289  1.00  0.00     0.291 C 
BRANCH   3   4
HETATM    4  C   UNL     1     -40.894 -52.618  12.201  1.00  0.00     0.178 C 
BRANCH   4   5
HETATM    5  N   UNL     1     -42.144 -53.235  12.615  1.00  0.00    -0.302 N 
HETATM    6  C   UNL     1     -42.345 -54.014  13.719  1.00  0.00     0.111 A 
HETATM    7  C   UNL     1     -43.696 -54.272  13.759  1.00  0.00     0.037 A 
HETATM    8  C   UNL     1     -44.221 -53.607  12.637  1.00  0.00     0.108 A 
HETATM    9  N   UNL     1     -43.278 -52.973  11.936  1.00  0.00    -0.310 N 
ATOM     10  HN  UNL     1     -43.390 -52.420  11.086  1.00  0.00     0.186 HD
ENDBRANCH   4   5
ENDBRANCH   3   4
ENDBRANCH   1   3
BRANCH   1  11
HETATM   11  C   UNL     1     -41.077 -48.996  11.021  1.00  0.00     0.220 C 
HETATM   12  C   UNL     1     -39.994 -48.061  11.602  1.00  0.00     0.035 C 
HETATM   13  C   UNL     1     -40.242 -46.594  11.259  1.00  0.00     0.002 C 
HETATM   14  C   UNL     1     -41.100 -45.836  12.260  1.00  0.00     0.000 C 
HETATM   15  C   UNL     1     -42.276 -46.592  12.866  1.00  0.00     0.000 C 
HETATM   16  C   UNL     1     -43.020 -47.516  11.903  1.00  0.00     0.002 C 
HETATM   17  C   UNL     1     -42.401 -48.913  11.804  1.00  0.00     0.035 C 
ENDBRANCH   1  11
TORSDOF 4
ENDMDL
MODEL 5
REMARK VINA RESULT:      -4.7      4.000      5.928
REMARK  4 active torsions:
REMARK  status: ('A' for Active; 'I' for Inactive)
REMARK    1  A    between atoms: C_1  and  C_2 
REMARK    2  A    between atoms: C_1  and  N_9 
REMARK    3  A    between atoms: C_2  and  N_3 
REMARK    4  A    between atoms: N_9  and  C_10 
ROOT
HETATM    1  N   UNL     1     -41.718 -49.832  12.977  1.00  0.00     0.089 N 
HETATM    2  H   UNL     1     -41.834 -49.683  13.982  1.00  0.00     0.316 HD
ENDROOT
BRANCH   1   3
HETATM    3  C   UNL     1     -42.518 -48.844  12.235  1.00  0.00     0.291 C 
BRANCH   3   4
HETATM    4  C   UNL     1     -41.851 -48.384  10.938  1.00  0.00     0.178 C 
BRANCH   4   5
HETATM    5  N   UNL     1     -42.865 -47.969   9.980  1.00  0.00    -0.302 N 
HETATM    6  C   UNL     1     -44.085 -47.425  10.265  1.00  0.00     0.111 A 
HETATM    7  C   UNL     1     -44.643 -47.092   9.052  1.00  0.00     0.037 A 
HETATM    8  C   UNL     1     -43.684 -47.476   8.098  1.00  0.00     0.108 A 
HETATM    9  N   UNL     1     -42.597 -48.012   8.660  1.00  0.00    -0.310 N 
ATOM     10  HN  UNL     1     -41.761 -48.369   8.198  1.00  0.00     0.186 HD
ENDBRANCH   4   5
ENDBRANCH   3   4
ENDBRANCH   1   3
BRANCH   1  11
HETATM   11  C   UNL     1     -42.091 -51.225  12.643  1.00  0.00     0.220 C 
HETATM   12  C   UNL     1     -43.456 -51.624  13.244  1.00  0.00     0.035 C 
HETATM   13  C   UNL     1     -44.026 -52.892  12.613  1.00  0.00     0.002 C 
HETATM   14  C   UNL     1     -43.614 -54.190  13.291  1.00  0.00     0.000 C 
HETATM   15  C   UNL     1     -42.175 -54.275  13.789  1.00  0.00     0.000 C 
HETATM   16  C   UNL     1     -41.134 -53.628  12.878  1.00  0.00     0.002 C 
HETATM   17  C   UNL     1     -40.947 -52.130  13.140  1.00  0.00     0.035 C 
ENDBRANCH   1  11
TORSDOF 4
ENDMDL
MODEL 6
REMARK VINA RESULT:      -4.7      5.523      6.490
REMARK  4 active torsions:
REMARK  status: ('A' for Active; 'I' for Inactive)
REMARK    1  A    between atoms: C_1  and  C_2 
REMARK    2  A    between atoms: C_1  and  N_9 
REMARK    3  A    between atoms: C_2  and  N_3 
REMARK    4  A    between atoms: N_9  and  C_10 
ROOT
HETATM    1  N   UNL     1     -42.595 -46.788   8.988  1.00  0.00     0.089 N 
HETATM    2  H   UNL     1     -41.960 -46.834   8.189  1.00  0.00     0.316 HD
ENDROOT
BRANCH   1   3
HETATM    3  C   UNL     1     -42.233 -47.826   9.968  1.00  0.00     0.291 C 
BRANCH   3   4
HETATM    4  C   UNL     1     -41.021 -47.451  10.821  1.00  0.00     0.178 C 
BRANCH   4   5
HETATM    5  N   UNL     1     -40.433 -48.649  11.400  1.00  0.00    -0.302 N 
HETATM    6  C   UNL     1     -39.419 -48.704  12.313  1.00  0.00     0.111 A 
HETATM    7  C   UNL     1     -39.282 -50.031  12.647  1.00  0.00     0.037 A 
HETATM    8  C   UNL     1     -40.256 -50.696  11.882  1.00  0.00     0.108 A 
HETATM    9  N   UNL     1     -40.962 -49.857  11.119  1.00  0.00    -0.310 N 
ATOM     10  HN  UNL     1     -41.721 -50.078  10.476  1.00  0.00     0.186 HD
ENDBRANCH   4   5
ENDBRANCH   3   4
ENDBRANCH   1   3
BRANCH   1  11
HETATM   11  C   UNL     1     -43.990 -46.923   8.513  1.00  0.00     0.220 C 
HETATM   12  C   UNL     1     -45.008 -46.884   9.674  1.00  0.00     0.035 C 
HETATM   13  C   UNL     1     -46.436 -46.643   9.193  1.00  0.00     0.002 C 
HETATM   14  C   UNL     1     -47.223 -47.901   8.857  1.00  0.00     0.000 C 
HETATM   15  C   UNL     1     -46.459 -49.021   8.160  1.00  0.00     0.000 C 
HETATM   16  C   UNL     1     -45.443 -48.561   7.116  1.00  0.00     0.002 C 
HETATM   17  C   UNL     1     -44.069 -48.236   7.711  1.00  0.00     0.035 C 
ENDBRANCH   1  11
TORSDOF 4
ENDMDL
MODEL 7
REMARK VINA RESULT:      -4.7      4.027      5.496
REMARK  4 active torsions:
REMARK  status: ('A' for Active; 'I' for Inactive)
REMARK    1  A    between atoms: C_1  and  C_2 
REMARK    2  A    between atoms: C_1  and  N_9 
REMARK    3  A    between atoms: C_2  and  N_3 
REMARK    4  A    between atoms: N_9  and  C_10 
ROOT
HETATM    1  N   UNL     1     -43.348 -49.749  13.527  1.00  0.00     0.089 N 
HETATM    2  H   UNL     1     -43.782 -49.015  14.089  1.00  0.00     0.316 HD
ENDROOT
BRANCH   1   3
HETATM    3  C   UNL     1     -42.808 -49.169  12.286  1.00  0.00     0.291 C 
BRANCH   3   4
HETATM    4  C   UNL     1     -42.986 -47.652  12.205  1.00  0.00     0.178 C 
BRANCH   4   5
HETATM    5  N   UNL     1     -43.385 -47.273  10.859  1.00  0.00    -0.302 N 
HETATM    6  C   UNL     1     -42.796 -46.328  10.067  1.00  0.00     0.111 A 
HETATM    7  C   UNL     1     -43.438 -46.399   8.852  1.00  0.00     0.037 A 
HETATM    8  C   UNL     1     -44.398 -47.413   9.012  1.00  0.00     0.108 A 
HETATM    9  N   UNL     1     -44.369 -47.949  10.235  1.00  0.00    -0.310 N 
ATOM     10  HN  UNL     1     -44.956 -48.696  10.609  1.00  0.00     0.186 HD
ENDBRANCH   4   5
ENDBRANCH   3   4
ENDBRANCH   1   3
BRANCH   1  11
HETATM   11  C   UNL     1     -44.340 -50.816  13.264  1.00  0.00     0.220 C 
HETATM   12  C   UNL     1     -45.259 -51.070  14.479  1.00  0.00     0.035 C 
HETATM   13  C   UNL     1     -46.503 -51.876  14.114  1.00  0.00     0.002 C 
HETATM   14  C   UNL     1     -46.345 -53.386  14.216  1.00  0.00     0.000 C 
HETATM   15  C   UNL     1     -45.011 -53.967  13.762  1.00  0.00     0.000 C 
HETATM   16  C   UNL     1     -44.402 -53.306  12.527  1.00  0.00     0.002 C 
HETATM   17  C   UNL     1     -43.551 -52.075  12.855  1.00  0.00     0.035 C 
ENDBRANCH   1  11
TORSDOF 4
ENDMDL
MODEL 8
REMARK VINA RESULT:      -4.6      3.765      5.153
REMARK  4 active torsions:
REMARK  status: ('A' for Active; 'I' for Inactive)
REMARK    1  A    between atoms: C_1  and  C_2 
REMARK    2  A    between atoms: C_1  and  N_9 
REMARK    3  A    between atoms: C_2  and  N_3 
REMARK    4  A    between atoms: N_9  and  C_10 
ROOT
HETATM    1  N   UNL     1     -41.935 -50.909  11.775  1.00  0.00     0.089 N 
HETATM    2  H   UNL     1     -41.896 -50.866  10.755  1.00  0.00     0.316 HD
ENDROOT
BRANCH   1   3
HETATM    3  C   UNL     1     -40.713 -50.316  12.343  1.00  0.00     0.291 C 
BRANCH   3   4
HETATM    4  C   UNL     1     -39.894 -49.531  11.318  1.00  0.00     0.178 C 
BRANCH   4   5
HETATM    5  N   UNL     1     -39.999 -48.106  11.587  1.00  0.00    -0.302 N 
HETATM    6  C   UNL     1     -39.605 -47.457  12.723  1.00  0.00     0.111 A 
HETATM    7  C   UNL     1     -39.793 -46.116  12.477  1.00  0.00     0.037 A 
HETATM    8  C   UNL     1     -40.306 -46.060  11.169  1.00  0.00     0.108 A 
HETATM    9  N   UNL     1     -40.432 -47.272  10.622  1.00  0.00    -0.310 N 
ATOM     10  HN  UNL     1     -40.777 -47.509   9.692  1.00  0.00     0.186 HD
ENDBRANCH   4   5
ENDBRANCH   3   4
ENDBRANCH   1   3
BRANCH   1  11
HETATM   11  C   UNL     1     -42.129 -52.314  12.199  1.00  0.00     0.220 C 
HETATM   12  C   UNL     1     -43.365 -52.485  13.108  1.00  0.00     0.035 C 
HETATM   13  C   UNL     1     -43.797 -53.943  13.243  1.00  0.00     0.002 C 
HETATM   14  C   UNL     1     -43.143 -54.703  14.387  1.00  0.00     0.000 C 
HETATM   15  C   UNL     1     -41.671 -54.411  14.652  1.00  0.00     0.000 C 
HETATM   16  C   UNL     1     -40.816 -54.204  13.403  1.00  0.00     0.002 C 
HETATM   17  C   UNL     1     -40.827 -52.760  12.893  1.00  0.00     0.035 C 
ENDBRANCH   1  11
TORSDOF 4
ENDMDL
MODEL 9
REMARK VINA RESULT:      -4.6      2.138      6.548
REMARK  4 active torsions:
REMARK  status: ('A' for Active; 'I' for Inactive)
REMARK    1  A    between atoms: C_1  and  C_2 
REMARK    2  A    between atoms: C_1  and  N_9 
REMARK    3  A    between atoms: C_2  and  N_3 
REMARK    4  A    between atoms: N_9  and  C_10 
ROOT
HETATM    1  N   UNL     1     -41.285 -52.635  13.251  1.00  0.00     0.089 N 
HETATM    2  H   UNL     1     -40.898 -53.572  13.379  1.00  0.00     0.316 HD
ENDROOT
BRANCH   1   3
HETATM    3  C   UNL     1     -42.565 -52.722  12.529  1.00  0.00     0.291 C 
BRANCH   3   4
HETATM    4  C   UNL     1     -43.635 -53.502  13.294  1.00  0.00     0.178 C 
BRANCH   4   5
HETATM    5  N   UNL     1     -44.872 -52.739  13.331  1.00  0.00    -0.302 N 
HETATM    6  C   UNL     1     -45.436 -52.146  14.425  1.00  0.00     0.111 A 
HETATM    7  C   UNL     1     -46.526 -51.449  13.958  1.00  0.00     0.037 A 
HETATM    8  C   UNL     1     -46.537 -51.686  12.572  1.00  0.00     0.108 A 
HETATM    9  N   UNL     1     -45.530 -52.473  12.185  1.00  0.00    -0.310 N 
ATOM     10  HN  UNL     1     -45.310 -52.796  11.243  1.00  0.00     0.186 HD
ENDBRANCH   4   5
ENDBRANCH   3   4
ENDBRANCH   1   3
BRANCH   1  11
HETATM   11  C   UNL     1     -40.296 -51.790  12.544  1.00  0.00     0.220 C 
HETATM   12  C   UNL     1     -39.112 -51.394  13.453  1.00  0.00     0.035 C 
HETATM   13  C   UNL     1     -37.922 -50.856  12.663  1.00  0.00     0.002 C 
HETATM   14  C   UNL     1     -37.934 -49.354  12.423  1.00  0.00     0.000 C 
HETATM   15  C   UNL     1     -39.287 -48.721  12.115  1.00  0.00     0.000 C 
HETATM   16  C   UNL     1     -40.206 -49.555  11.224  1.00  0.00     0.002 C 
HETATM   17  C   UNL     1     -41.055 -50.562  12.006  1.00  0.00     0.035 C 
ENDBRANCH   1  11
TORSDOF 4
ENDMDL
