MODEL 1
REMARK VINA RESULT:      -6.1      0.000      0.000
REMARK  5 active torsions:
REMARK  status: ('A' for Active; 'I' for Inactive)
REMARK    1  A    between atoms: C_2  and  N_3 
REMARK    2  A    between atoms: C_2  and  C_12 
REMARK    3  A    between atoms: N_3  and  C_4 
REMARK    4  A    between atoms: C_10  and  O_11 
REMARK    5  A    between atoms: C_12  and  N_14 
ROOT
HETATM    1  C   UNL     1     -39.747 -45.373  12.307  1.00  0.00     0.045 C 
HETATM    2  C   UNL     1     -40.474 -46.254  11.281  1.00  0.00     0.241 C 
ENDROOT
BRANCH   2   3
HETATM    3  N   UNL     1     -39.697 -47.499  11.061  1.00  0.00     0.098 N 
HETATM    4  H   UNL     1     -38.718 -47.283  10.856  1.00  0.00     0.317 HD
BRANCH   3   5
HETATM    5  C   UNL     1     -39.759 -48.514  12.131  1.00  0.00     0.264 C 
HETATM    6  C   UNL     1     -38.402 -48.853  12.765  1.00  0.00     0.178 C 
HETATM    7  S   UNL     1     -38.347 -50.620  12.938  1.00  0.00     0.149 S 
HETATM    8  O   UNL     1     -37.623 -51.155  11.799  1.00  0.00    -0.228 OA
HETATM    9  O   UNL     1     -38.017 -50.973  14.301  1.00  0.00    -0.228 OA
HETATM   10  C   UNL     1     -40.070 -50.916  12.650  1.00  0.00     0.174 C 
HETATM   11  C   UNL     1     -40.440 -49.831  11.653  1.00  0.00     0.166 C 
BRANCH  11  12
HETATM   12  O   UNL     1     -40.066 -50.194  10.322  1.00  0.00    -0.392 OA
HETATM   13  H   UNL     1     -40.371 -49.519   9.684  1.00  0.00     0.210 HD
ENDBRANCH  11  12
ENDBRANCH   3   5
ENDBRANCH   2   3
BRANCH   2  14
HETATM   14  C   UNL     1     -41.948 -46.568  11.722  1.00  0.00     0.136 C 
HETATM   15  C   UNL     1     -42.542 -45.544  12.700  1.00  0.00     0.036 C 
BRANCH  14  16
HETATM   16  N   UNL     1     -42.821 -46.782  10.560  1.00  0.00    -0.297 N 
HETATM   17  C   UNL     1     -43.990 -47.491  10.507  1.00  0.00     0.118 A 
HETATM   18  C   UNL     1     -44.482 -47.357   9.228  1.00  0.00    -0.028 A 
HETATM   19  C   UNL     1     -45.742 -47.905   8.678  1.00  0.00     0.051 C 
HETATM   20  C   UNL     1     -43.510 -46.570   8.572  1.00  0.00     0.115 A 
HETATM   21  N   UNL     1     -42.507 -46.211   9.379  1.00  0.00    -0.309 N 
ATOM     22  HN  UNL     1     -41.694 -45.637   9.155  1.00  0.00     0.186 HD
ENDBRANCH  14  16
ENDBRANCH   2  14
TORSDOF 5
ENDMDL
MODEL 2
REMARK VINA RESULT:      -6.0      4.061      5.462
REMARK  5 active torsions:
REMARK  status: ('A' for Active; 'I' for Inactive)
REMARK    1  A    between atoms: C_2  and  N_3 
REMARK    2  A    between atoms: C_2  and  C_12 
REMARK    3  A    between atoms: N_3  and  C_4 
REMARK    4  A    between atoms: C_10  and  O_11 
REMARK    5  A    between atoms: C_12  and  N_14 
ROOT
HETATM    1  C   UNL     1     -41.503 -47.557  13.560  1.00  0.00     0.045 C 
HETATM    2  C   UNL     1     -41.602 -46.593  12.369  1.00  0.00     0.241 C 
ENDROOT
BRANCH   2   3
HETATM    3  N   UNL     1     -40.543 -45.560  12.481  1.00  0.00     0.098 N 
HETATM    4  H   UNL     1     -39.841 -45.679  11.746  1.00  0.00     0.317 HD
BRANCH   3   5
HETATM    5  C   UNL     1     -40.992 -44.154  12.505  1.00  0.00     0.264 C 
HETATM    6  C   UNL     1     -42.515 -43.974  12.577  1.00  0.00     0.178 C 
HETATM    7  S   UNL     1     -42.931 -42.683  11.431  1.00  0.00     0.149 S 
HETATM    8  O   UNL     1     -43.354 -43.309  10.191  1.00  0.00    -0.228 OA
HETATM    9  O   UNL     1     -43.719 -41.668  12.095  1.00  0.00    -0.228 OA
HETATM   10  C   UNL     1     -41.283 -42.082  11.179  1.00  0.00     0.174 C 
HETATM   11  C   UNL     1     -40.440 -43.341  11.296  1.00  0.00     0.166 C 
BRANCH  11  12
HETATM   12  O   UNL     1     -40.447 -44.090  10.079  1.00  0.00    -0.392 OA
HETATM   13  H   UNL     1     -39.578 -44.513   9.931  1.00  0.00     0.210 HD
ENDBRANCH  11  12
ENDBRANCH   3   5
ENDBRANCH   2   3
BRANCH   2  14
HETATM   14  C   UNL     1     -41.521 -47.351  10.996  1.00  0.00     0.136 C 
HETATM   15  C   UNL     1     -41.235 -48.854  11.125  1.00  0.00     0.036 C 
BRANCH  14  16
HETATM   16  N   UNL     1     -42.706 -47.090  10.169  1.00  0.00    -0.297 N 
HETATM   17  C   UNL     1     -43.969 -47.593  10.328  1.00  0.00     0.118 A 
HETATM   18  C   UNL     1     -44.756 -47.016   9.356  1.00  0.00    -0.028 A 
HETATM   19  C   UNL     1     -46.206 -47.204   9.131  1.00  0.00     0.051 C 
HETATM   20  C   UNL     1     -43.857 -46.200   8.635  1.00  0.00     0.115 A 
HETATM   21  N   UNL     1     -42.616 -46.234   9.131  1.00  0.00    -0.309 N 
ATOM     22  HN  UNL     1     -41.793 -45.730   8.801  1.00  0.00     0.186 HD
ENDBRANCH  14  16
ENDBRANCH   2  14
TORSDOF 5
ENDMDL
MODEL 3
REMARK VINA RESULT:      -6.0      4.464      6.121
REMARK  5 active torsions:
REMARK  status: ('A' for Active; 'I' for Inactive)
REMARK    1  A    between atoms: C_2  and  N_3 
REMARK    2  A    between atoms: C_2  and  C_12 
REMARK    3  A    between atoms: N_3  and  C_4 
REMARK    4  A    between atoms: C_10  and  O_11 
REMARK    5  A    between atoms: C_12  and  N_14 
ROOT
HETATM    1  C   UNL     1     -40.648 -52.523  13.539  1.00  0.00     0.045 C 
HETATM    2  C   UNL     1     -42.050 -51.964  13.252  1.00  0.00     0.241 C 
ENDROOT
BRANCH   2   3
HETATM    3  N   UNL     1     -42.012 -51.152  12.011  1.00  0.00     0.098 N 
HETATM    4  H   UNL     1     -42.868 -51.284  11.466  1.00  0.00     0.317 HD
BRANCH   3   5
HETATM    5  C   UNL     1     -41.755 -49.708  12.175  1.00  0.00     0.264 C 
HETATM    6  C   UNL     1     -42.959 -48.808  11.856  1.00  0.00     0.178 C 
HETATM    7  S   UNL     1     -42.338 -47.443  10.904  1.00  0.00     0.149 S 
HETATM    8  O   UNL     1     -42.559 -47.744   9.501  1.00  0.00    -0.228 OA
HETATM    9  O   UNL     1     -42.752 -46.194  11.504  1.00  0.00    -0.228 OA
HETATM   10  C   UNL     1     -40.619 -47.718  11.234  1.00  0.00     0.174 C 
HETATM   11  C   UNL     1     -40.530 -49.231  11.340  1.00  0.00     0.166 C 
BRANCH  11  12
HETATM   12  O   UNL     1     -40.469 -49.843  10.049  1.00  0.00    -0.392 OA
HETATM   13  H   UNL     1     -39.617 -50.305   9.928  1.00  0.00     0.210 HD
ENDBRANCH  11  12
ENDBRANCH   3   5
ENDBRANCH   2   3
BRANCH   2  14
HETATM   14  C   UNL     1     -43.125 -53.105  13.160  1.00  0.00     0.136 C 
HETATM   15  C   UNL     1     -42.785 -54.356  13.981  1.00  0.00     0.036 C 
BRANCH  14  16
HETATM   16  N   UNL     1     -44.469 -52.600  13.466  1.00  0.00    -0.297 N 
HETATM   17  C   UNL     1     -45.012 -52.349  14.697  1.00  0.00     0.118 A 
HETATM   18  C   UNL     1     -46.268 -51.827  14.482  1.00  0.00    -0.028 A 
HETATM   19  C   UNL     1     -47.242 -51.359  15.493  1.00  0.00     0.051 C 
HETATM   20  C   UNL     1     -46.402 -51.836  13.077  1.00  0.00     0.115 A 
HETATM   21  N   UNL     1     -45.310 -52.294  12.457  1.00  0.00    -0.309 N 
ATOM     22  HN  UNL     1     -45.149 -52.389  11.454  1.00  0.00     0.186 HD
ENDBRANCH  14  16
ENDBRANCH   2  14
TORSDOF 5
ENDMDL
MODEL 4
REMARK VINA RESULT:      -5.9      3.659      6.185
REMARK  5 active torsions:
REMARK  status: ('A' for Active; 'I' for Inactive)
REMARK    1  A    between atoms: C_2  and  N_3 
REMARK    2  A    between atoms: C_2  and  C_12 
REMARK    3  A    between atoms: N_3  and  C_4 
REMARK    4  A    between atoms: C_10  and  O_11 
REMARK    5  A    between atoms: C_12  and  N_14 
ROOT
HETATM    1  C   UNL     1     -39.026 -47.744  13.067  1.00  0.00     0.045 C 
HETATM    2  C   UNL     1     -39.895 -48.536  12.078  1.00  0.00     0.241 C 
ENDROOT
BRANCH   2   3
HETATM    3  N   UNL     1     -40.255 -47.665  10.932  1.00  0.00     0.098 N 
HETATM    4  H   UNL     1     -40.087 -48.147  10.044  1.00  0.00     0.317 HD
BRANCH   3   5
HETATM    5  C   UNL     1     -41.619 -47.103  10.932  1.00  0.00     0.264 C 
HETATM    6  C   UNL     1     -42.590 -47.789   9.959  1.00  0.00     0.178 C 
HETATM    7  S   UNL     1     -43.505 -46.497   9.154  1.00  0.00     0.149 S 
HETATM    8  O   UNL     1     -42.867 -46.231   7.877  1.00  0.00    -0.228 OA
HETATM    9  O   UNL     1     -44.923 -46.747   9.275  1.00  0.00    -0.228 OA
HETATM   10  C   UNL     1     -43.038 -45.188  10.254  1.00  0.00     0.174 C 
HETATM   11  C   UNL     1     -41.623 -45.569  10.656  1.00  0.00     0.166 C 
BRANCH  11  12
HETATM   12  O   UNL     1     -40.674 -45.186   9.657  1.00  0.00    -0.392 OA
HETATM   13  H   UNL     1     -40.835 -44.268   9.365  1.00  0.00     0.210 HD
ENDBRANCH  11  12
ENDBRANCH   3   5
ENDBRANCH   2   3
BRANCH   2  14
HETATM   14  C   UNL     1     -39.183 -49.851  11.600  1.00  0.00     0.136 C 
HETATM   15  C   UNL     1     -37.692 -49.922  11.954  1.00  0.00     0.036 C 
BRANCH  14  16
HETATM   16  N   UNL     1     -39.909 -51.046  12.050  1.00  0.00    -0.297 N 
HETATM   17  C   UNL     1     -39.684 -51.792  13.175  1.00  0.00     0.118 A 
HETATM   18  C   UNL     1     -40.652 -52.770  13.207  1.00  0.00    -0.028 A 
HETATM   19  C   UNL     1     -40.862 -53.805  14.244  1.00  0.00     0.051 C 
HETATM   20  C   UNL     1     -41.397 -52.548  12.029  1.00  0.00     0.115 A 
HETATM   21  N   UNL     1     -40.957 -51.497  11.330  1.00  0.00    -0.309 N 
ATOM     22  HN  UNL     1     -41.327 -51.123  10.456  1.00  0.00     0.186 HD
ENDBRANCH  14  16
ENDBRANCH   2  14
TORSDOF 5
ENDMDL
MODEL 5
REMARK VINA RESULT:      -5.9      5.323      7.374
REMARK  5 active torsions:
REMARK  status: ('A' for Active; 'I' for Inactive)
REMARK    1  A    between atoms: C_2  and  N_3 
REMARK    2  A    between atoms: C_2  and  C_12 
REMARK    3  A    between atoms: N_3  and  C_4 
REMARK    4  A    between atoms: C_10  and  O_11 
REMARK    5  A    between atoms: C_12  and  N_14 
ROOT
HETATM    1  C   UNL     1     -42.739 -49.029  12.976  1.00  0.00     0.045 C 
HETATM    2  C   UNL     1     -42.719 -50.565  12.995  1.00  0.00     0.241 C 
ENDROOT
BRANCH   2   3
HETATM    3  N   UNL     1     -44.056 -51.080  12.606  1.00  0.00     0.098 N 
HETATM    4  H   UNL     1     -43.979 -51.728  11.817  1.00  0.00     0.317 HD
BRANCH   3   5
HETATM    5  C   UNL     1     -44.859 -51.705  13.675  1.00  0.00     0.264 C 
HETATM    6  C   UNL     1     -44.216 -52.946  14.310  1.00  0.00     0.178 C 
HETATM    7  S   UNL     1     -45.505 -54.157  14.482  1.00  0.00     0.149 S 
HETATM    8  O   UNL     1     -45.425 -55.054  13.343  1.00  0.00    -0.228 OA
HETATM    9  O   UNL     1     -45.553 -54.637  15.845  1.00  0.00    -0.228 OA
HETATM   10  C   UNL     1     -46.866 -53.062  14.190  1.00  0.00     0.174 C 
HETATM   11  C   UNL     1     -46.296 -52.066  13.194  1.00  0.00     0.166 C 
BRANCH  11  12
HETATM   12  O   UNL     1     -46.318 -52.588  11.863  1.00  0.00    -0.392 OA
HETATM   13  H   UNL     1     -45.766 -52.040  11.271  1.00  0.00     0.210 HD
ENDBRANCH  11  12
ENDBRANCH   3   5
ENDBRANCH   2   3
BRANCH   2  14
HETATM   14  C   UNL     1     -41.589 -51.145  12.071  1.00  0.00     0.136 C 
HETATM   15  C   UNL     1     -40.506 -50.127  11.691  1.00  0.00     0.036 C 
BRANCH  14  16
HETATM   16  N   UNL     1     -41.012 -52.371  12.638  1.00  0.00    -0.297 N 
HETATM   17  C   UNL     1     -40.083 -52.478  13.637  1.00  0.00     0.118 A 
HETATM   18  C   UNL     1     -39.899 -53.823  13.871  1.00  0.00    -0.028 A 
HETATM   19  C   UNL     1     -39.024 -54.457  14.881  1.00  0.00     0.051 C 
HETATM   20  C   UNL     1     -40.744 -54.448  12.928  1.00  0.00     0.115 A 
HETATM   21  N   UNL     1     -41.429 -53.572  12.187  1.00  0.00    -0.309 N 
ATOM     22  HN  UNL     1     -42.108 -53.766  11.451  1.00  0.00     0.186 HD
ENDBRANCH  14  16
ENDBRANCH   2  14
TORSDOF 5
ENDMDL
MODEL 6
REMARK VINA RESULT:      -5.8      2.896      5.050
REMARK  5 active torsions:
REMARK  status: ('A' for Active; 'I' for Inactive)
REMARK    1  A    between atoms: C_2  and  N_3 
REMARK    2  A    between atoms: C_2  and  C_12 
REMARK    3  A    between atoms: N_3  and  C_4 
REMARK    4  A    between atoms: C_10  and  O_11 
REMARK    5  A    between atoms: C_12  and  N_14 
ROOT
HETATM    1  C   UNL     1     -43.396 -49.126  12.501  1.00  0.00     0.045 C 
HETATM    2  C   UNL     1     -42.128 -49.991  12.441  1.00  0.00     0.241 C 
ENDROOT
BRANCH   2   3
HETATM    3  N   UNL     1     -42.509 -51.412  12.250  1.00  0.00     0.098 N 
HETATM    4  H   UNL     1     -42.304 -51.716  11.294  1.00  0.00     0.317 HD
BRANCH   3   5
HETATM    5  C   UNL     1     -41.939 -52.383  13.204  1.00  0.00     0.264 C 
HETATM    6  C   UNL     1     -40.948 -51.779  14.210  1.00  0.00     0.178 C 
HETATM    7  S   UNL     1     -39.578 -52.904  14.316  1.00  0.00     0.149 S 
HETATM    8  O   UNL     1     -38.533 -52.416  13.433  1.00  0.00    -0.228 OA
HETATM    9  O   UNL     1     -39.327 -53.248  15.697  1.00  0.00    -0.228 OA
HETATM   10  C   UNL     1     -40.359 -54.268  13.498  1.00  0.00     0.174 C 
HETATM   11  C   UNL     1     -41.261 -53.586  12.483  1.00  0.00     0.166 C 
BRANCH  11  12
HETATM   12  O   UNL     1     -40.532 -53.192  11.318  1.00  0.00    -0.392 OA
HETATM   13  H   UNL     1     -40.840 -53.691  10.536  1.00  0.00     0.210 HD
ENDBRANCH  11  12
ENDBRANCH   3   5
ENDBRANCH   2   3
BRANCH   2  14
HETATM   14  C   UNL     1     -41.143 -49.504  11.320  1.00  0.00     0.136 C 
HETATM   15  C   UNL     1     -41.626 -48.266  10.554  1.00  0.00     0.036 C 
BRANCH  14  16
HETATM   16  N   UNL     1     -39.782 -49.325  11.844  1.00  0.00    -0.297 N 
HETATM   17  C   UNL     1     -39.395 -48.629  12.957  1.00  0.00     0.118 A 
HETATM   18  C   UNL     1     -38.034 -48.797  13.082  1.00  0.00    -0.028 A 
HETATM   19  C   UNL     1     -37.149 -48.275  14.146  1.00  0.00     0.051 C 
HETATM   20  C   UNL     1     -37.688 -49.589  11.965  1.00  0.00     0.115 A 
HETATM   21  N   UNL     1     -38.746 -49.919  11.218  1.00  0.00    -0.309 N 
ATOM     22  HN  UNL     1     -38.765 -50.489  10.372  1.00  0.00     0.186 HD
ENDBRANCH  14  16
ENDBRANCH   2  14
TORSDOF 5
ENDMDL
MODEL 7
REMARK VINA RESULT:      -5.8      2.289      3.640
REMARK  5 active torsions:
REMARK  status: ('A' for Active; 'I' for Inactive)
REMARK    1  A    between atoms: C_2  and  N_3 
REMARK    2  A    between atoms: C_2  and  C_12 
REMARK    3  A    between atoms: N_3  and  C_4 
REMARK    4  A    between atoms: C_10  and  O_11 
REMARK    5  A    between atoms: C_12  and  N_14 
ROOT
HETATM    1  C   UNL     1     -43.083 -48.324  12.580  1.00  0.00     0.045 C 
HETATM    2  C   UNL     1     -41.832 -48.525  11.712  1.00  0.00     0.241 C 
ENDROOT
BRANCH   2   3
HETATM    3  N   UNL     1     -41.653 -49.972  11.434  1.00  0.00     0.098 N 
HETATM    4  H   UNL     1     -40.741 -50.147  11.002  1.00  0.00     0.317 HD
BRANCH   3   5
HETATM    5  C   UNL     1     -41.839 -50.892  12.573  1.00  0.00     0.264 C 
HETATM    6  C   UNL     1     -40.696 -50.871  13.600  1.00  0.00     0.178 C 
HETATM    7  S   UNL     1     -40.359 -52.562  14.022  1.00  0.00     0.149 S 
HETATM    8  O   UNL     1     -39.238 -53.007  13.214  1.00  0.00    -0.228 OA
HETATM    9  O   UNL     1     -40.394 -52.729  15.458  1.00  0.00    -0.228 OA
HETATM   10  C   UNL     1     -41.825 -53.257  13.309  1.00  0.00     0.174 C 
HETATM   11  C   UNL     1     -42.079 -52.359  12.110  1.00  0.00     0.166 C 
BRANCH  11  12
HETATM   12  O   UNL     1     -41.258 -52.728  10.998  1.00  0.00    -0.392 OA
HETATM   13  H   UNL     1     -40.313 -52.608  11.215  1.00  0.00     0.210 HD
ENDBRANCH  11  12
ENDBRANCH   3   5
ENDBRANCH   2   3
BRANCH   2  14
HETATM   14  C   UNL     1     -41.901 -47.689  10.385  1.00  0.00     0.136 C 
HETATM   15  C   UNL     1     -43.315 -47.548   9.805  1.00  0.00     0.036 C 
BRANCH  14  16
HETATM   16  N   UNL     1     -41.242 -46.386  10.538  1.00  0.00    -0.297 N 
HETATM   17  C   UNL     1     -41.811 -45.192  10.890  1.00  0.00     0.118 A 
HETATM   18  C   UNL     1     -40.793 -44.269  10.969  1.00  0.00    -0.028 A 
HETATM   19  C   UNL     1     -40.887 -42.843  11.350  1.00  0.00     0.051 C 
HETATM   20  C   UNL     1     -39.642 -45.005  10.609  1.00  0.00     0.115 A 
HETATM   21  N   UNL     1     -39.909 -46.290  10.358  1.00  0.00    -0.309 N 
ATOM     22  HN  UNL     1     -39.256 -47.028  10.092  1.00  0.00     0.186 HD
ENDBRANCH  14  16
ENDBRANCH   2  14
TORSDOF 5
ENDMDL
MODEL 8
REMARK VINA RESULT:      -5.8      3.997      6.202
REMARK  5 active torsions:
REMARK  status: ('A' for Active; 'I' for Inactive)
REMARK    1  A    between atoms: C_2  and  N_3 
REMARK    2  A    between atoms: C_2  and  C_12 
REMARK    3  A    between atoms: N_3  and  C_4 
REMARK    4  A    between atoms: C_10  and  O_11 
REMARK    5  A    between atoms: C_12  and  N_14 
ROOT
HETATM    1  C   UNL     1     -38.898 -47.849  13.334  1.00  0.00     0.045 C 
HETATM    2  C   UNL     1     -39.747 -48.327  12.146  1.00  0.00     0.241 C 
ENDROOT
BRANCH   2   3
HETATM    3  N   UNL     1     -39.875 -47.227  11.159  1.00  0.00     0.098 N 
HETATM    4  H   UNL     1     -40.533 -47.481  10.417  1.00  0.00     0.317 HD
BRANCH   3   5
HETATM    5  C   UNL     1     -40.231 -45.897  11.693  1.00  0.00     0.264 C 
HETATM    6  C   UNL     1     -41.717 -45.730  12.042  1.00  0.00     0.178 C 
HETATM    7  S   UNL     1     -42.206 -44.132  11.439  1.00  0.00     0.149 S 
HETATM    8  O   UNL     1     -42.829 -44.320  10.140  1.00  0.00    -0.228 OA
HETATM    9  O   UNL     1     -42.834 -43.375  12.498  1.00  0.00    -0.228 OA
HETATM   10  C   UNL     1     -40.574 -43.505  11.149  1.00  0.00     0.174 C 
HETATM   11  C   UNL     1     -39.800 -44.746  10.736  1.00  0.00     0.166 C 
BRANCH  11  12
HETATM   12  O   UNL     1     -40.017 -45.063   9.359  1.00  0.00    -0.392 OA
HETATM   13  H   UNL     1     -39.879 -44.274   8.799  1.00  0.00     0.210 HD
ENDBRANCH  11  12
ENDBRANCH   3   5
ENDBRANCH   2   3
BRANCH   2  14
HETATM   14  C   UNL     1     -39.153 -49.623  11.489  1.00  0.00     0.136 C 
HETATM   15  C   UNL     1     -37.631 -49.758  11.630  1.00  0.00     0.036 C 
BRANCH  14  16
HETATM   16  N   UNL     1     -39.854 -50.828  11.954  1.00  0.00    -0.297 N 
HETATM   17  C   UNL     1     -39.596 -51.569  13.075  1.00  0.00     0.118 A 
HETATM   18  C   UNL     1     -40.550 -52.561  13.128  1.00  0.00    -0.028 A 
HETATM   19  C   UNL     1     -40.725 -53.598  14.168  1.00  0.00     0.051 C 
HETATM   20  C   UNL     1     -41.321 -52.349  11.964  1.00  0.00     0.115 A 
HETATM   21  N   UNL     1     -40.909 -51.294  11.256  1.00  0.00    -0.309 N 
ATOM     22  HN  UNL     1     -41.302 -50.925  10.389  1.00  0.00     0.186 HD
ENDBRANCH  14  16
ENDBRANCH   2  14
TORSDOF 5
ENDMDL
MODEL 9
REMARK VINA RESULT:      -5.8      2.668      3.241
REMARK  5 active torsions:
REMARK  status: ('A' for Active; 'I' for Inactive)
REMARK    1  A    between atoms: C_2  and  N_3 
REMARK    2  A    between atoms: C_2  and  C_12 
REMARK    3  A    between atoms: N_3  and  C_4 
REMARK    4  A    between atoms: C_10  and  O_11 
REMARK    5  A    between atoms: C_12  and  N_14 
ROOT
HETATM    1  C   UNL     1     -39.683 -49.052  11.788  1.00  0.00     0.045 C 
HETATM    2  C   UNL     1     -40.972 -49.062  10.953  1.00  0.00     0.241 C 
ENDROOT
BRANCH   2   3
HETATM    3  N   UNL     1     -41.872 -50.132  11.450  1.00  0.00     0.098 N 
HETATM    4  H   UNL     1     -42.237 -50.689  10.671  1.00  0.00     0.317 HD
BRANCH   3   5
HETATM    5  C   UNL     1     -41.320 -51.035  12.478  1.00  0.00     0.264 C 
HETATM    6  C   UNL     1     -41.111 -52.482  12.008  1.00  0.00     0.178 C 
HETATM    7  S   UNL     1     -41.691 -53.533  13.317  1.00  0.00     0.149 S 
HETATM    8  O   UNL     1     -43.051 -53.931  12.997  1.00  0.00    -0.228 OA
HETATM    9  O   UNL     1     -40.667 -54.490  13.673  1.00  0.00    -0.228 OA
HETATM   10  C   UNL     1     -41.793 -52.281  14.566  1.00  0.00     0.174 C 
HETATM   11  C   UNL     1     -42.180 -51.042  13.777  1.00  0.00     0.166 C 
BRANCH  11  12
HETATM   12  O   UNL     1     -43.584 -51.011  13.508  1.00  0.00    -0.392 OA
HETATM   13  H   UNL     1     -44.026 -50.345  14.071  1.00  0.00     0.210 HD
ENDBRANCH  11  12
ENDBRANCH   3   5
ENDBRANCH   2   3
BRANCH   2  14
HETATM   14  C   UNL     1     -41.684 -47.663  10.961  1.00  0.00     0.136 C 
HETATM   15  C   UNL     1     -40.746 -46.480  10.686  1.00  0.00     0.036 C 
BRANCH  14  16
HETATM   16  N   UNL     1     -42.853 -47.652  10.072  1.00  0.00    -0.297 N 
HETATM   17  C   UNL     1     -44.162 -47.438  10.408  1.00  0.00     0.118 A 
HETATM   18  C   UNL     1     -44.885 -47.456   9.236  1.00  0.00    -0.028 A 
HETATM   19  C   UNL     1     -46.338 -47.236   9.061  1.00  0.00     0.051 C 
HETATM   20  C   UNL     1     -43.915 -47.726   8.245  1.00  0.00     0.115 A 
HETATM   21  N   UNL     1     -42.681 -47.834   8.747  1.00  0.00    -0.309 N 
ATOM     22  HN  UNL     1     -41.811 -48.012   8.244  1.00  0.00     0.186 HD
ENDBRANCH  14  16
ENDBRANCH   2  14
TORSDOF 5
ENDMDL
