MODEL 1
REMARK VINA RESULT:      -4.9      0.000      0.000
REMARK  5 active torsions:
REMARK  status: ('A' for Active; 'I' for Inactive)
REMARK    1  A    between atoms: N_7  and  C_8 
REMARK    2  A    between atoms: C_8  and  C_9 
REMARK       I    between atoms: C_9  and  N_11 
REMARK    3  A    between atoms: N_11  and  C_12 
REMARK    4  A    between atoms: C_12  and  C_13 
REMARK    5  A    between atoms: C_12  and  C_16 
ROOT
HETATM    1  C   UNL     1     -43.569 -50.895  13.374  1.00  0.00     0.236 C 
HETATM    2  O   UNL     1     -43.209 -50.440  14.459  1.00  0.00    -0.272 OA
HETATM    3  N   UNL     1     -42.694 -51.180  12.339  1.00  0.00    -0.354 N 
HETATM    4  H   UNL     1     -43.062 -51.282  11.392  1.00  0.00     0.162 HD
ENDROOT
BRANCH   1   5
HETATM    5  C   UNL     1     -45.048 -51.201  13.105  1.00  0.00     0.235 C 
BRANCH   5   6
HETATM    6  N   UNL     1     -45.524 -52.453  13.661  1.00  0.00    -0.303 N 
HETATM    7  C   UNL     1     -46.284 -52.601  14.817  1.00  0.00     0.018 A 
HETATM    8  C   UNL     1     -46.842 -51.449  15.583  1.00  0.00     0.069 C 
HETATM    9  C   UNL     1     -46.456 -53.884  15.173  1.00  0.00     0.080 A 
HETATM   10  S   UNL     1     -45.685 -54.980  14.074  1.00  0.00    -0.039 SA
HETATM   11  C   UNL     1     -45.099 -53.640  13.082  1.00  0.00     0.290 A 
HETATM   12  O   UNL     1     -44.416 -53.773  12.080  1.00  0.00    -0.259 OA
ENDBRANCH   5   6
ENDBRANCH   1   5
BRANCH   3  13
HETATM   13  C   UNL     1     -41.255 -51.066  12.516  1.00  0.00     0.092 C 
BRANCH  13  14
HETATM   14  C   UNL     1     -40.604 -52.429  12.482  1.00  0.00     0.009 A 
HETATM   15  C   UNL     1     -41.138 -53.611  13.257  1.00  0.00     0.007 A 
HETATM   16  C   UNL     1     -39.893 -52.920  13.728  1.00  0.00     0.007 A 
ENDBRANCH  13  14
BRANCH  13  17
HETATM   17  C   UNL     1     -40.666 -50.158  11.466  1.00  0.00     0.009 A 
HETATM   18  C   UNL     1     -39.974 -48.857  11.826  1.00  0.00     0.007 A 
HETATM   19  C   UNL     1     -41.331 -48.833  11.188  1.00  0.00     0.007 A 
ENDBRANCH  13  17
ENDBRANCH   3  13
TORSDOF 5
ENDMDL
MODEL 2
REMARK VINA RESULT:      -4.8      2.784      6.085
REMARK  5 active torsions:
REMARK  status: ('A' for Active; 'I' for Inactive)
REMARK    1  A    between atoms: N_7  and  C_8 
REMARK    2  A    between atoms: C_8  and  C_9 
REMARK       I    between atoms: C_9  and  N_11 
REMARK    3  A    between atoms: N_11  and  C_12 
REMARK    4  A    between atoms: C_12  and  C_13 
REMARK    5  A    between atoms: C_12  and  C_16 
ROOT
HETATM    1  C   UNL     1     -42.548 -50.854  13.045  1.00  0.00     0.236 C 
HETATM    2  O   UNL     1     -42.680 -50.473  14.207  1.00  0.00    -0.272 OA
HETATM    3  N   UNL     1     -43.144 -52.002  12.548  1.00  0.00    -0.354 N 
HETATM    4  H   UNL     1     -42.784 -52.413  11.686  1.00  0.00     0.162 HD
ENDROOT
BRANCH   1   5
HETATM    5  C   UNL     1     -41.711 -50.046  12.045  1.00  0.00     0.235 C 
BRANCH   5   6
HETATM    6  N   UNL     1     -40.300 -49.951  12.366  1.00  0.00    -0.303 N 
HETATM    7  C   UNL     1     -39.565 -48.777  12.490  1.00  0.00     0.018 A 
HETATM    8  C   UNL     1     -40.177 -47.418  12.445  1.00  0.00     0.069 C 
HETATM    9  C   UNL     1     -38.249 -48.994  12.648  1.00  0.00     0.080 A 
HETATM   10  S   UNL     1     -37.859 -50.684  12.660  1.00  0.00    -0.039 SA
HETATM   11  C   UNL     1     -39.557 -51.121  12.441  1.00  0.00     0.290 A 
HETATM   12  O   UNL     1     -39.967 -52.266  12.349  1.00  0.00    -0.259 OA
ENDBRANCH   5   6
ENDBRANCH   1   5
BRANCH   3  13
HETATM   13  C   UNL     1     -44.073 -52.779  13.354  1.00  0.00     0.092 C 
BRANCH  13  14
HETATM   14  C   UNL     1     -45.460 -52.736  12.757  1.00  0.00     0.009 A 
HETATM   15  C   UNL     1     -46.263 -51.461  12.640  1.00  0.00     0.007 A 
HETATM   16  C   UNL     1     -46.634 -52.476  13.681  1.00  0.00     0.007 A 
ENDBRANCH  13  14
BRANCH  13  17
HETATM   17  C   UNL     1     -43.587 -54.200  13.494  1.00  0.00     0.009 A 
HETATM   18  C   UNL     1     -43.516 -54.894  14.840  1.00  0.00     0.007 A 
HETATM   19  C   UNL     1     -42.255 -54.456  14.156  1.00  0.00     0.007 A 
ENDBRANCH  13  17
ENDBRANCH   3  13
TORSDOF 5
ENDMDL
MODEL 3
REMARK VINA RESULT:      -4.7      1.933      3.117
REMARK  5 active torsions:
REMARK  status: ('A' for Active; 'I' for Inactive)
REMARK    1  A    between atoms: N_7  and  C_8 
REMARK    2  A    between atoms: C_8  and  C_9 
REMARK       I    between atoms: C_9  and  N_11 
REMARK    3  A    between atoms: N_11  and  C_12 
REMARK    4  A    between atoms: C_12  and  C_13 
REMARK    5  A    between atoms: C_12  and  C_16 
ROOT
HETATM    1  C   UNL     1     -42.199 -51.230  12.518  1.00  0.00     0.236 C 
HETATM    2  O   UNL     1     -42.497 -50.832  13.644  1.00  0.00    -0.272 OA
HETATM    3  N   UNL     1     -41.625 -50.420  11.552  1.00  0.00    -0.354 N 
HETATM    4  H   UNL     1     -41.659 -50.714  10.575  1.00  0.00     0.162 HD
ENDROOT
BRANCH   1   5
HETATM    5  C   UNL     1     -42.432 -52.692  12.116  1.00  0.00     0.235 C 
BRANCH   5   6
HETATM    6  N   UNL     1     -43.180 -53.479  13.078  1.00  0.00    -0.303 N 
HETATM    7  C   UNL     1     -42.641 -54.243  14.108  1.00  0.00     0.018 A 
HETATM    8  C   UNL     1     -41.191 -54.245  14.455  1.00  0.00     0.069 C 
HETATM    9  C   UNL     1     -43.560 -54.981  14.750  1.00  0.00     0.080 A 
HETATM   10  S   UNL     1     -45.154 -54.752  14.107  1.00  0.00    -0.039 SA
HETATM   11  C   UNL     1     -44.551 -53.601  12.909  1.00  0.00     0.290 A 
HETATM   12  O   UNL     1     -45.249 -53.048  12.075  1.00  0.00    -0.259 OA
ENDBRANCH   5   6
ENDBRANCH   1   5
BRANCH   3  13
HETATM   13  C   UNL     1     -41.225 -49.054  11.853  1.00  0.00     0.092 C 
BRANCH  13  14
HETATM   14  C   UNL     1     -39.736 -48.881  11.667  1.00  0.00     0.009 A 
HETATM   15  C   UNL     1     -38.727 -49.901  12.142  1.00  0.00     0.007 A 
HETATM   16  C   UNL     1     -38.883 -48.610  12.890  1.00  0.00     0.007 A 
ENDBRANCH  13  14
BRANCH  13  17
HETATM   17  C   UNL     1     -41.995 -48.080  10.997  1.00  0.00     0.009 A 
HETATM   18  C   UNL     1     -42.555 -46.787  11.559  1.00  0.00     0.007 A 
HETATM   19  C   UNL     1     -43.479 -47.921  11.224  1.00  0.00     0.007 A 
ENDBRANCH  13  17
ENDBRANCH   3  13
TORSDOF 5
ENDMDL
MODEL 4
REMARK VINA RESULT:      -4.6      2.766      4.124
REMARK  5 active torsions:
REMARK  status: ('A' for Active; 'I' for Inactive)
REMARK    1  A    between atoms: N_7  and  C_8 
REMARK    2  A    between atoms: C_8  and  C_9 
REMARK       I    between atoms: C_9  and  N_11 
REMARK    3  A    between atoms: N_11  and  C_12 
REMARK    4  A    between atoms: C_12  and  C_13 
REMARK    5  A    between atoms: C_12  and  C_16 
ROOT
HETATM    1  C   UNL     1     -41.577 -50.889  12.147  1.00  0.00     0.236 C 
HETATM    2  O   UNL     1     -42.200 -50.567  13.158  1.00  0.00    -0.272 OA
HETATM    3  N   UNL     1     -41.031 -49.973  11.265  1.00  0.00    -0.354 N 
HETATM    4  H   UNL     1     -40.780 -50.279  10.323  1.00  0.00     0.162 HD
ENDROOT
BRANCH   1   5
HETATM    5  C   UNL     1     -41.346 -52.367  11.807  1.00  0.00     0.235 C 
BRANCH   5   6
HETATM    6  N   UNL     1     -41.372 -53.267  12.944  1.00  0.00    -0.303 N 
HETATM    7  C   UNL     1     -42.497 -53.899  13.464  1.00  0.00     0.018 A 
HETATM    8  C   UNL     1     -43.840 -53.842  12.820  1.00  0.00     0.069 C 
HETATM    9  C   UNL     1     -42.249 -54.558  14.607  1.00  0.00     0.080 A 
HETATM   10  S   UNL     1     -40.588 -54.433  15.090  1.00  0.00    -0.039 SA
HETATM   11  C   UNL     1     -40.208 -53.440  13.678  1.00  0.00     0.290 A 
HETATM   12  O   UNL     1     -39.104 -52.981  13.438  1.00  0.00    -0.259 OA
ENDBRANCH   5   6
ENDBRANCH   1   5
BRANCH   3  13
HETATM   13  C   UNL     1     -41.059 -48.546  11.546  1.00  0.00     0.092 C 
BRANCH  13  14
HETATM   14  C   UNL     1     -39.662 -48.020  11.777  1.00  0.00     0.009 A 
HETATM   15  C   UNL     1     -38.681 -48.685  12.716  1.00  0.00     0.007 A 
HETATM   16  C   UNL     1     -39.338 -47.398  13.121  1.00  0.00     0.007 A 
ENDBRANCH  13  14
BRANCH  13  17
HETATM   17  C   UNL     1     -41.739 -47.801  10.424  1.00  0.00     0.009 A 
HETATM   18  C   UNL     1     -42.516 -46.521  10.666  1.00  0.00     0.007 A 
HETATM   19  C   UNL     1     -43.247 -47.795  10.359  1.00  0.00     0.007 A 
ENDBRANCH  13  17
ENDBRANCH   3  13
TORSDOF 5
ENDMDL
MODEL 5
REMARK VINA RESULT:      -4.6      1.826      3.256
REMARK  5 active torsions:
REMARK  status: ('A' for Active; 'I' for Inactive)
REMARK    1  A    between atoms: N_7  and  C_8 
REMARK    2  A    between atoms: C_8  and  C_9 
REMARK       I    between atoms: C_9  and  N_11 
REMARK    3  A    between atoms: N_11  and  C_12 
REMARK    4  A    between atoms: C_12  and  C_13 
REMARK    5  A    between atoms: C_12  and  C_16 
ROOT
HETATM    1  C   UNL     1     -41.451 -51.777  12.528  1.00  0.00     0.236 C 
HETATM    2  O   UNL     1     -41.343 -52.305  11.422  1.00  0.00    -0.272 OA
HETATM    3  N   UNL     1     -40.869 -50.563  12.852  1.00  0.00    -0.354 N 
HETATM    4  H   UNL     1     -40.753 -50.315  13.835  1.00  0.00     0.162 HD
ENDROOT
BRANCH   1   5
HETATM    5  C   UNL     1     -42.277 -52.442  13.636  1.00  0.00     0.235 C 
BRANCH   5   6
HETATM    6  N   UNL     1     -43.702 -52.180  13.577  1.00  0.00    -0.303 N 
HETATM    7  C   UNL     1     -44.377 -51.158  14.236  1.00  0.00     0.018 A 
HETATM    8  C   UNL     1     -43.686 -50.082  15.002  1.00  0.00     0.069 C 
HETATM    9  C   UNL     1     -45.711 -51.245  14.115  1.00  0.00     0.080 A 
HETATM   10  S   UNL     1     -46.197 -52.608  13.160  1.00  0.00    -0.039 SA
HETATM   11  C   UNL     1     -44.514 -53.086  12.910  1.00  0.00     0.290 A 
HETATM   12  O   UNL     1     -44.165 -54.067  12.274  1.00  0.00    -0.259 OA
ENDBRANCH   5   6
ENDBRANCH   1   5
BRANCH   3  13
HETATM   13  C   UNL     1     -40.178 -49.767  11.849  1.00  0.00     0.092 C 
BRANCH  13  14
HETATM   14  C   UNL     1     -40.888 -48.451  11.633  1.00  0.00     0.009 A 
HETATM   15  C   UNL     1     -42.389 -48.304  11.726  1.00  0.00     0.007 A 
HETATM   16  C   UNL     1     -41.725 -48.280  10.381  1.00  0.00     0.007 A 
ENDBRANCH  13  14
BRANCH  13  17
HETATM   17  C   UNL     1     -38.740 -49.548  12.250  1.00  0.00     0.009 A 
HETATM   18  C   UNL     1     -37.588 -49.914  11.334  1.00  0.00     0.007 A 
HETATM   19  C   UNL     1     -37.874 -50.747  12.548  1.00  0.00     0.007 A 
ENDBRANCH  13  17
ENDBRANCH   3  13
TORSDOF 5
ENDMDL
MODEL 6
REMARK VINA RESULT:      -4.5     15.371     16.649
REMARK  5 active torsions:
REMARK  status: ('A' for Active; 'I' for Inactive)
REMARK    1  A    between atoms: N_7  and  C_8 
REMARK    2  A    between atoms: C_8  and  C_9 
REMARK       I    between atoms: C_9  and  N_11 
REMARK    3  A    between atoms: N_11  and  C_12 
REMARK    4  A    between atoms: C_12  and  C_13 
REMARK    5  A    between atoms: C_12  and  C_16 
ROOT
HETATM    1  C   UNL     1     -49.960 -51.631  -0.803  1.00  0.00     0.236 C 
HETATM    2  O   UNL     1     -49.461 -52.170   0.183  1.00  0.00    -0.272 OA
HETATM    3  N   UNL     1     -50.665 -52.323  -1.773  1.00  0.00    -0.354 N 
HETATM    4  H   UNL     1     -50.809 -51.889  -2.686  1.00  0.00     0.162 HD
ENDROOT
BRANCH   1   5
HETATM    5  C   UNL     1     -49.847 -50.115  -1.011  1.00  0.00     0.235 C 
BRANCH   5   6
HETATM    6  N   UNL     1     -50.761 -49.319  -0.215  1.00  0.00    -0.303 N 
HETATM    7  C   UNL     1     -50.477 -48.720   1.008  1.00  0.00     0.018 A 
HETATM    8  C   UNL     1     -49.115 -48.701   1.613  1.00  0.00     0.069 C 
HETATM    9  C   UNL     1     -51.555 -48.168   1.587  1.00  0.00     0.080 A 
HETATM   10  S   UNL     1     -52.986 -48.359   0.627  1.00  0.00    -0.039 SA
HETATM   11  C   UNL     1     -52.085 -49.228  -0.621  1.00  0.00     0.290 A 
HETATM   12  O   UNL     1     -52.581 -49.680  -1.639  1.00  0.00    -0.259 OA
ENDBRANCH   5   6
ENDBRANCH   1   5
BRANCH   3  13
HETATM   13  C   UNL     1     -50.964 -53.739  -1.623  1.00  0.00     0.092 C 
BRANCH  13  14
HETATM   14  C   UNL     1     -52.456 -53.972  -1.618  1.00  0.00     0.009 A 
HETATM   15  C   UNL     1     -53.424 -53.068  -0.889  1.00  0.00     0.007 A 
HETATM   16  C   UNL     1     -53.111 -54.423  -0.327  1.00  0.00     0.007 A 
ENDBRANCH  13  14
BRANCH  13  17
HETATM   17  C   UNL     1     -50.295 -54.537  -2.714  1.00  0.00     0.009 A 
HETATM   18  C   UNL     1     -49.241 -55.585  -2.411  1.00  0.00     0.007 A 
HETATM   19  C   UNL     1     -48.841 -54.276  -3.025  1.00  0.00     0.007 A 
ENDBRANCH  13  17
ENDBRANCH   3  13
TORSDOF 5
ENDMDL
MODEL 7
REMARK VINA RESULT:      -4.4      3.233      5.301
REMARK  5 active torsions:
REMARK  status: ('A' for Active; 'I' for Inactive)
REMARK    1  A    between atoms: N_7  and  C_8 
REMARK    2  A    between atoms: C_8  and  C_9 
REMARK       I    between atoms: C_9  and  N_11 
REMARK    3  A    between atoms: N_11  and  C_12 
REMARK    4  A    between atoms: C_12  and  C_13 
REMARK    5  A    between atoms: C_12  and  C_16 
ROOT
HETATM    1  C   UNL     1     -41.005 -48.618  11.650  1.00  0.00     0.236 C 
HETATM    2  O   UNL     1     -40.734 -49.177  10.587  1.00  0.00    -0.272 OA
HETATM    3  N   UNL     1     -41.371 -47.286  11.738  1.00  0.00    -0.354 N 
HETATM    4  H   UNL     1     -41.309 -46.813  12.640  1.00  0.00     0.162 HD
ENDROOT
BRANCH   1   5
HETATM    5  C   UNL     1     -40.972 -49.394  12.973  1.00  0.00     0.235 C 
BRANCH   5   6
HETATM    6  N   UNL     1     -41.375 -50.784  12.877  1.00  0.00    -0.303 N 
HETATM    7  C   UNL     1     -42.659 -51.281  13.074  1.00  0.00     0.018 A 
HETATM    8  C   UNL     1     -43.852 -50.410  13.278  1.00  0.00     0.069 C 
HETATM    9  C   UNL     1     -42.711 -52.622  13.066  1.00  0.00     0.080 A 
HETATM   10  S   UNL     1     -41.155 -53.338  12.802  1.00  0.00    -0.039 SA
HETATM   11  C   UNL     1     -40.393 -51.747  12.696  1.00  0.00     0.290 A 
HETATM   12  O   UNL     1     -39.200 -51.565  12.519  1.00  0.00    -0.259 OA
ENDBRANCH   5   6
ENDBRANCH   1   5
BRANCH   3  13
HETATM   13  C   UNL     1     -41.574 -46.479  10.544  1.00  0.00     0.092 C 
BRANCH  13  14
HETATM   14  C   UNL     1     -43.048 -46.326  10.249  1.00  0.00     0.009 A 
HETATM   15  C   UNL     1     -43.901 -47.458   9.725  1.00  0.00     0.007 A 
HETATM   16  C   UNL     1     -43.499 -46.345   8.802  1.00  0.00     0.007 A 
ENDBRANCH  13  14
BRANCH  13  17
HETATM   17  C   UNL     1     -40.909 -45.134  10.698  1.00  0.00     0.009 A 
HETATM   18  C   UNL     1     -39.553 -44.835  10.089  1.00  0.00     0.007 A 
HETATM   19  C   UNL     1     -39.684 -45.019  11.571  1.00  0.00     0.007 A 
ENDBRANCH  13  17
ENDBRANCH   3  13
TORSDOF 5
ENDMDL
MODEL 8
REMARK VINA RESULT:      -4.4      3.051      6.120
REMARK  5 active torsions:
REMARK  status: ('A' for Active; 'I' for Inactive)
REMARK    1  A    between atoms: N_7  and  C_8 
REMARK    2  A    between atoms: C_8  and  C_9 
REMARK       I    between atoms: C_9  and  N_11 
REMARK    3  A    between atoms: N_11  and  C_12 
REMARK    4  A    between atoms: C_12  and  C_13 
REMARK    5  A    between atoms: C_12  and  C_16 
ROOT
HETATM    1  C   UNL     1     -42.153 -51.122  12.899  1.00  0.00     0.236 C 
HETATM    2  O   UNL     1     -41.953 -50.954  14.101  1.00  0.00    -0.272 OA
HETATM    3  N   UNL     1     -43.075 -52.026  12.399  1.00  0.00    -0.354 N 
HETATM    4  H   UNL     1     -43.001 -52.322  11.425  1.00  0.00     0.162 HD
ENDROOT
BRANCH   1   5
HETATM    5  C   UNL     1     -41.384 -50.302  11.855  1.00  0.00     0.235 C 
BRANCH   5   6
HETATM    6  N   UNL     1     -41.101 -48.933  12.240  1.00  0.00    -0.303 N 
HETATM    7  C   UNL     1     -41.921 -47.832  12.015  1.00  0.00     0.018 A 
HETATM    8  C   UNL     1     -43.299 -47.937  11.455  1.00  0.00     0.069 C 
HETATM    9  C   UNL     1     -41.341 -46.667  12.347  1.00  0.00     0.080 A 
HETATM   10  S   UNL     1     -39.738 -46.886  12.972  1.00  0.00    -0.039 SA
HETATM   11  C   UNL     1     -39.855 -48.639  12.774  1.00  0.00     0.290 A 
HETATM   12  O   UNL     1     -38.961 -49.423  13.048  1.00  0.00    -0.259 OA
ENDBRANCH   5   6
ENDBRANCH   1   5
BRANCH   3  13
HETATM   13  C   UNL     1     -43.965 -52.762  13.283  1.00  0.00     0.092 C 
BRANCH  13  14
HETATM   14  C   UNL     1     -45.386 -52.712  12.771  1.00  0.00     0.009 A 
HETATM   15  C   UNL     1     -46.190 -51.434  12.710  1.00  0.00     0.007 A 
HETATM   16  C   UNL     1     -46.501 -52.455  13.765  1.00  0.00     0.007 A 
ENDBRANCH  13  14
BRANCH  13  17
HETATM   17  C   UNL     1     -43.494 -54.186  13.437  1.00  0.00     0.009 A 
HETATM   18  C   UNL     1     -43.611 -54.932  14.753  1.00  0.00     0.007 A 
HETATM   19  C   UNL     1     -42.269 -54.466  14.272  1.00  0.00     0.007 A 
ENDBRANCH  13  17
ENDBRANCH   3  13
TORSDOF 5
ENDMDL
MODEL 9
REMARK VINA RESULT:      -4.4      2.973      6.171
REMARK  5 active torsions:
REMARK  status: ('A' for Active; 'I' for Inactive)
REMARK    1  A    between atoms: N_7  and  C_8 
REMARK    2  A    between atoms: C_8  and  C_9 
REMARK       I    between atoms: C_9  and  N_11 
REMARK    3  A    between atoms: N_11  and  C_12 
REMARK    4  A    between atoms: C_12  and  C_13 
REMARK    5  A    between atoms: C_12  and  C_16 
ROOT
HETATM    1  C   UNL     1     -41.985 -52.304  13.033  1.00  0.00     0.236 C 
HETATM    2  O   UNL     1     -41.503 -52.778  14.061  1.00  0.00    -0.272 OA
HETATM    3  N   UNL     1     -43.345 -52.127  12.841  1.00  0.00    -0.354 N 
HETATM    4  H   UNL     1     -43.699 -52.001  11.892  1.00  0.00     0.162 HD
ENDROOT
BRANCH   1   5
HETATM    5  C   UNL     1     -41.080 -51.850  11.881  1.00  0.00     0.235 C 
BRANCH   5   6
HETATM    6  N   UNL     1     -40.280 -50.672  12.160  1.00  0.00    -0.303 N 
HETATM    7  C   UNL     1     -40.657 -49.353  11.933  1.00  0.00     0.018 A 
HETATM    8  C   UNL     1     -42.024 -48.956  11.489  1.00  0.00     0.069 C 
HETATM    9  C   UNL     1     -39.662 -48.477  12.148  1.00  0.00     0.080 A 
HETATM   10  S   UNL     1     -38.200 -49.257  12.658  1.00  0.00    -0.039 SA
HETATM   11  C   UNL     1     -38.968 -50.846  12.577  1.00  0.00     0.290 A 
HETATM   12  O   UNL     1     -38.403 -51.898  12.827  1.00  0.00    -0.259 OA
ENDBRANCH   5   6
ENDBRANCH   1   5
BRANCH   3  13
HETATM   13  C   UNL     1     -44.298 -52.388  13.909  1.00  0.00     0.092 C 
BRANCH  13  14
HETATM   14  C   UNL     1     -44.902 -51.097  14.410  1.00  0.00     0.009 A 
HETATM   15  C   UNL     1     -44.087 -50.017  15.082  1.00  0.00     0.007 A 
HETATM   16  C   UNL     1     -44.997 -50.879  15.907  1.00  0.00     0.007 A 
ENDBRANCH  13  14
BRANCH  13  17
HETATM   17  C   UNL     1     -45.368 -53.341  13.438  1.00  0.00     0.009 A 
HETATM   18  C   UNL     1     -46.159 -54.199  14.406  1.00  0.00     0.007 A 
HETATM   19  C   UNL     1     -45.116 -54.826  13.529  1.00  0.00     0.007 A 
ENDBRANCH  13  17
ENDBRANCH   3  13
TORSDOF 5
ENDMDL
