MODEL 1
REMARK VINA RESULT:      -6.1      0.000      0.000
REMARK  5 active torsions:
REMARK  status: ('A' for Active; 'I' for Inactive)
REMARK    1  A    between atoms: S_2  and  N_4 
REMARK    2  A    between atoms: S_2  and  N_14 
REMARK    3  A    between atoms: N_4  and  C_5 
REMARK    4  A    between atoms: C_5  and  C_6 
REMARK    5  A    between atoms: C_6  and  C_7 
ROOT
HETATM    1  N   UNL     1     -41.372 -54.039  12.558  1.00  0.00    -0.206 NA
HETATM    2  H   UNL     1     -41.074 -54.996  12.365  1.00  0.00     0.140 HD
ENDROOT
BRANCH   1   3
HETATM    3  S   UNL     1     -40.188 -53.339  13.535  1.00  0.00     0.280 S 
HETATM    4  O   UNL     1     -40.836 -52.774  14.693  1.00  0.00    -0.194 OA
HETATM    5  O   UNL     1     -39.136 -54.320  13.658  1.00  0.00    -0.194 OA
BRANCH   3   6
HETATM    6  N   UNL     1     -39.599 -52.047  12.582  1.00  0.00    -0.198 NA
HETATM    7  C   UNL     1     -38.426 -51.431  13.305  1.00  0.00     0.108 C 
HETATM    8  C   UNL     1     -37.521 -50.628  12.382  1.00  0.00     0.015 C 
HETATM    9  C   UNL     1     -37.892 -49.151  12.303  1.00  0.00     0.001 C 
HETATM   10  C   UNL     1     -39.381 -48.856  12.161  1.00  0.00     0.001 C 
HETATM   11  C   UNL     1     -40.143 -49.896  11.345  1.00  0.00     0.015 C 
HETATM   12  C   UNL     1     -40.653 -51.063  12.195  1.00  0.00     0.108 C 
ENDBRANCH   3   6
ENDBRANCH   1   3
BRANCH   1  13
HETATM   13  C   UNL     1     -42.705 -54.012  13.240  1.00  0.00     0.110 C 
BRANCH  13  14
HETATM   14  C   UNL     1     -43.729 -53.198  12.448  1.00  0.00     0.055 C 
BRANCH  14  15
HETATM   15  C   UNL     1     -44.981 -52.969  13.259  1.00  0.00    -0.042 A 
HETATM   16  C   UNL     1     -45.418 -51.682  13.583  1.00  0.00     0.010 A 
HETATM   17  C   UNL     1     -46.555 -51.512  14.369  1.00  0.00     0.018 A 
HETATM   18  C   UNL     1     -47.221 -52.642  14.814  1.00  0.00     0.087 A 
HETATM   19  N   UNL     1     -46.828 -53.901  14.529  1.00  0.00    -0.375 N 
HETATM   20  C   UNL     1     -45.721 -54.036  13.763  1.00  0.00     0.094 A 
ATOM     21  HN  UNL     1     -47.342 -54.712  14.875  1.00  0.00     0.164 HD
ENDBRANCH  14  15
ENDBRANCH  13  14
ENDBRANCH   1  13
TORSDOF 5
ENDMDL
MODEL 2
REMARK VINA RESULT:      -5.8      2.247      6.290
REMARK  5 active torsions:
REMARK  status: ('A' for Active; 'I' for Inactive)
REMARK    1  A    between atoms: S_2  and  N_4 
REMARK    2  A    between atoms: S_2  and  N_14 
REMARK    3  A    between atoms: N_4  and  C_5 
REMARK    4  A    between atoms: C_5  and  C_6 
REMARK    5  A    between atoms: C_6  and  C_7 
ROOT
HETATM    1  N   UNL     1     -42.300 -53.462  15.277  1.00  0.00    -0.206 NA
HETATM    2  H   UNL     1     -42.096 -52.832  16.054  1.00  0.00     0.140 HD
ENDROOT
BRANCH   1   3
HETATM    3  S   UNL     1     -43.534 -54.493  15.788  1.00  0.00     0.280 S 
HETATM    4  O   UNL     1     -43.270 -55.809  15.258  1.00  0.00    -0.194 OA
HETATM    5  O   UNL     1     -43.690 -54.264  17.204  1.00  0.00    -0.194 OA
BRANCH   3   6
HETATM    6  N   UNL     1     -44.919 -53.878  14.995  1.00  0.00    -0.198 NA
HETATM    7  C   UNL     1     -44.459 -53.106  13.784  1.00  0.00     0.108 C 
HETATM    8  C   UNL     1     -45.556 -52.934  12.743  1.00  0.00     0.015 C 
HETATM    9  C   UNL     1     -46.359 -51.648  12.914  1.00  0.00     0.001 C 
HETATM   10  C   UNL     1     -46.770 -51.318  14.345  1.00  0.00     0.001 C 
HETATM   11  C   UNL     1     -47.071 -52.545  15.201  1.00  0.00     0.015 C 
HETATM   12  C   UNL     1     -45.827 -53.106  15.894  1.00  0.00     0.108 C 
ENDBRANCH   3   6
ENDBRANCH   1   3
BRANCH   1  13
HETATM   13  C   UNL     1     -41.086 -54.244  14.881  1.00  0.00     0.110 C 
BRANCH  13  14
HETATM   14  C   UNL     1     -40.888 -54.250  13.364  1.00  0.00     0.055 C 
BRANCH  14  15
HETATM   15  C   UNL     1     -40.526 -52.874  12.861  1.00  0.00    -0.042 A 
HETATM   16  C   UNL     1     -39.534 -52.107  13.478  1.00  0.00     0.010 A 
HETATM   17  C   UNL     1     -39.259 -50.823  13.011  1.00  0.00     0.018 A 
HETATM   18  C   UNL     1     -39.991 -50.343  11.939  1.00  0.00     0.087 A 
HETATM   19  N   UNL     1     -40.961 -51.049  11.321  1.00  0.00    -0.375 N 
HETATM   20  C   UNL     1     -41.207 -52.292  11.795  1.00  0.00     0.094 A 
ATOM     21  HN  UNL     1     -41.483 -50.663  10.533  1.00  0.00     0.164 HD
ENDBRANCH  14  15
ENDBRANCH  13  14
ENDBRANCH   1  13
TORSDOF 5
ENDMDL
MODEL 3
REMARK VINA RESULT:      -5.7      2.557      6.364
REMARK  5 active torsions:
REMARK  status: ('A' for Active; 'I' for Inactive)
REMARK    1  A    between atoms: S_2  and  N_4 
REMARK    2  A    between atoms: S_2  and  N_14 
REMARK    3  A    between atoms: N_4  and  C_5 
REMARK    4  A    between atoms: C_5  and  C_6 
REMARK    5  A    between atoms: C_6  and  C_7 
ROOT
HETATM    1  N   UNL     1     -43.185 -54.427  14.430  1.00  0.00    -0.206 NA
HETATM    2  H   UNL     1     -43.169 -55.350  14.867  1.00  0.00     0.140 HD
ENDROOT
BRANCH   1   3
HETATM    3  S   UNL     1     -44.694 -54.251  13.697  1.00  0.00     0.280 S 
HETATM    4  O   UNL     1     -44.490 -54.116  12.276  1.00  0.00    -0.194 OA
HETATM    5  O   UNL     1     -45.532 -55.289  14.247  1.00  0.00    -0.194 OA
BRANCH   3   6
HETATM    6  N   UNL     1     -45.252 -52.748  14.291  1.00  0.00    -0.198 NA
HETATM    7  C   UNL     1     -44.284 -52.276  15.348  1.00  0.00     0.108 C 
HETATM    8  C   UNL     1     -44.372 -50.777  15.598  1.00  0.00     0.015 C 
HETATM    9  C   UNL     1     -45.341 -50.403  16.714  1.00  0.00     0.001 C 
HETATM   10  C   UNL     1     -46.681 -51.132  16.689  1.00  0.00     0.001 C 
HETATM   11  C   UNL     1     -47.191 -51.441  15.284  1.00  0.00     0.015 C 
HETATM   12  C   UNL     1     -46.674 -52.778  14.746  1.00  0.00     0.108 C 
ENDBRANCH   3   6
ENDBRANCH   1   3
BRANCH   1  13
HETATM   13  C   UNL     1     -42.086 -54.286  13.423  1.00  0.00     0.110 C 
BRANCH  13  14
HETATM   14  C   UNL     1     -40.875 -53.557  14.005  1.00  0.00     0.055 C 
BRANCH  14  15
HETATM   15  C   UNL     1     -40.493 -52.374  13.149  1.00  0.00    -0.042 A 
HETATM   16  C   UNL     1     -39.451 -51.515  13.510  1.00  0.00     0.010 A 
HETATM   17  C   UNL     1     -39.156 -50.410  12.716  1.00  0.00     0.018 A 
HETATM   18  C   UNL     1     -39.919 -50.194  11.581  1.00  0.00     0.087 A 
HETATM   19  N   UNL     1     -40.936 -50.995  11.201  1.00  0.00    -0.375 N 
HETATM   20  C   UNL     1     -41.201 -52.061  11.991  1.00  0.00     0.094 A 
ATOM     21  HN  UNL     1     -41.480 -50.806  10.358  1.00  0.00     0.164 HD
ENDBRANCH  14  15
ENDBRANCH  13  14
ENDBRANCH   1  13
TORSDOF 5
ENDMDL
MODEL 4
REMARK VINA RESULT:      -5.7      1.252      1.411
REMARK  5 active torsions:
REMARK  status: ('A' for Active; 'I' for Inactive)
REMARK    1  A    between atoms: S_2  and  N_4 
REMARK    2  A    between atoms: S_2  and  N_14 
REMARK    3  A    between atoms: N_4  and  C_5 
REMARK    4  A    between atoms: C_5  and  C_6 
REMARK    5  A    between atoms: C_6  and  C_7 
ROOT
HETATM    1  N   UNL     1     -42.939 -52.730  12.071  1.00  0.00    -0.206 NA
HETATM    2  H   UNL     1     -42.616 -52.982  11.136  1.00  0.00     0.140 HD
ENDROOT
BRANCH   1   3
HETATM    3  S   UNL     1     -41.641 -52.966  13.122  1.00  0.00     0.280 S 
HETATM    4  O   UNL     1     -42.025 -52.486  14.427  1.00  0.00    -0.194 OA
HETATM    5  O   UNL     1     -41.196 -54.323  12.916  1.00  0.00    -0.194 OA
BRANCH   3   6
HETATM    6  N   UNL     1     -40.438 -51.915  12.512  1.00  0.00    -0.198 NA
HETATM    7  C   UNL     1     -39.466 -51.621  13.627  1.00  0.00     0.108 C 
HETATM    8  C   UNL     1     -38.119 -51.126  13.119  1.00  0.00     0.015 C 
HETATM    9  C   UNL     1     -38.030 -49.607  13.015  1.00  0.00     0.001 C 
HETATM   10  C   UNL     1     -39.244 -48.921  12.397  1.00  0.00     0.001 C 
HETATM   11  C   UNL     1     -39.928 -49.739  11.305  1.00  0.00     0.015 C 
HETATM   12  C   UNL     1     -40.991 -50.694  11.855  1.00  0.00     0.108 C 
ENDBRANCH   3   6
ENDBRANCH   1   3
BRANCH   1  13
HETATM   13  C   UNL     1     -44.112 -53.564  12.482  1.00  0.00     0.110 C 
BRANCH  13  14
HETATM   14  C   UNL     1     -45.401 -52.741  12.528  1.00  0.00     0.055 C 
BRANCH  14  15
HETATM   15  C   UNL     1     -45.896 -52.590  13.946  1.00  0.00    -0.042 A 
HETATM   16  C   UNL     1     -46.650 -51.483  14.344  1.00  0.00     0.010 A 
HETATM   17  C   UNL     1     -47.052 -51.358  15.672  1.00  0.00     0.018 A 
HETATM   18  C   UNL     1     -46.681 -52.347  16.566  1.00  0.00     0.087 A 
HETATM   19  N   UNL     1     -45.948 -53.427  16.224  1.00  0.00    -0.375 N 
HETATM   20  C   UNL     1     -45.571 -53.523  14.928  1.00  0.00     0.094 A 
ATOM     21  HN  UNL     1     -45.690 -54.137  16.910  1.00  0.00     0.164 HD
ENDBRANCH  14  15
ENDBRANCH  13  14
ENDBRANCH   1  13
TORSDOF 5
ENDMDL
MODEL 5
REMARK VINA RESULT:      -5.6      3.474      5.175
REMARK  5 active torsions:
REMARK  status: ('A' for Active; 'I' for Inactive)
REMARK    1  A    between atoms: S_2  and  N_4 
REMARK    2  A    between atoms: S_2  and  N_14 
REMARK    3  A    between atoms: N_4  and  C_5 
REMARK    4  A    between atoms: C_5  and  C_6 
REMARK    5  A    between atoms: C_6  and  C_7 
ROOT
HETATM    1  N   UNL     1     -45.952 -53.821  15.042  1.00  0.00    -0.206 NA
HETATM    2  H   UNL     1     -45.168 -53.474  15.597  1.00  0.00     0.140 HD
ENDROOT
BRANCH   1   3
HETATM    3  S   UNL     1     -45.301 -54.730  13.780  1.00  0.00     0.280 S 
HETATM    4  O   UNL     1     -45.860 -56.058  13.846  1.00  0.00    -0.194 OA
HETATM    5  O   UNL     1     -45.420 -53.917  12.594  1.00  0.00    -0.194 OA
BRANCH   3   6
HETATM    6  N   UNL     1     -43.642 -54.840  14.183  1.00  0.00    -0.198 NA
HETATM    7  C   UNL     1     -43.500 -54.541  15.655  1.00  0.00     0.108 C 
HETATM    8  C   UNL     1     -42.199 -55.073  16.240  1.00  0.00     0.015 C 
HETATM    9  C   UNL     1     -41.059 -54.061  16.207  1.00  0.00     0.001 C 
HETATM   10  C   UNL     1     -40.909 -53.286  14.902  1.00  0.00     0.001 C 
HETATM   11  C   UNL     1     -41.272 -54.092  13.658  1.00  0.00     0.015 C 
HETATM   12  C   UNL     1     -42.760 -54.009  13.310  1.00  0.00     0.108 C 
ENDBRANCH   3   6
ENDBRANCH   1   3
BRANCH   1  13
HETATM   13  C   UNL     1     -46.780 -52.693  14.510  1.00  0.00     0.110 C 
BRANCH  13  14
HETATM   14  C   UNL     1     -46.362 -51.351  15.114  1.00  0.00     0.055 C 
BRANCH  14  15
HETATM   15  C   UNL     1     -44.988 -50.949  14.636  1.00  0.00    -0.042 A 
HETATM   16  C   UNL     1     -43.963 -50.635  15.534  1.00  0.00     0.010 A 
HETATM   17  C   UNL     1     -42.721 -50.226  15.053  1.00  0.00     0.018 A 
HETATM   18  C   UNL     1     -42.543 -50.138  13.683  1.00  0.00     0.087 A 
HETATM   19  N   UNL     1     -43.507 -50.425  12.785  1.00  0.00    -0.375 N 
HETATM   20  C   UNL     1     -44.703 -50.820  13.278  1.00  0.00     0.094 A 
ATOM     21  HN  UNL     1     -43.342 -50.348  11.781  1.00  0.00     0.164 HD
ENDBRANCH  14  15
ENDBRANCH  13  14
ENDBRANCH   1  13
TORSDOF 5
ENDMDL
MODEL 6
REMARK VINA RESULT:      -5.6      2.051      3.137
REMARK  5 active torsions:
REMARK  status: ('A' for Active; 'I' for Inactive)
REMARK    1  A    between atoms: S_2  and  N_4 
REMARK    2  A    between atoms: S_2  and  N_14 
REMARK    3  A    between atoms: N_4  and  C_5 
REMARK    4  A    between atoms: C_5  and  C_6 
REMARK    5  A    between atoms: C_6  and  C_7 
ROOT
HETATM    1  N   UNL     1     -39.754 -52.326  12.415  1.00  0.00    -0.206 NA
HETATM    2  H   UNL     1     -39.172 -53.060  12.010  1.00  0.00     0.140 HD
ENDROOT
BRANCH   1   3
HETATM    3  S   UNL     1     -38.724 -51.069  12.867  1.00  0.00     0.280 S 
HETATM    4  O   UNL     1     -38.434 -51.209  14.273  1.00  0.00    -0.194 OA
HETATM    5  O   UNL     1     -37.675 -51.032  11.877  1.00  0.00    -0.194 OA
BRANCH   3   6
HETATM    6  N   UNL     1     -39.690 -49.672  12.668  1.00  0.00    -0.198 NA
HETATM    7  C   UNL     1     -40.389 -49.774  11.335  1.00  0.00     0.108 C 
HETATM    8  C   UNL     1     -41.621 -48.884  11.247  1.00  0.00     0.015 C 
HETATM    9  C   UNL     1     -41.331 -47.500  10.676  1.00  0.00     0.001 C 
HETATM   10  C   UNL     1     -40.080 -46.817  11.218  1.00  0.00     0.001 C 
HETATM   11  C   UNL     1     -39.788 -47.134  12.683  1.00  0.00     0.015 C 
HETATM   12  C   UNL     1     -38.940 -48.396  12.860  1.00  0.00     0.108 C 
ENDBRANCH   3   6
ENDBRANCH   1   3
BRANCH   1  13
HETATM   13  C   UNL     1     -40.522 -52.833  13.596  1.00  0.00     0.110 C 
BRANCH  13  14
HETATM   14  C   UNL     1     -41.265 -54.130  13.273  1.00  0.00     0.055 C 
BRANCH  14  15
HETATM   15  C   UNL     1     -42.759 -53.916  13.289  1.00  0.00    -0.042 A 
HETATM   16  C   UNL     1     -43.601 -54.691  14.092  1.00  0.00     0.010 A 
HETATM   17  C   UNL     1     -44.979 -54.492  14.046  1.00  0.00     0.018 A 
HETATM   18  C   UNL     1     -45.475 -53.522  13.192  1.00  0.00     0.087 A 
HETATM   19  N   UNL     1     -44.697 -52.759  12.396  1.00  0.00    -0.375 N 
HETATM   20  C   UNL     1     -43.363 -52.973  12.461  1.00  0.00     0.094 A 
ATOM     21  HN  UNL     1     -45.097 -52.054  11.777  1.00  0.00     0.164 HD
ENDBRANCH  14  15
ENDBRANCH  13  14
ENDBRANCH   1  13
TORSDOF 5
ENDMDL
MODEL 7
REMARK VINA RESULT:      -5.4      2.078      6.464
REMARK  5 active torsions:
REMARK  status: ('A' for Active; 'I' for Inactive)
REMARK    1  A    between atoms: S_2  and  N_4 
REMARK    2  A    between atoms: S_2  and  N_14 
REMARK    3  A    between atoms: N_4  and  C_5 
REMARK    4  A    between atoms: C_5  and  C_6 
REMARK    5  A    between atoms: C_6  and  C_7 
ROOT
HETATM    1  N   UNL     1     -41.561 -54.063  15.650  1.00  0.00    -0.206 NA
HETATM    2  H   UNL     1     -40.884 -54.826  15.610  1.00  0.00     0.140 HD
ENDROOT
BRANCH   1   3
HETATM    3  S   UNL     1     -42.792 -54.436  14.559  1.00  0.00     0.280 S 
HETATM    4  O   UNL     1     -42.214 -54.524  13.241  1.00  0.00    -0.194 OA
HETATM    5  O   UNL     1     -43.526 -55.535  15.139  1.00  0.00    -0.194 OA
BRANCH   3   6
HETATM    6  N   UNL     1     -43.793 -53.049  14.600  1.00  0.00    -0.198 NA
HETATM    7  C   UNL     1     -45.025 -53.387  15.403  1.00  0.00     0.108 C 
HETATM    8  C   UNL     1     -45.740 -52.151  15.930  1.00  0.00     0.015 C 
HETATM    9  C   UNL     1     -46.830 -51.636  14.996  1.00  0.00     0.001 C 
HETATM   10  C   UNL     1     -46.455 -51.583  13.518  1.00  0.00     0.001 C 
HETATM   11  C   UNL     1     -44.987 -51.248  13.264  1.00  0.00     0.015 C 
HETATM   12  C   UNL     1     -44.089 -52.488  13.248  1.00  0.00     0.108 C 
ENDBRANCH   3   6
ENDBRANCH   1   3
BRANCH   1  13
HETATM   13  C   UNL     1     -40.923 -52.754  15.303  1.00  0.00     0.110 C 
BRANCH  13  14
HETATM   14  C   UNL     1     -39.511 -52.943  14.747  1.00  0.00     0.055 C 
BRANCH  14  15
HETATM   15  C   UNL     1     -39.223 -51.945  13.652  1.00  0.00    -0.042 A 
HETATM   16  C   UNL     1     -38.039 -51.203  13.632  1.00  0.00     0.010 A 
HETATM   17  C   UNL     1     -37.829 -50.260  12.628  1.00  0.00     0.018 A 
HETATM   18  C   UNL     1     -38.816 -50.085  11.674  1.00  0.00     0.087 A 
HETATM   19  N   UNL     1     -39.974 -50.777  11.662  1.00  0.00    -0.375 N 
HETATM   20  C   UNL     1     -40.153 -51.685  12.648  1.00  0.00     0.094 A 
ATOM     21  HN  UNL     1     -40.682 -50.621  10.943  1.00  0.00     0.164 HD
ENDBRANCH  14  15
ENDBRANCH  13  14
ENDBRANCH   1  13
TORSDOF 5
ENDMDL
MODEL 8
REMARK VINA RESULT:      -5.3      2.015      7.097
REMARK  5 active torsions:
REMARK  status: ('A' for Active; 'I' for Inactive)
REMARK    1  A    between atoms: S_2  and  N_4 
REMARK    2  A    between atoms: S_2  and  N_14 
REMARK    3  A    between atoms: N_4  and  C_5 
REMARK    4  A    between atoms: C_5  and  C_6 
REMARK    5  A    between atoms: C_6  and  C_7 
ROOT
HETATM    1  N   UNL     1     -43.076 -50.133  12.437  1.00  0.00    -0.206 NA
HETATM    2  H   UNL     1     -44.095 -50.073  12.482  1.00  0.00     0.140 HD
ENDROOT
BRANCH   1   3
HETATM    3  S   UNL     1     -42.650 -51.688  12.931  1.00  0.00     0.280 S 
HETATM    4  O   UNL     1     -41.932 -52.322  11.853  1.00  0.00    -0.194 OA
HETATM    5  O   UNL     1     -42.073 -51.549  14.247  1.00  0.00    -0.194 OA
BRANCH   3   6
HETATM    6  N   UNL     1     -44.157 -52.481  13.095  1.00  0.00    -0.198 NA
HETATM    7  C   UNL     1     -45.026 -51.648  14.004  1.00  0.00     0.108 C 
HETATM    8  C   UNL     1     -46.508 -51.955  13.845  1.00  0.00     0.015 C 
HETATM    9  C   UNL     1     -47.012 -53.028  14.805  1.00  0.00     0.001 C 
HETATM   10  C   UNL     1     -46.112 -54.251  14.950  1.00  0.00     0.001 C 
HETATM   11  C   UNL     1     -45.375 -54.634  13.670  1.00  0.00     0.015 C 
HETATM   12  C   UNL     1     -44.036 -53.908  13.515  1.00  0.00     0.108 C 
ENDBRANCH   3   6
ENDBRANCH   1   3
BRANCH   1  13
HETATM   13  C   UNL     1     -42.434 -49.103  13.313  1.00  0.00     0.110 C 
BRANCH  13  14
HETATM   14  C   UNL     1     -41.519 -48.173  12.515  1.00  0.00     0.055 C 
BRANCH  14  15
HETATM   15  C   UNL     1     -40.161 -48.798  12.307  1.00  0.00    -0.042 A 
HETATM   16  C   UNL     1     -39.115 -48.594  13.212  1.00  0.00     0.010 A 
HETATM   17  C   UNL     1     -37.864 -49.152  12.962  1.00  0.00     0.018 A 
HETATM   18  C   UNL     1     -37.695 -49.898  11.808  1.00  0.00     0.087 A 
HETATM   19  N   UNL     1     -38.676 -50.112  10.907  1.00  0.00    -0.375 N 
HETATM   20  C   UNL     1     -39.881 -49.559  11.174  1.00  0.00     0.094 A 
ATOM     21  HN  UNL     1     -38.517 -50.666  10.065  1.00  0.00     0.164 HD
ENDBRANCH  14  15
ENDBRANCH  13  14
ENDBRANCH   1  13
TORSDOF 5
ENDMDL
MODEL 9
REMARK VINA RESULT:      -5.3      3.359      6.741
REMARK  5 active torsions:
REMARK  status: ('A' for Active; 'I' for Inactive)
REMARK    1  A    between atoms: S_2  and  N_4 
REMARK    2  A    between atoms: S_2  and  N_14 
REMARK    3  A    between atoms: N_4  and  C_5 
REMARK    4  A    between atoms: C_5  and  C_6 
REMARK    5  A    between atoms: C_6  and  C_7 
ROOT
HETATM    1  N   UNL     1     -38.016 -49.930  13.847  1.00  0.00    -0.206 NA
HETATM    2  H   UNL     1     -37.191 -50.193  14.387  1.00  0.00     0.140 HD
ENDROOT
BRANCH   1   3
HETATM    3  S   UNL     1     -37.990 -50.843  12.428  1.00  0.00     0.280 S 
HETATM    4  O   UNL     1     -38.308 -49.969  11.325  1.00  0.00    -0.194 OA
HETATM    5  O   UNL     1     -36.766 -51.605  12.462  1.00  0.00    -0.194 OA
BRANCH   3   6
HETATM    6  N   UNL     1     -39.297 -51.928  12.629  1.00  0.00    -0.198 NA
HETATM    7  C   UNL     1     -40.568 -51.199  12.270  1.00  0.00     0.108 C 
HETATM    8  C   UNL     1     -41.711 -52.144  11.930  1.00  0.00     0.015 C 
HETATM    9  C   UNL     1     -42.583 -52.501  13.129  1.00  0.00     0.001 C 
HETATM   10  C   UNL     1     -41.827 -52.840  14.410  1.00  0.00     0.001 C 
HETATM   11  C   UNL     1     -40.496 -53.549  14.174  1.00  0.00     0.015 C 
HETATM   12  C   UNL     1     -39.331 -52.576  13.974  1.00  0.00     0.108 C 
ENDBRANCH   3   6
ENDBRANCH   1   3
BRANCH   1  13
HETATM   13  C   UNL     1     -38.016 -48.466  13.535  1.00  0.00     0.110 C 
BRANCH  13  14
HETATM   14  C   UNL     1     -39.411 -47.857  13.680  1.00  0.00     0.055 C 
BRANCH  14  15
HETATM   15  C   UNL     1     -39.670 -46.835  12.600  1.00  0.00    -0.042 A 
HETATM   16  C   UNL     1     -39.468 -45.470  12.821  1.00  0.00     0.010 A 
HETATM   17  C   UNL     1     -39.760 -44.554  11.812  1.00  0.00     0.018 A 
HETATM   18  C   UNL     1     -40.251 -45.034  10.610  1.00  0.00     0.087 A 
HETATM   19  N   UNL     1     -40.466 -46.342  10.361  1.00  0.00    -0.375 N 
HETATM   20  C   UNL     1     -40.174 -47.210  11.357  1.00  0.00     0.094 A 
ATOM     21  HN  UNL     1     -40.831 -46.662   9.463  1.00  0.00     0.164 HD
ENDBRANCH  14  15
ENDBRANCH  13  14
ENDBRANCH   1  13
TORSDOF 5
ENDMDL
