MODEL 1
REMARK VINA RESULT:      -6.2      0.000      0.000
REMARK  7 active torsions:
REMARK  status: ('A' for Active; 'I' for Inactive)
REMARK    1  A    between atoms: C_5  and  O_6 
REMARK    2  A    between atoms: O_6  and  C_7 
REMARK    3  A    between atoms: C_7  and  C_8 
REMARK    4  A    between atoms: C_8  and  N_9 
REMARK    5  A    between atoms: C_10  and  C_11 
REMARK    6  A    between atoms: C_11  and  N_12 
REMARK    7  A    between atoms: N_12  and  C_13 
ROOT
HETATM    1  N   UNL     1     -42.791 -52.151  13.984  1.00  0.00    -0.331 N 
HETATM    2  C   UNL     1     -42.480 -52.697  12.751  1.00  0.00     0.102 A 
HETATM    3  N   UNL     1     -43.576 -52.938  12.057  1.00  0.00    -0.343 N 
ATOM      4  HN  UNL     1     -43.638 -53.389  11.144  1.00  0.00     0.167 HD
HETATM    5  C   UNL     1     -44.613 -52.458  12.811  1.00  0.00     0.060 A 
HETATM    6  C   UNL     1     -45.982 -52.406  12.500  1.00  0.00     0.032 A 
HETATM    7  C   UNL     1     -46.866 -51.853  13.432  1.00  0.00     0.002 A 
HETATM    8  C   UNL     1     -46.396 -51.371  14.653  1.00  0.00     0.002 A 
HETATM    9  C   UNL     1     -45.034 -51.417  14.982  1.00  0.00     0.032 A 
HETATM   10  C   UNL     1     -44.157 -51.965  14.030  1.00  0.00     0.062 A 
ENDROOT
BRANCH   1  11
HETATM   11  C   UNL     1     -41.850 -51.798  15.035  1.00  0.00     0.157 C 
BRANCH  11  12
HETATM   12  C   UNL     1     -41.399 -50.342  14.962  1.00  0.00     0.196 C 
BRANCH  12  13
HETATM   13  O   UNL     1     -39.979 -50.250  15.123  1.00  0.00    -0.350 OA
BRANCH  13  14
HETATM   14  C   UNL     1     -39.288 -50.147  13.940  1.00  0.00     0.068 A 
HETATM   15  C   UNL     1     -38.077 -50.841  13.875  1.00  0.00     0.038 A 
HETATM   16  C   UNL     1     -37.312 -50.824  12.703  1.00  0.00     0.026 A 
HETATM   17  C   UNL     1     -37.769 -50.120  11.590  1.00  0.00     0.034 A 
HETATM   18 CL   UNL     1     -36.847 -50.114  10.139  1.00  0.00    -0.084 Cl
HETATM   19  C   UNL     1     -38.976 -49.429  11.643  1.00  0.00     0.026 A 
HETATM   20  C   UNL     1     -39.737 -49.445  12.817  1.00  0.00     0.038 A 
ENDBRANCH  13  14
ENDBRANCH  12  13
ENDBRANCH  11  12
ENDBRANCH   1  11
BRANCH   2  21
HETATM   21  C   UNL     1     -41.098 -52.967  12.254  1.00  0.00     0.198 C 
BRANCH  21  22
HETATM   22  N   UNL     1     -40.744 -54.338  12.546  1.00  0.00    -0.361 N 
HETATM   23  H   UNL     1     -40.928 -55.039  11.839  1.00  0.00     0.162 HD
BRANCH  22  24
HETATM   24  C   UNL     1     -39.877 -54.627  13.567  1.00  0.00     0.348 C 
HETATM   25  O   UNL     1     -38.813 -54.062  13.769  1.00  0.00    -0.284 OA
ENDBRANCH  22  24
ENDBRANCH  21  22
ENDBRANCH   2  21
TORSDOF 7
ENDMDL
MODEL 2
REMARK VINA RESULT:      -6.2      2.743      3.292
REMARK  7 active torsions:
REMARK  status: ('A' for Active; 'I' for Inactive)
REMARK    1  A    between atoms: C_5  and  O_6 
REMARK    2  A    between atoms: O_6  and  C_7 
REMARK    3  A    between atoms: C_7  and  C_8 
REMARK    4  A    between atoms: C_8  and  N_9 
REMARK    5  A    between atoms: C_10  and  C_11 
REMARK    6  A    between atoms: C_11  and  N_12 
REMARK    7  A    between atoms: N_12  and  C_13 
ROOT
HETATM    1  N   UNL     1     -42.824 -51.586  13.653  1.00  0.00    -0.331 N 
HETATM    2  C   UNL     1     -42.602 -52.375  12.538  1.00  0.00     0.102 A 
HETATM    3  N   UNL     1     -43.723 -52.944  12.137  1.00  0.00    -0.343 N 
ATOM      4  HN  UNL     1     -43.833 -53.615  11.378  1.00  0.00     0.167 HD
HETATM    5  C   UNL     1     -44.708 -52.449  12.949  1.00  0.00     0.060 A 
HETATM    6  C   UNL     1     -46.093 -52.681  12.901  1.00  0.00     0.032 A 
HETATM    7  C   UNL     1     -46.916 -52.048  13.837  1.00  0.00     0.002 A 
HETATM    8  C   UNL     1     -46.371 -51.208  14.807  1.00  0.00     0.002 A 
HETATM    9  C   UNL     1     -44.991 -50.966  14.871  1.00  0.00     0.032 A 
HETATM   10  C   UNL     1     -44.178 -51.600  13.916  1.00  0.00     0.062 A 
ENDROOT
BRANCH   1  11
HETATM   11  C   UNL     1     -41.821 -50.842  14.399  1.00  0.00     0.157 C 
BRANCH  11  12
HETATM   12  C   UNL     1     -41.796 -49.359  14.040  1.00  0.00     0.196 C 
BRANCH  12  13
HETATM   13  O   UNL     1     -40.996 -49.141  12.873  1.00  0.00    -0.350 OA
BRANCH  13  14
HETATM   14  C   UNL     1     -41.585 -48.328  11.935  1.00  0.00     0.068 A 
HETATM   15  C   UNL     1     -42.965 -48.478  11.773  1.00  0.00     0.038 A 
HETATM   16  C   UNL     1     -43.663 -47.676  10.863  1.00  0.00     0.026 A 
HETATM   17  C   UNL     1     -42.978 -46.712  10.124  1.00  0.00     0.034 A 
HETATM   18 CL   UNL     1     -43.832 -45.706   9.022  1.00  0.00    -0.084 Cl
HETATM   19  C   UNL     1     -41.605 -46.553  10.281  1.00  0.00     0.026 A 
HETATM   20  C   UNL     1     -40.909 -47.358  11.189  1.00  0.00     0.038 A 
ENDBRANCH  13  14
ENDBRANCH  12  13
ENDBRANCH  11  12
ENDBRANCH   1  11
BRANCH   2  21
HETATM   21  C   UNL     1     -41.283 -52.553  11.859  1.00  0.00     0.198 C 
BRANCH  21  22
HETATM   22  N   UNL     1     -40.791 -53.888  12.114  1.00  0.00    -0.361 N 
HETATM   23  H   UNL     1     -40.634 -54.497  11.321  1.00  0.00     0.162 HD
BRANCH  22  24
HETATM   24  C   UNL     1     -40.219 -54.196  13.320  1.00  0.00     0.348 C 
HETATM   25  O   UNL     1     -39.067 -53.949  13.638  1.00  0.00    -0.284 OA
ENDBRANCH  22  24
ENDBRANCH  21  22
ENDBRANCH   2  21
TORSDOF 7
ENDMDL
MODEL 3
REMARK VINA RESULT:      -5.9      2.420      3.550
REMARK  7 active torsions:
REMARK  status: ('A' for Active; 'I' for Inactive)
REMARK    1  A    between atoms: C_5  and  O_6 
REMARK    2  A    between atoms: O_6  and  C_7 
REMARK    3  A    between atoms: C_7  and  C_8 
REMARK    4  A    between atoms: C_8  and  N_9 
REMARK    5  A    between atoms: C_10  and  C_11 
REMARK    6  A    between atoms: C_11  and  N_12 
REMARK    7  A    between atoms: N_12  and  C_13 
ROOT
HETATM    1  N   UNL     1     -42.376 -51.925  12.537  1.00  0.00    -0.331 N 
HETATM    2  C   UNL     1     -42.510 -50.548  12.544  1.00  0.00     0.102 A 
HETATM    3  N   UNL     1     -43.756 -50.201  12.807  1.00  0.00    -0.343 N 
ATOM      4  HN  UNL     1     -44.140 -49.256  12.817  1.00  0.00     0.167 HD
HETATM    5  C   UNL     1     -44.426 -51.366  13.063  1.00  0.00     0.060 A 
HETATM    6  C   UNL     1     -45.761 -51.550  13.460  1.00  0.00     0.032 A 
HETATM    7  C   UNL     1     -46.228 -52.849  13.680  1.00  0.00     0.002 A 
HETATM    8  C   UNL     1     -45.385 -53.944  13.498  1.00  0.00     0.002 A 
HETATM    9  C   UNL     1     -44.051 -53.781  13.100  1.00  0.00     0.032 A 
HETATM   10  C   UNL     1     -43.593 -52.468  12.895  1.00  0.00     0.062 A 
ENDROOT
BRANCH   1  11
HETATM   11  C   UNL     1     -41.165 -52.675  12.241  1.00  0.00     0.157 C 
BRANCH  11  12
HETATM   12  C   UNL     1     -40.412 -53.102  13.498  1.00  0.00     0.196 C 
BRANCH  12  13
HETATM   13  O   UNL     1     -39.007 -52.883  13.336  1.00  0.00    -0.350 OA
BRANCH  13  14
HETATM   14  C   UNL     1     -38.619 -51.578  13.517  1.00  0.00     0.068 A 
HETATM   15  C   UNL     1     -38.876 -51.031  14.776  1.00  0.00     0.038 A 
HETATM   16  C   UNL     1     -38.492 -49.717  15.070  1.00  0.00     0.026 A 
HETATM   17  C   UNL     1     -37.839 -48.955  14.102  1.00  0.00     0.034 A 
HETATM   18 CL   UNL     1     -37.343 -47.348  14.462  1.00  0.00    -0.084 Cl
HETATM   19  C   UNL     1     -37.576 -49.493  12.846  1.00  0.00     0.026 A 
HETATM   20  C   UNL     1     -37.963 -50.805  12.554  1.00  0.00     0.038 A 
ENDBRANCH  13  14
ENDBRANCH  12  13
ENDBRANCH  11  12
ENDBRANCH   1  11
BRANCH   2  21
HETATM   21  C   UNL     1     -41.402 -49.575  12.306  1.00  0.00     0.198 C 
BRANCH  21  22
HETATM   22  N   UNL     1     -41.334 -49.263  10.897  1.00  0.00    -0.361 N 
HETATM   23  H   UNL     1     -41.024 -49.988  10.262  1.00  0.00     0.162 HD
BRANCH  22  24
HETATM   24  C   UNL     1     -41.995 -48.172  10.396  1.00  0.00     0.348 C 
HETATM   25  O   UNL     1     -43.117 -47.817  10.722  1.00  0.00    -0.284 OA
ENDBRANCH  22  24
ENDBRANCH  21  22
ENDBRANCH   2  21
TORSDOF 7
ENDMDL
MODEL 4
REMARK VINA RESULT:      -5.9      5.090      8.115
REMARK  7 active torsions:
REMARK  status: ('A' for Active; 'I' for Inactive)
REMARK    1  A    between atoms: C_5  and  O_6 
REMARK    2  A    between atoms: O_6  and  C_7 
REMARK    3  A    between atoms: C_7  and  C_8 
REMARK    4  A    between atoms: C_8  and  N_9 
REMARK    5  A    between atoms: C_10  and  C_11 
REMARK    6  A    between atoms: C_11  and  N_12 
REMARK    7  A    between atoms: N_12  and  C_13 
ROOT
HETATM    1  N   UNL     1     -41.249 -47.675  11.571  1.00  0.00    -0.331 N 
HETATM    2  C   UNL     1     -41.744 -47.049  10.441  1.00  0.00     0.102 A 
HETATM    3  N   UNL     1     -41.335 -45.796  10.384  1.00  0.00    -0.343 N 
ATOM      4  HN  UNL     1     -41.597 -45.096   9.690  1.00  0.00     0.167 HD
HETATM    5  C   UNL     1     -40.488 -45.626  11.445  1.00  0.00     0.060 A 
HETATM    6  C   UNL     1     -39.732 -44.497  11.802  1.00  0.00     0.032 A 
HETATM    7  C   UNL     1     -38.917 -44.561  12.936  1.00  0.00     0.002 A 
HETATM    8  C   UNL     1     -38.862 -45.723  13.705  1.00  0.00     0.002 A 
HETATM    9  C   UNL     1     -39.611 -46.859  13.366  1.00  0.00     0.032 A 
HETATM   10  C   UNL     1     -40.417 -46.783  12.216  1.00  0.00     0.062 A 
ENDROOT
BRANCH   1  11
HETATM   11  C   UNL     1     -41.522 -49.039  11.994  1.00  0.00     0.157 C 
BRANCH  11  12
HETATM   12  C   UNL     1     -42.760 -49.148  12.879  1.00  0.00     0.196 C 
BRANCH  12  13
HETATM   13  O   UNL     1     -43.180 -50.513  12.986  1.00  0.00    -0.350 OA
BRANCH  13  14
HETATM   14  C   UNL     1     -44.222 -50.712  13.858  1.00  0.00     0.068 A 
HETATM   15  C   UNL     1     -45.405 -51.202  13.299  1.00  0.00     0.038 A 
HETATM   16  C   UNL     1     -46.515 -51.466  14.108  1.00  0.00     0.026 A 
HETATM   17  C   UNL     1     -46.436 -51.249  15.483  1.00  0.00     0.034 A 
HETATM   18 CL   UNL     1     -47.788 -51.593  16.488  1.00  0.00    -0.084 Cl
HETATM   19  C   UNL     1     -45.261 -50.764  16.050  1.00  0.00     0.026 A 
HETATM   20  C   UNL     1     -44.154 -50.499  15.239  1.00  0.00     0.038 A 
ENDBRANCH  13  14
ENDBRANCH  12  13
ENDBRANCH  11  12
ENDBRANCH   1  11
BRANCH   2  21
HETATM   21  C   UNL     1     -42.608 -47.696   9.409  1.00  0.00     0.198 C 
BRANCH  21  22
HETATM   22  N   UNL     1     -43.033 -46.702   8.449  1.00  0.00    -0.361 N 
HETATM   23  H   UNL     1     -42.739 -46.813   7.486  1.00  0.00     0.162 HD
BRANCH  22  24
HETATM   24  C   UNL     1     -44.072 -45.857   8.741  1.00  0.00     0.348 C 
HETATM   25  O   UNL     1     -43.957 -44.689   9.078  1.00  0.00    -0.284 OA
ENDBRANCH  22  24
ENDBRANCH  21  22
ENDBRANCH   2  21
TORSDOF 7
ENDMDL
MODEL 5
REMARK VINA RESULT:      -5.8      5.318      7.877
REMARK  7 active torsions:
REMARK  status: ('A' for Active; 'I' for Inactive)
REMARK    1  A    between atoms: C_5  and  O_6 
REMARK    2  A    between atoms: O_6  and  C_7 
REMARK    3  A    between atoms: C_7  and  C_8 
REMARK    4  A    between atoms: C_8  and  N_9 
REMARK    5  A    between atoms: C_10  and  C_11 
REMARK    6  A    between atoms: C_11  and  N_12 
REMARK    7  A    between atoms: N_12  and  C_13 
ROOT
HETATM    1  N   UNL     1     -41.920 -47.119  10.701  1.00  0.00    -0.331 N 
HETATM    2  C   UNL     1     -43.023 -46.584  10.058  1.00  0.00     0.102 A 
HETATM    3  N   UNL     1     -43.058 -45.273  10.204  1.00  0.00    -0.343 N 
ATOM      4  HN  UNL     1     -43.789 -44.639   9.882  1.00  0.00     0.167 HD
HETATM    5  C   UNL     1     -41.914 -44.937  10.876  1.00  0.00     0.060 A 
HETATM    6  C   UNL     1     -41.434 -43.664  11.225  1.00  0.00     0.032 A 
HETATM    7  C   UNL     1     -40.218 -43.563  11.907  1.00  0.00     0.002 A 
HETATM    8  C   UNL     1     -39.499 -44.709  12.244  1.00  0.00     0.002 A 
HETATM    9  C   UNL     1     -39.962 -45.988  11.907  1.00  0.00     0.032 A 
HETATM   10  C   UNL     1     -41.181 -46.072  11.211  1.00  0.00     0.062 A 
ENDROOT
BRANCH   1  11
HETATM   11  C   UNL     1     -41.575 -48.529  10.797  1.00  0.00     0.157 C 
BRANCH  11  12
HETATM   12  C   UNL     1     -41.938 -49.136  12.150  1.00  0.00     0.196 C 
BRANCH  12  13
HETATM   13  O   UNL     1     -41.738 -50.553  12.131  1.00  0.00    -0.350 OA
BRANCH  13  14
HETATM   14  C   UNL     1     -42.799 -51.275  12.621  1.00  0.00     0.068 A 
HETATM   15  C   UNL     1     -43.786 -50.541  13.283  1.00  0.00     0.038 A 
HETATM   16  C   UNL     1     -44.922 -51.179  13.793  1.00  0.00     0.026 A 
HETATM   17  C   UNL     1     -45.075 -52.555  13.628  1.00  0.00     0.034 A 
HETATM   18 CL   UNL     1     -46.479 -53.344  14.230  1.00  0.00    -0.084 Cl
HETATM   19  C   UNL     1     -44.099 -53.295  12.966  1.00  0.00     0.026 A 
HETATM   20  C   UNL     1     -42.963 -52.654  12.460  1.00  0.00     0.038 A 
ENDBRANCH  13  14
ENDBRANCH  12  13
ENDBRANCH  11  12
ENDBRANCH   1  11
BRANCH   2  21
HETATM   21  C   UNL     1     -44.033 -47.368   9.287  1.00  0.00     0.198 C 
BRANCH  21  22
HETATM   22  N   UNL     1     -45.339 -47.175   9.875  1.00  0.00    -0.361 N 
HETATM   23  H   UNL     1     -45.387 -46.886  10.844  1.00  0.00     0.162 HD
BRANCH  22  24
HETATM   24  C   UNL     1     -46.444 -47.033   9.077  1.00  0.00     0.348 C 
HETATM   25  O   UNL     1     -46.952 -47.923   8.413  1.00  0.00    -0.284 OA
ENDBRANCH  22  24
ENDBRANCH  21  22
ENDBRANCH   2  21
TORSDOF 7
ENDMDL
MODEL 6
REMARK VINA RESULT:      -5.7      4.128      7.467
REMARK  7 active torsions:
REMARK  status: ('A' for Active; 'I' for Inactive)
REMARK    1  A    between atoms: C_5  and  O_6 
REMARK    2  A    between atoms: O_6  and  C_7 
REMARK    3  A    between atoms: C_7  and  C_8 
REMARK    4  A    between atoms: C_8  and  N_9 
REMARK    5  A    between atoms: C_10  and  C_11 
REMARK    6  A    between atoms: C_11  and  N_12 
REMARK    7  A    between atoms: N_12  and  C_13 
ROOT
HETATM    1  N   UNL     1     -39.341 -48.896  12.370  1.00  0.00    -0.331 N 
HETATM    2  C   UNL     1     -39.720 -47.565  12.334  1.00  0.00     0.102 A 
HETATM    3  N   UNL     1     -39.197 -46.903  13.349  1.00  0.00    -0.343 N 
ATOM      4  HN  UNL     1     -39.359 -45.926  13.593  1.00  0.00     0.167 HD
HETATM    5  C   UNL     1     -38.392 -47.794  14.006  1.00  0.00     0.060 A 
HETATM    6  C   UNL     1     -37.556 -47.579  15.114  1.00  0.00     0.032 A 
HETATM    7  C   UNL     1     -36.808 -48.650  15.613  1.00  0.00     0.002 A 
HETATM    8  C   UNL     1     -36.898 -49.911  15.026  1.00  0.00     0.002 A 
HETATM    9  C   UNL     1     -37.729 -50.145  13.921  1.00  0.00     0.032 A 
HETATM   10  C   UNL     1     -38.466 -49.056  13.424  1.00  0.00     0.062 A 
ENDROOT
BRANCH   1  11
HETATM   11  C   UNL     1     -39.758 -49.938  11.446  1.00  0.00     0.157 C 
BRANCH  11  12
HETATM   12  C   UNL     1     -41.003 -50.685  11.918  1.00  0.00     0.196 C 
BRANCH  12  13
HETATM   13  O   UNL     1     -40.634 -51.828  12.697  1.00  0.00    -0.350 OA
BRANCH  13  14
HETATM   14  C   UNL     1     -41.689 -52.642  13.031  1.00  0.00     0.068 A 
HETATM   15  C   UNL     1     -42.862 -52.456  12.296  1.00  0.00     0.038 A 
HETATM   16  C   UNL     1     -43.984 -53.257  12.540  1.00  0.00     0.026 A 
HETATM   17  C   UNL     1     -43.925 -54.252  13.513  1.00  0.00     0.034 A 
HETATM   18 CL   UNL     1     -45.292 -55.255  13.803  1.00  0.00    -0.084 Cl
HETATM   19  C   UNL     1     -42.760 -54.447  14.248  1.00  0.00     0.026 A 
HETATM   20  C   UNL     1     -41.641 -53.644  14.005  1.00  0.00     0.038 A 
ENDBRANCH  13  14
ENDBRANCH  12  13
ENDBRANCH  11  12
ENDBRANCH   1  11
BRANCH   2  21
HETATM   21  C   UNL     1     -40.586 -46.945  11.287  1.00  0.00     0.198 C 
BRANCH  21  22
HETATM   22  N   UNL     1     -39.757 -46.250  10.330  1.00  0.00    -0.361 N 
HETATM   23  H   UNL     1     -39.463 -46.752   9.501  1.00  0.00     0.162 HD
BRANCH  22  24
HETATM   24  C   UNL     1     -39.671 -44.883  10.351  1.00  0.00     0.348 C 
HETATM   25  O   UNL     1     -40.621 -44.117  10.368  1.00  0.00    -0.284 OA
ENDBRANCH  22  24
ENDBRANCH  21  22
ENDBRANCH   2  21
TORSDOF 7
ENDMDL
MODEL 7
REMARK VINA RESULT:      -5.7      4.233      7.519
REMARK  7 active torsions:
REMARK  status: ('A' for Active; 'I' for Inactive)
REMARK    1  A    between atoms: C_5  and  O_6 
REMARK    2  A    between atoms: O_6  and  C_7 
REMARK    3  A    between atoms: C_7  and  C_8 
REMARK    4  A    between atoms: C_8  and  N_9 
REMARK    5  A    between atoms: C_10  and  C_11 
REMARK    6  A    between atoms: C_11  and  N_12 
REMARK    7  A    between atoms: N_12  and  C_13 
ROOT
HETATM    1  N   UNL     1     -41.275 -49.944  12.219  1.00  0.00    -0.331 N 
HETATM    2  C   UNL     1     -41.226 -48.929  11.278  1.00  0.00     0.102 A 
HETATM    3  N   UNL     1     -39.976 -48.626  10.983  1.00  0.00    -0.343 N 
ATOM      4  HN  UNL     1     -39.654 -47.881  10.366  1.00  0.00     0.167 HD
HETATM    5  C   UNL     1     -39.199 -49.517  11.674  1.00  0.00     0.060 A 
HETATM    6  C   UNL     1     -37.802 -49.670  11.658  1.00  0.00     0.032 A 
HETATM    7  C   UNL     1     -37.223 -50.669  12.446  1.00  0.00     0.002 A 
HETATM    8  C   UNL     1     -38.018 -51.493  13.241  1.00  0.00     0.002 A 
HETATM    9  C   UNL     1     -39.413 -51.354  13.272  1.00  0.00     0.032 A 
HETATM   10  C   UNL     1     -39.981 -50.352  12.465  1.00  0.00     0.062 A 
ENDROOT
BRANCH   1  11
HETATM   11  C   UNL     1     -42.474 -50.509  12.818  1.00  0.00     0.157 C 
BRANCH  11  12
HETATM   12  C   UNL     1     -42.522 -52.031  12.721  1.00  0.00     0.196 C 
BRANCH  12  13
HETATM   13  O   UNL     1     -43.863 -52.474  12.481  1.00  0.00    -0.350 OA
BRANCH  13  14
HETATM   14  C   UNL     1     -44.726 -52.236  13.523  1.00  0.00     0.068 A 
HETATM   15  C   UNL     1     -45.929 -51.608  13.191  1.00  0.00     0.038 A 
HETATM   16  C   UNL     1     -46.888 -51.349  14.177  1.00  0.00     0.026 A 
HETATM   17  C   UNL     1     -46.645 -51.731  15.495  1.00  0.00     0.034 A 
HETATM   18 CL   UNL     1     -47.828 -51.437  16.708  1.00  0.00    -0.084 Cl
HETATM   19  C   UNL     1     -45.451 -52.360  15.835  1.00  0.00     0.026 A 
HETATM   20  C   UNL     1     -44.493 -52.616  14.848  1.00  0.00     0.038 A 
ENDBRANCH  13  14
ENDBRANCH  12  13
ENDBRANCH  11  12
ENDBRANCH   1  11
BRANCH   2  21
HETATM   21  C   UNL     1     -42.415 -48.271  10.660  1.00  0.00     0.198 C 
BRANCH  21  22
HETATM   22  N   UNL     1     -41.985 -47.110   9.914  1.00  0.00    -0.361 N 
HETATM   23  H   UNL     1     -41.078 -47.141   9.466  1.00  0.00     0.162 HD
BRANCH  22  24
HETATM   24  C   UNL     1     -42.894 -46.162   9.523  1.00  0.00     0.348 C 
HETATM   25  O   UNL     1     -43.141 -45.857   8.367  1.00  0.00    -0.284 OA
ENDBRANCH  22  24
ENDBRANCH  21  22
ENDBRANCH   2  21
TORSDOF 7
ENDMDL
MODEL 8
REMARK VINA RESULT:      -5.7      3.575      6.326
REMARK  7 active torsions:
REMARK  status: ('A' for Active; 'I' for Inactive)
REMARK    1  A    between atoms: C_5  and  O_6 
REMARK    2  A    between atoms: O_6  and  C_7 
REMARK    3  A    between atoms: C_7  and  C_8 
REMARK    4  A    between atoms: C_8  and  N_9 
REMARK    5  A    between atoms: C_10  and  C_11 
REMARK    6  A    between atoms: C_11  and  N_12 
REMARK    7  A    between atoms: N_12  and  C_13 
ROOT
HETATM    1  N   UNL     1     -41.159 -49.369  12.598  1.00  0.00    -0.331 N 
HETATM    2  C   UNL     1     -41.103 -48.583  11.460  1.00  0.00     0.102 A 
HETATM    3  N   UNL     1     -39.883 -48.574  10.958  1.00  0.00    -0.343 N 
ATOM      4  HN  UNL     1     -39.552 -48.033  10.159  1.00  0.00     0.167 HD
HETATM    5  C   UNL     1     -39.152 -49.439  11.727  1.00  0.00     0.060 A 
HETATM    6  C   UNL     1     -37.815 -49.843  11.576  1.00  0.00     0.032 A 
HETATM    7  C   UNL     1     -37.279 -50.758  12.486  1.00  0.00     0.002 A 
HETATM    8  C   UNL     1     -38.056 -51.254  13.532  1.00  0.00     0.002 A 
HETATM    9  C   UNL     1     -39.392 -50.861  13.700  1.00  0.00     0.032 A 
HETATM   10  C   UNL     1     -39.920 -49.949  12.769  1.00  0.00     0.062 A 
ENDROOT
BRANCH   1  11
HETATM   11  C   UNL     1     -42.321 -49.581  13.446  1.00  0.00     0.157 C 
BRANCH  11  12
HETATM   12  C   UNL     1     -43.167 -50.773  13.005  1.00  0.00     0.196 C 
BRANCH  12  13
HETATM   13  O   UNL     1     -43.503 -51.590  14.132  1.00  0.00    -0.350 OA
BRANCH  13  14
HETATM   14  C   UNL     1     -42.508 -52.457  14.512  1.00  0.00     0.068 A 
HETATM   15  C   UNL     1     -42.060 -53.344  13.530  1.00  0.00     0.038 A 
HETATM   16  C   UNL     1     -41.028 -54.248  13.809  1.00  0.00     0.026 A 
HETATM   17  C   UNL     1     -40.436 -54.252  15.070  1.00  0.00     0.034 A 
HETATM   18 CL   UNL     1     -39.151 -55.343  15.414  1.00  0.00    -0.084 Cl
HETATM   19  C   UNL     1     -40.872 -53.370  16.054  1.00  0.00     0.026 A 
HETATM   20  C   UNL     1     -41.906 -52.470  15.774  1.00  0.00     0.038 A 
ENDBRANCH  13  14
ENDBRANCH  12  13
ENDBRANCH  11  12
ENDBRANCH   1  11
BRANCH   2  21
HETATM   21  C   UNL     1     -42.260 -47.852  10.862  1.00  0.00     0.198 C 
BRANCH  21  22
HETATM   22  N   UNL     1     -42.400 -48.232   9.474  1.00  0.00    -0.361 N 
HETATM   23  H   UNL     1     -42.002 -49.115   9.180  1.00  0.00     0.162 HD
BRANCH  22  24
HETATM   24  C   UNL     1     -43.329 -47.616   8.677  1.00  0.00     0.348 C 
HETATM   25  O   UNL     1     -43.454 -47.791   7.476  1.00  0.00    -0.284 OA
ENDBRANCH  22  24
ENDBRANCH  21  22
ENDBRANCH   2  21
TORSDOF 7
ENDMDL
MODEL 9
REMARK VINA RESULT:      -5.6      5.091      7.098
REMARK  7 active torsions:
REMARK  status: ('A' for Active; 'I' for Inactive)
REMARK    1  A    between atoms: C_5  and  O_6 
REMARK    2  A    between atoms: O_6  and  C_7 
REMARK    3  A    between atoms: C_7  and  C_8 
REMARK    4  A    between atoms: C_8  and  N_9 
REMARK    5  A    between atoms: C_10  and  C_11 
REMARK    6  A    between atoms: C_11  and  N_12 
REMARK    7  A    between atoms: N_12  and  C_13 
ROOT
HETATM    1  N   UNL     1     -42.153 -46.924  10.396  1.00  0.00    -0.331 N 
HETATM    2  C   UNL     1     -43.276 -46.473   9.725  1.00  0.00     0.102 A 
HETATM    3  N   UNL     1     -43.486 -45.194   9.972  1.00  0.00    -0.343 N 
ATOM      4  HN  UNL     1     -44.272 -44.628   9.654  1.00  0.00     0.167 HD
HETATM    5  C   UNL     1     -42.432 -44.781  10.743  1.00  0.00     0.060 A 
HETATM    6  C   UNL     1     -42.138 -43.494  11.222  1.00  0.00     0.032 A 
HETATM    7  C   UNL     1     -40.985 -43.306  11.990  1.00  0.00     0.002 A 
HETATM    8  C   UNL     1     -40.146 -44.381  12.282  1.00  0.00     0.002 A 
HETATM    9  C   UNL     1     -40.424 -45.673  11.815  1.00  0.00     0.032 A 
HETATM   10  C   UNL     1     -41.581 -45.843  11.034  1.00  0.00     0.062 A 
ENDROOT
BRANCH   1  11
HETATM   11  C   UNL     1     -41.638 -48.285  10.402  1.00  0.00     0.157 C 
BRANCH  11  12
HETATM   12  C   UNL     1     -41.956 -49.031  11.695  1.00  0.00     0.196 C 
BRANCH  12  13
HETATM   13  O   UNL     1     -40.767 -49.209  12.474  1.00  0.00    -0.350 OA
BRANCH  13  14
HETATM   14  C   UNL     1     -40.488 -50.520  12.776  1.00  0.00     0.068 A 
HETATM   15  C   UNL     1     -39.579 -50.729  13.816  1.00  0.00     0.038 A 
HETATM   16  C   UNL     1     -39.252 -52.028  14.221  1.00  0.00     0.026 A 
HETATM   17  C   UNL     1     -39.846 -53.119  13.589  1.00  0.00     0.034 A 
HETATM   18 CL   UNL     1     -39.468 -54.719  14.096  1.00  0.00    -0.084 Cl
HETATM   19  C   UNL     1     -40.756 -52.921  12.554  1.00  0.00     0.026 A 
HETATM   20  C   UNL     1     -41.079 -51.622  12.150  1.00  0.00     0.038 A 
ENDBRANCH  13  14
ENDBRANCH  12  13
ENDBRANCH  11  12
ENDBRANCH   1  11
BRANCH   2  21
HETATM   21  C   UNL     1     -44.134 -47.304   8.829  1.00  0.00     0.198 C 
BRANCH  21  22
HETATM   22  N   UNL     1     -45.181 -47.924   9.609  1.00  0.00    -0.361 N 
HETATM   23  H   UNL     1     -45.080 -47.940  10.616  1.00  0.00     0.162 HD
BRANCH  22  24
HETATM   24  C   UNL     1     -46.414 -48.154   9.055  1.00  0.00     0.348 C 
HETATM   25  O   UNL     1     -47.267 -47.303   8.859  1.00  0.00    -0.284 OA
ENDBRANCH  22  24
ENDBRANCH  21  22
ENDBRANCH   2  21
TORSDOF 7
ENDMDL
