MODEL 1
REMARK VINA RESULT:      -6.1      0.000      0.000
REMARK  5 active torsions:
REMARK  status: ('A' for Active; 'I' for Inactive)
REMARK    1  A    between atoms: N_2  and  C_4 
REMARK    2  A    between atoms: C_4  and  C_5 
REMARK    3  A    between atoms: C_5  and  N_6 
REMARK       I    between atoms: N_6  and  C_7 
REMARK    4  A    between atoms: C_7  and  C_9 
REMARK    5  A    between atoms: C_9  and  N_10 
ROOT
HETATM    1  N   UNL     1     -42.393 -52.433  11.843  1.00  0.00    -0.357 N 
HETATM    2  C   UNL     1     -42.680 -53.403  12.787  1.00  0.00     0.236 C 
HETATM    3  O   UNL     1     -41.860 -53.814  13.607  1.00  0.00    -0.272 OA
HETATM    4  H   UNL     1     -43.006 -52.326  11.040  1.00  0.00     0.162 HD
ENDROOT
BRANCH   1   5
HETATM    5  C   UNL     1     -41.089 -51.786  11.736  1.00  0.00     0.164 C 
BRANCH   5   6
HETATM    6  C   UNL     1     -41.018 -50.373  12.433  1.00  0.00     0.174 C 
HETATM    7  C   UNL     1     -40.486 -50.500  13.899  1.00  0.00     0.043 C 
HETATM    8  C   UNL     1     -39.303 -51.430  14.158  1.00  0.00     0.003 C 
HETATM    9  C   UNL     1     -37.918 -50.992  13.695  1.00  0.00     0.000 C 
HETATM   10  C   UNL     1     -37.809 -49.796  12.760  1.00  0.00     0.000 C 
HETATM   11  C   UNL     1     -38.595 -49.921  11.462  1.00  0.00     0.003 C 
HETATM   12  C   UNL     1     -40.053 -49.475  11.592  1.00  0.00     0.043 C 
BRANCH   6  13
HETATM   13  N   UNL     1     -42.400 -49.730  12.417  1.00  0.00     0.091 N 
HETATM   14  C   UNL     1     -42.950 -49.407  13.742  1.00  0.00     0.310 C 
HETATM   15  C   UNL     1     -42.504 -48.523  11.582  1.00  0.00     0.310 C 
ENDBRANCH   6  13
ENDBRANCH   5   6
ENDBRANCH   1   5
BRANCH   2  16
HETATM   16  C   UNL     1     -44.132 -53.891  12.782  1.00  0.00     0.235 C 
BRANCH  16  17
HETATM   17  N   UNL     1     -44.979 -53.211  13.761  1.00  0.00    -0.301 N 
HETATM   18  C   UNL     1     -45.645 -52.059  13.411  1.00  0.00     0.102 C 
HETATM   19  C   UNL     1     -46.523 -51.483  14.232  1.00  0.00     0.092 C 
HETATM   20  C   UNL     1     -46.795 -52.096  15.543  1.00  0.00     0.252 C 
HETATM   21  O   UNL     1     -47.712 -51.646  16.225  1.00  0.00    -0.268 OA
HETATM   22  N   UNL     1     -45.978 -53.153  15.897  1.00  0.00    -0.271 N 
HETATM   23  C   UNL     1     -46.132 -53.738  17.214  1.00  0.00     0.164 C 
HETATM   24  C   UNL     1     -45.092 -53.781  15.025  1.00  0.00     0.331 C 
HETATM   25  O   UNL     1     -44.466 -54.800  15.335  1.00  0.00    -0.246 OA
ENDBRANCH  16  17
ENDBRANCH   2  16
TORSDOF 5
ENDMDL
MODEL 2
REMARK VINA RESULT:      -5.8      3.478      7.305
REMARK  5 active torsions:
REMARK  status: ('A' for Active; 'I' for Inactive)
REMARK    1  A    between atoms: N_2  and  C_4 
REMARK    2  A    between atoms: C_4  and  C_5 
REMARK    3  A    between atoms: C_5  and  N_6 
REMARK       I    between atoms: N_6  and  C_7 
REMARK    4  A    between atoms: C_7  and  C_9 
REMARK    5  A    between atoms: C_9  and  N_10 
ROOT
HETATM    1  N   UNL     1     -42.806 -49.939  12.670  1.00  0.00    -0.357 N 
HETATM    2  C   UNL     1     -41.489 -49.569  12.466  1.00  0.00     0.236 C 
HETATM    3  O   UNL     1     -40.644 -49.554  13.360  1.00  0.00    -0.272 OA
HETATM    4  H   UNL     1     -43.507 -49.684  11.979  1.00  0.00     0.162 HD
ENDROOT
BRANCH   1   5
HETATM    5  C   UNL     1     -43.323 -50.367  13.967  1.00  0.00     0.164 C 
BRANCH   5   6
HETATM    6  C   UNL     1     -43.661 -51.906  14.043  1.00  0.00     0.174 C 
HETATM    7  C   UNL     1     -44.235 -52.282  15.448  1.00  0.00     0.043 C 
HETATM    8  C   UNL     1     -45.259 -51.344  16.084  1.00  0.00     0.003 C 
HETATM    9  C   UNL     1     -46.673 -51.318  15.515  1.00  0.00     0.000 C 
HETATM   10  C   UNL     1     -46.933 -52.006  14.183  1.00  0.00     0.000 C 
HETATM   11  C   UNL     1     -46.075 -51.512  13.026  1.00  0.00     0.003 C 
HETATM   12  C   UNL     1     -44.720 -52.215  12.934  1.00  0.00     0.043 C 
BRANCH   6  13
HETATM   13  N   UNL     1     -42.406 -52.716  13.740  1.00  0.00     0.091 N 
HETATM   14  C   UNL     1     -41.409 -52.745  14.821  1.00  0.00     0.310 C 
HETATM   15  C   UNL     1     -42.658 -54.105  13.325  1.00  0.00     0.310 C 
ENDBRANCH   6  13
ENDBRANCH   5   6
ENDBRANCH   1   5
BRANCH   2  16
HETATM   16  C   UNL     1     -41.136 -49.235  11.014  1.00  0.00     0.235 C 
BRANCH  16  17
HETATM   17  N   UNL     1     -41.605 -47.915  10.589  1.00  0.00    -0.301 N 
HETATM   18  C   UNL     1     -42.802 -47.794   9.922  1.00  0.00     0.102 C 
HETATM   19  C   UNL     1     -43.321 -46.602   9.633  1.00  0.00     0.092 C 
HETATM   20  C   UNL     1     -42.604 -45.383  10.042  1.00  0.00     0.252 C 
HETATM   21  O   UNL     1     -43.162 -44.297   9.907  1.00  0.00    -0.268 OA
HETATM   22  N   UNL     1     -41.337 -45.572  10.560  1.00  0.00    -0.271 N 
HETATM   23  C   UNL     1     -40.542 -44.407  10.894  1.00  0.00     0.164 C 
HETATM   24  C   UNL     1     -40.812 -46.816  10.903  1.00  0.00     0.331 C 
HETATM   25  O   UNL     1     -39.726 -46.942  11.477  1.00  0.00    -0.246 OA
ENDBRANCH  16  17
ENDBRANCH   2  16
TORSDOF 5
ENDMDL
MODEL 3
REMARK VINA RESULT:      -5.8      2.400      6.438
REMARK  5 active torsions:
REMARK  status: ('A' for Active; 'I' for Inactive)
REMARK    1  A    between atoms: N_2  and  C_4 
REMARK    2  A    between atoms: C_4  and  C_5 
REMARK    3  A    between atoms: C_5  and  N_6 
REMARK       I    between atoms: N_6  and  C_7 
REMARK    4  A    between atoms: C_7  and  C_9 
REMARK    5  A    between atoms: C_9  and  N_10 
ROOT
HETATM    1  N   UNL     1     -43.247 -51.482  12.783  1.00  0.00    -0.357 N 
HETATM    2  C   UNL     1     -42.578 -50.281  12.629  1.00  0.00     0.236 C 
HETATM    3  O   UNL     1     -43.098 -49.185  12.832  1.00  0.00    -0.272 OA
HETATM    4  H   UNL     1     -42.866 -52.321  12.356  1.00  0.00     0.162 HD
ENDROOT
BRANCH   1   5
HETATM    5  C   UNL     1     -44.637 -51.570  13.222  1.00  0.00     0.164 C 
BRANCH   5   6
HETATM    6  C   UNL     1     -44.890 -52.672  14.322  1.00  0.00     0.174 C 
HETATM    7  C   UNL     1     -44.121 -52.330  15.641  1.00  0.00     0.043 C 
HETATM    8  C   UNL     1     -44.137 -50.884  16.131  1.00  0.00     0.003 C 
HETATM    9  C   UNL     1     -45.423 -50.337  16.741  1.00  0.00     0.000 C 
HETATM   10  C   UNL     1     -46.702 -51.146  16.586  1.00  0.00     0.000 C 
HETATM   11  C   UNL     1     -47.095 -51.459  15.149  1.00  0.00     0.003 C 
HETATM   12  C   UNL     1     -46.428 -52.722  14.600  1.00  0.00     0.043 C 
BRANCH   6  13
HETATM   13  N   UNL     1     -44.460 -54.033  13.786  1.00  0.00     0.091 N 
HETATM   14  C   UNL     1     -43.263 -54.601  14.424  1.00  0.00     0.310 C 
HETATM   15  C   UNL     1     -45.512 -55.061  13.809  1.00  0.00     0.310 C 
ENDBRANCH   6  13
ENDBRANCH   5   6
ENDBRANCH   1   5
BRANCH   2  16
HETATM   16  C   UNL     1     -41.103 -50.416  12.241  1.00  0.00     0.235 C 
BRANCH  16  17
HETATM   17  N   UNL     1     -40.287 -51.063  13.269  1.00  0.00    -0.301 N 
HETATM   18  C   UNL     1     -39.778 -50.320  14.310  1.00  0.00     0.102 C 
HETATM   19  C   UNL     1     -39.140 -50.894  15.329  1.00  0.00     0.092 C 
HETATM   20  C   UNL     1     -38.980 -52.358  15.350  1.00  0.00     0.252 C 
HETATM   21  O   UNL     1     -38.528 -52.887  16.361  1.00  0.00    -0.268 OA
HETATM   22  N   UNL     1     -39.367 -53.024  14.202  1.00  0.00    -0.271 N 
HETATM   23  C   UNL     1     -39.148 -54.454  14.123  1.00  0.00     0.164 C 
HETATM   24  C   UNL     1     -40.073 -52.433  13.157  1.00  0.00     0.331 C 
HETATM   25  O   UNL     1     -40.511 -53.082  12.202  1.00  0.00    -0.246 OA
ENDBRANCH  16  17
ENDBRANCH   2  16
TORSDOF 5
ENDMDL
MODEL 4
REMARK VINA RESULT:      -5.8      2.642      6.942
REMARK  5 active torsions:
REMARK  status: ('A' for Active; 'I' for Inactive)
REMARK    1  A    between atoms: N_2  and  C_4 
REMARK    2  A    between atoms: C_4  and  C_5 
REMARK    3  A    between atoms: C_5  and  N_6 
REMARK       I    between atoms: N_6  and  C_7 
REMARK    4  A    between atoms: C_7  and  C_9 
REMARK    5  A    between atoms: C_9  and  N_10 
ROOT
HETATM    1  N   UNL     1     -42.636 -51.872  12.337  1.00  0.00    -0.357 N 
HETATM    2  C   UNL     1     -41.314 -51.848  11.931  1.00  0.00     0.236 C 
HETATM    3  O   UNL     1     -40.609 -52.853  11.860  1.00  0.00    -0.272 OA
HETATM    4  H   UNL     1     -43.082 -51.007  12.629  1.00  0.00     0.162 HD
ENDROOT
BRANCH   1   5
HETATM    5  C   UNL     1     -43.335 -53.100  12.705  1.00  0.00     0.164 C 
BRANCH   5   6
HETATM    6  C   UNL     1     -43.430 -53.337  14.262  1.00  0.00     0.174 C 
HETATM    7  C   UNL     1     -44.327 -52.248  14.939  1.00  0.00     0.043 C 
HETATM    8  C   UNL     1     -45.629 -51.853  14.245  1.00  0.00     0.003 C 
HETATM    9  C   UNL     1     -46.796 -52.833  14.278  1.00  0.00     0.000 C 
HETATM   10  C   UNL     1     -46.538 -54.257  14.748  1.00  0.00     0.000 C 
HETATM   11  C   UNL     1     -45.466 -55.006  13.968  1.00  0.00     0.003 C 
HETATM   12  C   UNL     1     -44.050 -54.755  14.490  1.00  0.00     0.043 C 
BRANCH   6  13
HETATM   13  N   UNL     1     -42.029 -53.330  14.863  1.00  0.00     0.091 N 
HETATM   14  C   UNL     1     -41.830 -52.373  15.962  1.00  0.00     0.310 C 
HETATM   15  C   UNL     1     -41.552 -54.643  15.320  1.00  0.00     0.310 C 
ENDBRANCH   6  13
ENDBRANCH   5   6
ENDBRANCH   1   5
BRANCH   2  16
HETATM   16  C   UNL     1     -40.799 -50.468  11.511  1.00  0.00     0.235 C 
BRANCH  16  17
HETATM   17  N   UNL     1     -39.802 -49.914  12.427  1.00  0.00    -0.301 N 
HETATM   18  C   UNL     1     -38.463 -49.998  12.117  1.00  0.00     0.102 C 
HETATM   19  C   UNL     1     -37.537 -49.395  12.861  1.00  0.00     0.092 C 
HETATM   20  C   UNL     1     -37.951 -48.614  14.039  1.00  0.00     0.252 C 
HETATM   21  O   UNL     1     -37.109 -47.942  14.626  1.00  0.00    -0.268 OA
HETATM   22  N   UNL     1     -39.286 -48.706  14.386  1.00  0.00    -0.271 N 
HETATM   23  C   UNL     1     -39.737 -48.038  15.590  1.00  0.00     0.164 C 
HETATM   24  C   UNL     1     -40.261 -49.298  13.587  1.00  0.00     0.331 C 
HETATM   25  O   UNL     1     -41.463 -49.256  13.866  1.00  0.00    -0.246 OA
ENDBRANCH  16  17
ENDBRANCH   2  16
TORSDOF 5
ENDMDL
MODEL 5
REMARK VINA RESULT:      -5.6      2.212      3.261
REMARK  5 active torsions:
REMARK  status: ('A' for Active; 'I' for Inactive)
REMARK    1  A    between atoms: N_2  and  C_4 
REMARK    2  A    between atoms: C_4  and  C_5 
REMARK    3  A    between atoms: C_5  and  N_6 
REMARK       I    between atoms: N_6  and  C_7 
REMARK    4  A    between atoms: C_7  and  C_9 
REMARK    5  A    between atoms: C_9  and  N_10 
ROOT
HETATM    1  N   UNL     1     -40.572 -50.603  11.311  1.00  0.00    -0.357 N 
HETATM    2  C   UNL     1     -40.375 -51.580  12.270  1.00  0.00     0.236 C 
HETATM    3  O   UNL     1     -39.800 -51.374  13.338  1.00  0.00    -0.272 OA
HETATM    4  H   UNL     1     -40.805 -50.880  10.361  1.00  0.00     0.162 HD
ENDROOT
BRANCH   1   5
HETATM    5  C   UNL     1     -40.133 -49.221  11.478  1.00  0.00     0.164 C 
BRANCH   5   6
HETATM    6  C   UNL     1     -41.224 -48.278  12.118  1.00  0.00     0.174 C 
HETATM    7  C   UNL     1     -40.973 -48.096  13.651  1.00  0.00     0.043 C 
HETATM    8  C   UNL     1     -39.539 -47.873  14.126  1.00  0.00     0.003 C 
HETATM    9  C   UNL     1     -38.887 -46.521  13.861  1.00  0.00     0.000 C 
HETATM   10  C   UNL     1     -39.574 -45.558  12.904  1.00  0.00     0.000 C 
HETATM   11  C   UNL     1     -39.828 -46.110  11.508  1.00  0.00     0.003 C 
HETATM   12  C   UNL     1     -41.138 -46.893  11.396  1.00  0.00     0.043 C 
BRANCH   6  13
HETATM   13  N   UNL     1     -42.610 -48.860  11.865  1.00  0.00     0.091 N 
HETATM   14  C   UNL     1     -43.343 -49.267  13.074  1.00  0.00     0.310 C 
HETATM   15  C   UNL     1     -43.499 -48.001  11.069  1.00  0.00     0.310 C 
ENDBRANCH   6  13
ENDBRANCH   5   6
ENDBRANCH   1   5
BRANCH   2  16
HETATM   16  C   UNL     1     -40.986 -52.943  11.931  1.00  0.00     0.235 C 
BRANCH  16  17
HETATM   17  N   UNL     1     -42.068 -53.337  12.834  1.00  0.00    -0.301 N 
HETATM   18  C   UNL     1     -43.356 -52.922  12.584  1.00  0.00     0.102 C 
HETATM   19  C   UNL     1     -44.384 -53.363  13.308  1.00  0.00     0.092 C 
HETATM   20  C   UNL     1     -44.141 -54.325  14.397  1.00  0.00     0.252 C 
HETATM   21  O   UNL     1     -45.105 -54.839  14.955  1.00  0.00    -0.268 OA
HETATM   22  N   UNL     1     -42.815 -54.573  14.698  1.00  0.00    -0.271 N 
HETATM   23  C   UNL     1     -42.509 -55.436  15.821  1.00  0.00     0.164 C 
HETATM   24  C   UNL     1     -41.743 -54.148  13.917  1.00  0.00     0.331 C 
HETATM   25  O   UNL     1     -40.579 -54.489  14.145  1.00  0.00    -0.246 OA
ENDBRANCH  16  17
ENDBRANCH   2  16
TORSDOF 5
ENDMDL
MODEL 6
REMARK VINA RESULT:      -5.6      2.334      6.331
REMARK  5 active torsions:
REMARK  status: ('A' for Active; 'I' for Inactive)
REMARK    1  A    between atoms: N_2  and  C_4 
REMARK    2  A    between atoms: C_4  and  C_5 
REMARK    3  A    between atoms: C_5  and  N_6 
REMARK       I    between atoms: N_6  and  C_7 
REMARK    4  A    between atoms: C_7  and  C_9 
REMARK    5  A    between atoms: C_9  and  N_10 
ROOT
HETATM    1  N   UNL     1     -43.839 -53.502  15.882  1.00  0.00    -0.357 N 
HETATM    2  C   UNL     1     -43.482 -54.666  15.226  1.00  0.00     0.236 C 
HETATM    3  O   UNL     1     -44.295 -55.420  14.694  1.00  0.00    -0.272 OA
HETATM    4  H   UNL     1     -43.177 -53.067  16.518  1.00  0.00     0.162 HD
ENDROOT
BRANCH   1   5
HETATM    5  C   UNL     1     -45.220 -53.040  15.992  1.00  0.00     0.164 C 
BRANCH   5   6
HETATM    6  C   UNL     1     -45.486 -51.649  15.296  1.00  0.00     0.174 C 
HETATM    7  C   UNL     1     -47.000 -51.265  15.380  1.00  0.00     0.043 C 
HETATM    8  C   UNL     1     -47.733 -51.500  16.699  1.00  0.00     0.003 C 
HETATM    9  C   UNL     1     -47.434 -50.573  17.871  1.00  0.00     0.000 C 
HETATM   10  C   UNL     1     -46.236 -49.641  17.775  1.00  0.00     0.000 C 
HETATM   11  C   UNL     1     -44.903 -50.332  17.520  1.00  0.00     0.003 C 
HETATM   12  C   UNL     1     -44.622 -50.576  16.036  1.00  0.00     0.043 C 
BRANCH   6  13
HETATM   13  N   UNL     1     -45.026 -51.712  13.845  1.00  0.00     0.091 N 
HETATM   14  C   UNL     1     -46.106 -51.658  12.848  1.00  0.00     0.310 C 
HETATM   15  C   UNL     1     -44.024 -50.701  13.476  1.00  0.00     0.310 C 
ENDBRANCH   6  13
ENDBRANCH   5   6
ENDBRANCH   1   5
BRANCH   2  16
HETATM   16  C   UNL     1     -41.974 -54.922  15.154  1.00  0.00     0.235 C 
BRANCH  16  17
HETATM   17  N   UNL     1     -41.257 -53.953  14.325  1.00  0.00    -0.301 N 
HETATM   18  C   UNL     1     -41.587 -53.807  12.998  1.00  0.00     0.102 C 
HETATM   19  C   UNL     1     -41.046 -52.849  12.246  1.00  0.00     0.092 C 
HETATM   20  C   UNL     1     -40.077 -51.919  12.848  1.00  0.00     0.252 C 
HETATM   21  O   UNL     1     -39.702 -50.952  12.191  1.00  0.00    -0.268 OA
HETATM   22  N   UNL     1     -39.669 -52.220  14.133  1.00  0.00    -0.271 N 
HETATM   23  C   UNL     1     -38.645 -51.397  14.747  1.00  0.00     0.164 C 
HETATM   24  C   UNL     1     -40.264 -53.192  14.934  1.00  0.00     0.331 C 
HETATM   25  O   UNL     1     -39.958 -53.353  16.120  1.00  0.00    -0.246 OA
ENDBRANCH  16  17
ENDBRANCH   2  16
TORSDOF 5
ENDMDL
MODEL 7
REMARK VINA RESULT:      -5.5      3.362      7.059
REMARK  5 active torsions:
REMARK  status: ('A' for Active; 'I' for Inactive)
REMARK    1  A    between atoms: N_2  and  C_4 
REMARK    2  A    between atoms: C_4  and  C_5 
REMARK    3  A    between atoms: C_5  and  N_6 
REMARK       I    between atoms: N_6  and  C_7 
REMARK    4  A    between atoms: C_7  and  C_9 
REMARK    5  A    between atoms: C_9  and  N_10 
ROOT
HETATM    1  N   UNL     1     -42.895 -50.297  12.695  1.00  0.00    -0.357 N 
HETATM    2  C   UNL     1     -41.566 -49.966  12.501  1.00  0.00     0.236 C 
HETATM    3  O   UNL     1     -40.698 -50.117  13.360  1.00  0.00    -0.272 OA
HETATM    4  H   UNL     1     -43.598 -49.914  12.070  1.00  0.00     0.162 HD
ENDROOT
BRANCH   1   5
HETATM    5  C   UNL     1     -43.399 -50.878  13.936  1.00  0.00     0.164 C 
BRANCH   5   6
HETATM    6  C   UNL     1     -44.428 -52.054  13.718  1.00  0.00     0.174 C 
HETATM    7  C   UNL     1     -43.875 -53.095  12.689  1.00  0.00     0.043 C 
HETATM    8  C   UNL     1     -42.408 -53.505  12.796  1.00  0.00     0.003 C 
HETATM    9  C   UNL     1     -41.991 -54.419  13.943  1.00  0.00     0.000 C 
HETATM   10  C   UNL     1     -42.975 -54.657  15.078  1.00  0.00     0.000 C 
HETATM   11  C   UNL     1     -43.459 -53.398  15.785  1.00  0.00     0.003 C 
HETATM   12  C   UNL     1     -44.662 -52.744  15.102  1.00  0.00     0.043 C 
BRANCH   6  13
HETATM   13  N   UNL     1     -45.759 -51.482  13.242  1.00  0.00     0.091 N 
HETATM   14  C   UNL     1     -46.373 -52.196  12.112  1.00  0.00     0.310 C 
HETATM   15  C   UNL     1     -46.778 -51.346  14.294  1.00  0.00     0.310 C 
ENDBRANCH   6  13
ENDBRANCH   5   6
ENDBRANCH   1   5
BRANCH   2  16
HETATM   16  C   UNL     1     -41.234 -49.448  11.099  1.00  0.00     0.235 C 
BRANCH  16  17
HETATM   17  N   UNL     1     -41.188 -47.988  11.013  1.00  0.00    -0.301 N 
HETATM   18  C   UNL     1     -40.087 -47.307  11.480  1.00  0.00     0.102 C 
HETATM   19  C   UNL     1     -39.954 -45.993  11.303  1.00  0.00     0.092 C 
HETATM   20  C   UNL     1     -41.003 -45.250  10.586  1.00  0.00     0.252 C 
HETATM   21  O   UNL     1     -40.800 -44.074  10.297  1.00  0.00    -0.268 OA
HETATM   22  N   UNL     1     -42.151 -45.960  10.289  1.00  0.00    -0.271 N 
HETATM   23  C   UNL     1     -43.259 -45.261   9.669  1.00  0.00     0.164 C 
HETATM   24  C   UNL     1     -42.274 -47.340  10.433  1.00  0.00     0.331 C 
HETATM   25  O   UNL     1     -43.268 -47.962  10.044  1.00  0.00    -0.246 OA
ENDBRANCH  16  17
ENDBRANCH   2  16
TORSDOF 5
ENDMDL
MODEL 8
REMARK VINA RESULT:      -5.5      2.876      6.617
REMARK  5 active torsions:
REMARK  status: ('A' for Active; 'I' for Inactive)
REMARK    1  A    between atoms: N_2  and  C_4 
REMARK    2  A    between atoms: C_4  and  C_5 
REMARK    3  A    between atoms: C_5  and  N_6 
REMARK       I    between atoms: N_6  and  C_7 
REMARK    4  A    between atoms: C_7  and  C_9 
REMARK    5  A    between atoms: C_9  and  N_10 
ROOT
HETATM    1  N   UNL     1     -42.378 -51.646  12.122  1.00  0.00    -0.357 N 
HETATM    2  C   UNL     1     -41.008 -51.664  11.927  1.00  0.00     0.236 C 
HETATM    3  O   UNL     1     -40.309 -52.657  12.122  1.00  0.00    -0.272 OA
HETATM    4  H   UNL     1     -42.856 -50.754  12.204  1.00  0.00     0.162 HD
ENDROOT
BRANCH   1   5
HETATM    5  C   UNL     1     -43.136 -52.814  12.562  1.00  0.00     0.164 C 
BRANCH   5   6
HETATM    6  C   UNL     1     -43.369 -52.872  14.122  1.00  0.00     0.174 C 
HETATM    7  C   UNL     1     -44.221 -51.651  14.603  1.00  0.00     0.043 C 
HETATM    8  C   UNL     1     -45.428 -51.238  13.764  1.00  0.00     0.003 C 
HETATM    9  C   UNL     1     -46.672 -52.118  13.797  1.00  0.00     0.000 C 
HETATM   10  C   UNL     1     -46.571 -53.496  14.432  1.00  0.00     0.000 C 
HETATM   11  C   UNL     1     -45.509 -54.406  13.828  1.00  0.00     0.003 C 
HETATM   12  C   UNL     1     -44.122 -54.206  14.440  1.00  0.00     0.043 C 
BRANCH   6  13
HETATM   13  N   UNL     1     -42.023 -52.904  14.836  1.00  0.00     0.091 N 
HETATM   14  C   UNL     1     -41.899 -51.974  15.969  1.00  0.00     0.310 C 
HETATM   15  C   UNL     1     -41.608 -54.236  15.301  1.00  0.00     0.310 C 
ENDBRANCH   6  13
ENDBRANCH   5   6
ENDBRANCH   1   5
BRANCH   2  16
HETATM   16  C   UNL     1     -40.423 -50.357  11.384  1.00  0.00     0.235 C 
BRANCH  16  17
HETATM   17  N   UNL     1     -40.779 -49.183  12.181  1.00  0.00    -0.301 N 
HETATM   18  C   UNL     1     -40.408 -49.113  13.504  1.00  0.00     0.102 C 
HETATM   19  C   UNL     1     -40.602 -48.009  14.225  1.00  0.00     0.092 C 
HETATM   20  C   UNL     1     -41.222 -46.832  13.592  1.00  0.00     0.252 C 
HETATM   21  O   UNL     1     -41.257 -45.777  14.218  1.00  0.00    -0.268 OA
HETATM   22  N   UNL     1     -41.717 -47.023  12.316  1.00  0.00    -0.271 N 
HETATM   23  C   UNL     1     -42.423 -45.931  11.675  1.00  0.00     0.164 C 
HETATM   24  C   UNL     1     -41.476 -48.159  11.547  1.00  0.00     0.331 C 
HETATM   25  O   UNL     1     -41.828 -48.248  10.367  1.00  0.00    -0.246 OA
ENDBRANCH  16  17
ENDBRANCH   2  16
TORSDOF 5
ENDMDL
MODEL 9
REMARK VINA RESULT:      -5.5      3.948      7.078
REMARK  5 active torsions:
REMARK  status: ('A' for Active; 'I' for Inactive)
REMARK    1  A    between atoms: N_2  and  C_4 
REMARK    2  A    between atoms: C_4  and  C_5 
REMARK    3  A    between atoms: C_5  and  N_6 
REMARK       I    between atoms: N_6  and  C_7 
REMARK    4  A    between atoms: C_7  and  C_9 
REMARK    5  A    between atoms: C_9  and  N_10 
ROOT
HETATM    1  N   UNL     1     -41.869 -50.376  11.711  1.00  0.00    -0.357 N 
HETATM    2  C   UNL     1     -40.990 -49.439  11.198  1.00  0.00     0.236 C 
HETATM    3  O   UNL     1     -39.806 -49.676  10.965  1.00  0.00    -0.272 OA
HETATM    4  H   UNL     1     -42.742 -50.064  12.126  1.00  0.00     0.162 HD
ENDROOT
BRANCH   1   5
HETATM    5  C   UNL     1     -41.481 -51.751  12.012  1.00  0.00     0.164 C 
BRANCH   5   6
HETATM    6  C   UNL     1     -42.305 -52.403  13.189  1.00  0.00     0.174 C 
HETATM    7  C   UNL     1     -41.902 -53.901  13.389  1.00  0.00     0.043 C 
HETATM    8  C   UNL     1     -40.419 -54.263  13.334  1.00  0.00     0.003 C 
HETATM    9  C   UNL     1     -39.531 -53.869  14.508  1.00  0.00     0.000 C 
HETATM   10  C   UNL     1     -40.082 -52.903  15.545  1.00  0.00     0.000 C 
HETATM   11  C   UNL     1     -40.553 -51.565  14.991  1.00  0.00     0.003 C 
HETATM   12  C   UNL     1     -41.998 -51.591  14.490  1.00  0.00     0.043 C 
BRANCH   6  13
HETATM   13  N   UNL     1     -43.796 -52.282  12.894  1.00  0.00     0.091 N 
HETATM   14  C   UNL     1     -44.494 -53.559  12.689  1.00  0.00     0.310 C 
HETATM   15  C   UNL     1     -44.556 -51.509  13.888  1.00  0.00     0.310 C 
ENDBRANCH   6  13
ENDBRANCH   5   6
ENDBRANCH   1   5
BRANCH   2  16
HETATM   16  C   UNL     1     -41.620 -48.080  10.877  1.00  0.00     0.235 C 
BRANCH  16  17
HETATM   17  N   UNL     1     -41.016 -46.969  11.613  1.00  0.00    -0.301 N 
HETATM   18  C   UNL     1     -40.432 -47.194  12.838  1.00  0.00     0.102 C 
HETATM   19  C   UNL     1     -39.762 -46.236  13.478  1.00  0.00     0.092 C 
HETATM   20  C   UNL     1     -39.635 -44.906  12.858  1.00  0.00     0.252 C 
HETATM   21  O   UNL     1     -38.892 -44.081  13.381  1.00  0.00    -0.268 OA
HETATM   22  N   UNL     1     -40.379 -44.701  11.712  1.00  0.00    -0.271 N 
HETATM   23  C   UNL     1     -40.372 -43.383  11.107  1.00  0.00     0.164 C 
HETATM   24  C   UNL     1     -41.043 -45.711  11.020  1.00  0.00     0.331 C 
HETATM   25  O   UNL     1     -41.596 -45.518   9.933  1.00  0.00    -0.246 OA
ENDBRANCH  16  17
ENDBRANCH   2  16
TORSDOF 5
ENDMDL
