MODEL 1
REMARK VINA RESULT:      -5.1      0.000      0.000
REMARK  5 active torsions:
REMARK  status: ('A' for Active; 'I' for Inactive)
REMARK    1  A    between atoms: O_1  and  C_2 
REMARK    2  A    between atoms: C_2  and  C_3 
REMARK    3  A    between atoms: C_3  and  O_4 
REMARK    4  A    between atoms: O_4  and  C_5 
REMARK    5  A    between atoms: N_9  and  C_11 
ROOT
HETATM    1  C   UNL     1     -40.815 -51.818  13.430  1.00  0.00     0.139 C 
HETATM    2  C   UNL     1     -40.362 -53.277  13.302  1.00  0.00     0.035 C 
HETATM    3  C   UNL     1     -41.559 -54.221  13.258  1.00  0.00     0.022 C 
HETATM    4  C   UNL     1     -42.444 -54.057  14.495  1.00  0.00     0.124 C 
HETATM    5  N   UNL     1     -42.839 -52.661  14.675  1.00  0.00    -0.362 N 
HETATM    6  C   UNL     1     -41.757 -51.663  14.649  1.00  0.00     0.156 C 
ENDROOT
BRANCH   5   7
HETATM    7  C   UNL     1     -44.148 -52.259  14.454  1.00  0.00     0.142 A 
HETATM    8  N   UNL     1     -44.877 -51.829  15.517  1.00  0.00    -0.350 N 
HETATM    9  C   UNL     1     -46.151 -51.409  15.323  1.00  0.00     0.090 A 
ATOM     10  HN  UNL     1     -44.469 -51.822  16.452  1.00  0.00     0.166 HD
HETATM   11  C   UNL     1     -46.783 -51.402  14.096  1.00  0.00     0.020 A 
HETATM   12  C   UNL     1     -46.073 -51.884  13.009  1.00  0.00     0.047 A 
HETATM   13  C   UNL     1     -44.764 -52.324  13.193  1.00  0.00     0.160 A 
HETATM   14  F   UNL     1     -44.143 -52.857  12.129  1.00  0.00    -0.202 F 
ENDBRANCH   5   7
BRANCH   1  15
HETATM   15  O   UNL     1     -41.387 -51.430  12.170  1.00  0.00    -0.382 OA
BRANCH  15  16
HETATM   16  C   UNL     1     -41.877 -50.090  12.168  1.00  0.00     0.194 C 
BRANCH  16  17
HETATM   17  C   UNL     1     -41.000 -49.215  11.283  1.00  0.00     0.190 C 
BRANCH  17  18
HETATM   18  O   UNL     1     -40.459 -49.991  10.217  1.00  0.00    -0.399 OA
HETATM   19  H   UNL     1     -40.753 -49.574   9.390  1.00  0.00     0.209 HD
ENDBRANCH  17  18
ENDBRANCH  16  17
ENDBRANCH  15  16
ENDBRANCH   1  15
TORSDOF 5
ENDMDL
MODEL 2
REMARK VINA RESULT:      -5.0      1.762      2.130
REMARK  5 active torsions:
REMARK  status: ('A' for Active; 'I' for Inactive)
REMARK    1  A    between atoms: O_1  and  C_2 
REMARK    2  A    between atoms: C_2  and  C_3 
REMARK    3  A    between atoms: C_3  and  O_4 
REMARK    4  A    between atoms: O_4  and  C_5 
REMARK    5  A    between atoms: N_9  and  C_11 
ROOT
HETATM    1  C   UNL     1     -41.215 -53.217  15.418  1.00  0.00     0.139 C 
HETATM    2  C   UNL     1     -41.237 -54.638  15.993  1.00  0.00     0.035 C 
HETATM    3  C   UNL     1     -42.556 -55.336  15.677  1.00  0.00     0.022 C 
HETATM    4  C   UNL     1     -43.749 -54.541  16.208  1.00  0.00     0.124 C 
HETATM    5  N   UNL     1     -43.716 -53.162  15.724  1.00  0.00    -0.362 N 
HETATM    6  C   UNL     1     -42.453 -52.429  15.910  1.00  0.00     0.156 C 
ENDROOT
BRANCH   5   7
HETATM    7  C   UNL     1     -44.634 -52.716  14.783  1.00  0.00     0.142 A 
HETATM    8  N   UNL     1     -45.590 -51.837  15.183  1.00  0.00    -0.350 N 
HETATM    9  C   UNL     1     -46.484 -51.371  14.279  1.00  0.00     0.090 A 
ATOM     10  HN  UNL     1     -45.634 -51.532  16.156  1.00  0.00     0.166 HD
HETATM   11  C   UNL     1     -46.506 -51.746  12.950  1.00  0.00     0.020 A 
HETATM   12  C   UNL     1     -45.572 -52.679  12.535  1.00  0.00     0.047 A 
HETATM   13  C   UNL     1     -44.648 -53.173  13.454  1.00  0.00     0.160 A 
HETATM   14  F   UNL     1     -43.814 -54.134  13.028  1.00  0.00    -0.202 F 
ENDBRANCH   5   7
BRANCH   1  15
HETATM   15  O   UNL     1     -41.096 -53.329  13.991  1.00  0.00    -0.382 OA
BRANCH  15  16
HETATM   16  C   UNL     1     -41.035 -52.064  13.334  1.00  0.00     0.194 C 
BRANCH  16  17
HETATM   17  C   UNL     1     -41.322 -52.232  11.848  1.00  0.00     0.190 C 
BRANCH  17  18
HETATM   18  O   UNL     1     -40.607 -53.356  11.340  1.00  0.00    -0.399 OA
HETATM   19  H   UNL     1     -41.147 -53.731  10.626  1.00  0.00     0.209 HD
ENDBRANCH  17  18
ENDBRANCH  16  17
ENDBRANCH  15  16
ENDBRANCH   1  15
TORSDOF 5
ENDMDL
MODEL 3
REMARK VINA RESULT:      -4.9      2.108      2.631
REMARK  5 active torsions:
REMARK  status: ('A' for Active; 'I' for Inactive)
REMARK    1  A    between atoms: O_1  and  C_2 
REMARK    2  A    between atoms: C_2  and  C_3 
REMARK    3  A    between atoms: C_3  and  O_4 
REMARK    4  A    between atoms: O_4  and  C_5 
REMARK    5  A    between atoms: N_9  and  C_11 
ROOT
HETATM    1  C   UNL     1     -41.237 -53.167  15.435  1.00  0.00     0.139 C 
HETATM    2  C   UNL     1     -41.274 -54.568  16.055  1.00  0.00     0.035 C 
HETATM    3  C   UNL     1     -42.603 -55.258  15.770  1.00  0.00     0.022 C 
HETATM    4  C   UNL     1     -43.782 -54.431  16.283  1.00  0.00     0.124 C 
HETATM    5  N   UNL     1     -43.735 -53.069  15.755  1.00  0.00    -0.362 N 
HETATM    6  C   UNL     1     -42.462 -52.347  15.909  1.00  0.00     0.156 C 
ENDROOT
BRANCH   5   7
HETATM    7  C   UNL     1     -44.654 -52.642  14.807  1.00  0.00     0.142 A 
HETATM    8  N   UNL     1     -44.497 -53.062  13.524  1.00  0.00    -0.350 N 
HETATM    9  C   UNL     1     -45.393 -52.677  12.584  1.00  0.00     0.090 A 
ATOM     10  HN  UNL     1     -43.711 -53.662  13.272  1.00  0.00     0.166 HD
HETATM   11  C   UNL     1     -46.473 -51.854  12.838  1.00  0.00     0.020 A 
HETATM   12  C   UNL     1     -46.621 -51.376  14.128  1.00  0.00     0.047 A 
HETATM   13  C   UNL     1     -45.705 -51.758  15.105  1.00  0.00     0.160 A 
HETATM   14  F   UNL     1     -45.840 -51.206  16.322  1.00  0.00    -0.202 F 
ENDBRANCH   5   7
BRANCH   1  15
HETATM   15  O   UNL     1     -41.130 -53.326  14.011  1.00  0.00    -0.382 OA
BRANCH  15  16
HETATM   16  C   UNL     1     -40.990 -52.086  13.319  1.00  0.00     0.194 C 
BRANCH  16  17
HETATM   17  C   UNL     1     -41.319 -52.271  11.844  1.00  0.00     0.190 C 
BRANCH  17  18
HETATM   18  O   UNL     1     -40.601 -53.386  11.323  1.00  0.00    -0.399 OA
HETATM   19  H   UNL     1     -41.156 -53.776  10.628  1.00  0.00     0.209 HD
ENDBRANCH  17  18
ENDBRANCH  16  17
ENDBRANCH  15  16
ENDBRANCH   1  15
TORSDOF 5
ENDMDL
MODEL 4
REMARK VINA RESULT:      -4.9      5.862      7.943
REMARK  5 active torsions:
REMARK  status: ('A' for Active; 'I' for Inactive)
REMARK    1  A    between atoms: O_1  and  C_2 
REMARK    2  A    between atoms: C_2  and  C_3 
REMARK    3  A    between atoms: C_3  and  O_4 
REMARK    4  A    between atoms: O_4  and  C_5 
REMARK    5  A    between atoms: N_9  and  C_11 
ROOT
HETATM    1  C   UNL     1     -42.813 -47.884  10.648  1.00  0.00     0.139 C 
HETATM    2  C   UNL     1     -42.921 -48.546  12.027  1.00  0.00     0.035 C 
HETATM    3  C   UNL     1     -42.880 -47.504  13.139  1.00  0.00     0.022 C 
HETATM    4  C   UNL     1     -41.607 -46.660  13.066  1.00  0.00     0.124 C 
HETATM    5  N   UNL     1     -41.447 -46.068  11.739  1.00  0.00    -0.362 N 
HETATM    6  C   UNL     1     -41.554 -46.984  10.592  1.00  0.00     0.156 C 
ENDROOT
BRANCH   5   7
HETATM    7  C   UNL     1     -41.616 -44.704  11.544  1.00  0.00     0.142 A 
HETATM    8  N   UNL     1     -42.845 -44.254  11.181  1.00  0.00    -0.350 N 
HETATM    9  C   UNL     1     -43.041 -42.925  11.006  1.00  0.00     0.090 A 
ATOM     10  HN  UNL     1     -43.614 -44.911  11.040  1.00  0.00     0.166 HD
HETATM   11  C   UNL     1     -42.054 -41.972  11.158  1.00  0.00     0.020 A 
HETATM   12  C   UNL     1     -40.783 -42.416  11.479  1.00  0.00     0.047 A 
HETATM   13  C   UNL     1     -40.563 -43.780  11.657  1.00  0.00     0.160 A 
HETATM   14  F   UNL     1     -39.300 -44.173  11.888  1.00  0.00    -0.202 F 
ENDBRANCH   5   7
BRANCH   1  15
HETATM   15  O   UNL     1     -44.054 -47.206  10.394  1.00  0.00    -0.382 OA
BRANCH  15  16
HETATM   16  C   UNL     1     -44.575 -47.461   9.091  1.00  0.00     0.194 C 
BRANCH  16  17
HETATM   17  C   UNL     1     -46.085 -47.273   9.086  1.00  0.00     0.190 C 
BRANCH  17  18
HETATM   18  O   UNL     1     -46.660 -47.990   7.996  1.00  0.00    -0.399 OA
HETATM   19  H   UNL     1     -46.344 -48.906   8.067  1.00  0.00     0.209 HD
ENDBRANCH  17  18
ENDBRANCH  16  17
ENDBRANCH  15  16
ENDBRANCH   1  15
TORSDOF 5
ENDMDL
MODEL 5
REMARK VINA RESULT:      -4.8      4.430      6.081
REMARK  5 active torsions:
REMARK  status: ('A' for Active; 'I' for Inactive)
REMARK    1  A    between atoms: O_1  and  C_2 
REMARK    2  A    between atoms: C_2  and  C_3 
REMARK    3  A    between atoms: C_3  and  O_4 
REMARK    4  A    between atoms: O_4  and  C_5 
REMARK    5  A    between atoms: N_9  and  C_11 
ROOT
HETATM    1  C   UNL     1     -38.595 -50.620  12.616  1.00  0.00     0.139 C 
HETATM    2  C   UNL     1     -38.312 -50.240  14.074  1.00  0.00     0.035 C 
HETATM    3  C   UNL     1     -39.117 -49.012  14.486  1.00  0.00     0.022 C 
HETATM    4  C   UNL     1     -38.826 -47.822  13.572  1.00  0.00     0.124 C 
HETATM    5  N   UNL     1     -39.029 -48.177  12.168  1.00  0.00    -0.362 N 
HETATM    6  C   UNL     1     -38.356 -49.398  11.695  1.00  0.00     0.156 C 
ENDROOT
BRANCH   5   7
HETATM    7  C   UNL     1     -40.103 -47.667  11.453  1.00  0.00     0.142 A 
HETATM    8  N   UNL     1     -40.972 -48.543  10.886  1.00  0.00    -0.350 N 
HETATM    9  C   UNL     1     -42.041 -48.069  10.201  1.00  0.00     0.090 A 
ATOM     10  HN  UNL     1     -40.822 -49.548  10.974  1.00  0.00     0.166 HD
HETATM   11  C   UNL     1     -42.308 -46.727  10.019  1.00  0.00     0.020 A 
HETATM   12  C   UNL     1     -41.406 -45.819  10.547  1.00  0.00     0.047 A 
HETATM   13  C   UNL     1     -40.299 -46.291  11.249  1.00  0.00     0.160 A 
HETATM   14  F   UNL     1     -39.409 -45.379  11.673  1.00  0.00    -0.202 F 
ENDBRANCH   5   7
BRANCH   1  15
HETATM   15  O   UNL     1     -39.922 -51.168  12.561  1.00  0.00    -0.382 OA
BRANCH  15  16
HETATM   16  C   UNL     1     -40.080 -52.333  13.371  1.00  0.00     0.194 C 
BRANCH  16  17
HETATM   17  C   UNL     1     -40.935 -53.362  12.644  1.00  0.00     0.190 C 
BRANCH  17  18
HETATM   18  O   UNL     1     -40.592 -53.389  11.261  1.00  0.00    -0.399 OA
HETATM   19  H   UNL     1     -41.240 -53.965  10.824  1.00  0.00     0.209 HD
ENDBRANCH  17  18
ENDBRANCH  16  17
ENDBRANCH  15  16
ENDBRANCH   1  15
TORSDOF 5
ENDMDL
MODEL 6
REMARK VINA RESULT:      -4.8      5.636      7.328
REMARK  5 active torsions:
REMARK  status: ('A' for Active; 'I' for Inactive)
REMARK    1  A    between atoms: O_1  and  C_2 
REMARK    2  A    between atoms: C_2  and  C_3 
REMARK    3  A    between atoms: C_3  and  O_4 
REMARK    4  A    between atoms: O_4  and  C_5 
REMARK    5  A    between atoms: N_9  and  C_11 
ROOT
HETATM    1  C   UNL     1     -42.540 -46.338  11.393  1.00  0.00     0.139 C 
HETATM    2  C   UNL     1     -42.061 -44.964  10.913  1.00  0.00     0.035 C 
HETATM    3  C   UNL     1     -40.546 -44.940  10.743  1.00  0.00     0.022 C 
HETATM    4  C   UNL     1     -39.833 -45.315  12.042  1.00  0.00     0.124 C 
HETATM    5  N   UNL     1     -40.318 -46.594  12.556  1.00  0.00    -0.362 N 
HETATM    6  C   UNL     1     -41.777 -46.744  12.678  1.00  0.00     0.156 C 
ENDROOT
BRANCH   5   7
HETATM    7  C   UNL     1     -39.515 -47.725  12.521  1.00  0.00     0.142 A 
HETATM    8  N   UNL     1     -39.662 -48.586  11.480  1.00  0.00    -0.350 N 
HETATM    9  C   UNL     1     -38.874 -49.686  11.411  1.00  0.00     0.090 A 
ATOM     10  HN  UNL     1     -40.360 -48.407  10.758  1.00  0.00     0.166 HD
HETATM   11  C   UNL     1     -37.919 -50.013  12.354  1.00  0.00     0.020 A 
HETATM   12  C   UNL     1     -37.789 -49.174  13.447  1.00  0.00     0.047 A 
HETATM   13  C   UNL     1     -38.596 -48.041  13.536  1.00  0.00     0.160 A 
HETATM   14  F   UNL     1     -38.492 -47.301  14.651  1.00  0.00    -0.202 F 
ENDBRANCH   5   7
BRANCH   1  15
HETATM   15  O   UNL     1     -42.403 -47.254  10.294  1.00  0.00    -0.382 OA
BRANCH  15  16
HETATM   16  C   UNL     1     -43.630 -47.488   9.605  1.00  0.00     0.194 C 
BRANCH  16  17
HETATM   17  C   UNL     1     -43.403 -47.433   8.100  1.00  0.00     0.190 C 
BRANCH  17  18
HETATM   18  O   UNL     1     -42.759 -46.210   7.752  1.00  0.00    -0.399 OA
HETATM   19  H   UNL     1     -41.803 -46.364   7.834  1.00  0.00     0.209 HD
ENDBRANCH  17  18
ENDBRANCH  16  17
ENDBRANCH  15  16
ENDBRANCH   1  15
TORSDOF 5
ENDMDL
MODEL 7
REMARK VINA RESULT:      -4.8      2.904      4.008
REMARK  5 active torsions:
REMARK  status: ('A' for Active; 'I' for Inactive)
REMARK    1  A    between atoms: O_1  and  C_2 
REMARK    2  A    between atoms: C_2  and  C_3 
REMARK    3  A    between atoms: C_3  and  O_4 
REMARK    4  A    between atoms: O_4  and  C_5 
REMARK    5  A    between atoms: N_9  and  C_11 
ROOT
HETATM    1  C   UNL     1     -39.225 -51.915  13.667  1.00  0.00     0.139 C 
HETATM    2  C   UNL     1     -39.875 -53.302  13.602  1.00  0.00     0.035 C 
HETATM    3  C   UNL     1     -41.122 -53.282  12.725  1.00  0.00     0.022 C 
HETATM    4  C   UNL     1     -42.138 -52.254  13.222  1.00  0.00     0.124 C 
HETATM    5  N   UNL     1     -41.525 -50.933  13.353  1.00  0.00    -0.362 N 
HETATM    6  C   UNL     1     -40.268 -50.863  14.116  1.00  0.00     0.156 C 
ENDROOT
BRANCH   5   7
HETATM    7  C   UNL     1     -41.852 -49.908  12.477  1.00  0.00     0.142 A 
HETATM    8  N   UNL     1     -41.101 -49.757  11.355  1.00  0.00    -0.350 N 
HETATM    9  C   UNL     1     -41.413 -48.778  10.472  1.00  0.00     0.090 A 
ATOM     10  HN  UNL     1     -40.308 -50.375  11.178  1.00  0.00     0.166 HD
HETATM   11  C   UNL     1     -42.456 -47.888  10.642  1.00  0.00     0.020 A 
HETATM   12  C   UNL     1     -43.201 -47.995  11.804  1.00  0.00     0.047 A 
HETATM   13  C   UNL     1     -42.889 -48.993  12.724  1.00  0.00     0.160 A 
HETATM   14  F   UNL     1     -43.586 -49.008  13.872  1.00  0.00    -0.202 F 
ENDBRANCH   5   7
BRANCH   1  15
HETATM   15  O   UNL     1     -38.620 -51.660  12.389  1.00  0.00    -0.382 OA
BRANCH  15  16
HETATM   16  C   UNL     1     -37.471 -50.818  12.472  1.00  0.00     0.194 C 
BRANCH  16  17
HETATM   17  C   UNL     1     -37.569 -49.696  11.447  1.00  0.00     0.190 C 
BRANCH  17  18
HETATM   18  O   UNL     1     -37.297 -50.205  10.144  1.00  0.00    -0.399 OA
HETATM   19  H   UNL     1     -38.014 -49.894   9.567  1.00  0.00     0.209 HD
ENDBRANCH  17  18
ENDBRANCH  16  17
ENDBRANCH  15  16
ENDBRANCH   1  15
TORSDOF 5
ENDMDL
MODEL 8
REMARK VINA RESULT:      -4.7      2.145      3.355
REMARK  5 active torsions:
REMARK  status: ('A' for Active; 'I' for Inactive)
REMARK    1  A    between atoms: O_1  and  C_2 
REMARK    2  A    between atoms: C_2  and  C_3 
REMARK    3  A    between atoms: C_3  and  O_4 
REMARK    4  A    between atoms: O_4  and  C_5 
REMARK    5  A    between atoms: N_9  and  C_11 
ROOT
HETATM    1  C   UNL     1     -41.932 -52.973  13.064  1.00  0.00     0.139 C 
HETATM    2  C   UNL     1     -41.321 -51.658  12.566  1.00  0.00     0.035 C 
HETATM    3  C   UNL     1     -42.012 -50.457  13.202  1.00  0.00     0.022 C 
HETATM    4  C   UNL     1     -43.516 -50.468  12.929  1.00  0.00     0.124 C 
HETATM    5  N   UNL     1     -44.113 -51.738  13.339  1.00  0.00    -0.362 N 
HETATM    6  C   UNL     1     -43.464 -52.962  12.840  1.00  0.00     0.156 C 
ENDROOT
BRANCH   5   7
HETATM    7  C   UNL     1     -44.945 -51.808  14.447  1.00  0.00     0.142 A 
HETATM    8  N   UNL     1     -44.422 -52.259  15.617  1.00  0.00    -0.350 N 
HETATM    9  C   UNL     1     -45.209 -52.315  16.718  1.00  0.00     0.090 A 
ATOM     10  HN  UNL     1     -43.446 -52.553  15.665  1.00  0.00     0.166 HD
HETATM   11  C   UNL     1     -46.541 -51.954  16.735  1.00  0.00     0.020 A 
HETATM   12  C   UNL     1     -47.105 -51.539  15.541  1.00  0.00     0.047 A 
HETATM   13  C   UNL     1     -46.311 -51.481  14.398  1.00  0.00     0.160 A 
HETATM   14  F   UNL     1     -46.918 -51.152  13.246  1.00  0.00    -0.202 F 
ENDBRANCH   5   7
BRANCH   1  15
HETATM   15  O   UNL     1     -41.522 -53.151  14.430  1.00  0.00    -0.382 OA
BRANCH  15  16
HETATM   16  C   UNL     1     -40.778 -54.350  14.639  1.00  0.00     0.194 C 
BRANCH  16  17
HETATM   17  C   UNL     1     -39.288 -54.072  14.493  1.00  0.00     0.190 C 
BRANCH  17  18
HETATM   18  O   UNL     1     -38.783 -54.730  13.334  1.00  0.00    -0.399 OA
HETATM   19  H   UNL     1     -38.005 -54.226  13.043  1.00  0.00     0.209 HD
ENDBRANCH  17  18
ENDBRANCH  16  17
ENDBRANCH  15  16
ENDBRANCH   1  15
TORSDOF 5
ENDMDL
MODEL 9
REMARK VINA RESULT:      -4.7      3.609      6.119
REMARK  5 active torsions:
REMARK  status: ('A' for Active; 'I' for Inactive)
REMARK    1  A    between atoms: O_1  and  C_2 
REMARK    2  A    between atoms: C_2  and  C_3 
REMARK    3  A    between atoms: C_3  and  O_4 
REMARK    4  A    between atoms: O_4  and  C_5 
REMARK    5  A    between atoms: N_9  and  C_11 
ROOT
HETATM    1  C   UNL     1     -45.486 -53.677  15.815  1.00  0.00     0.139 C 
HETATM    2  C   UNL     1     -46.313 -54.505  14.825  1.00  0.00     0.035 C 
HETATM    3  C   UNL     1     -45.423 -55.134  13.760  1.00  0.00     0.022 C 
HETATM    4  C   UNL     1     -44.619 -54.074  13.007  1.00  0.00     0.124 C 
HETATM    5  N   UNL     1     -43.868 -53.229  13.934  1.00  0.00    -0.362 N 
HETATM    6  C   UNL     1     -44.627 -52.640  15.049  1.00  0.00     0.156 C 
ENDROOT
BRANCH   5   7
HETATM    7  C   UNL     1     -42.486 -53.321  14.019  1.00  0.00     0.142 A 
HETATM    8  N   UNL     1     -41.741 -52.332  13.459  1.00  0.00    -0.350 N 
HETATM    9  C   UNL     1     -40.390 -52.387  13.548  1.00  0.00     0.090 A 
ATOM     10  HN  UNL     1     -42.194 -51.557  12.976  1.00  0.00     0.166 HD
HETATM   11  C   UNL     1     -39.697 -53.408  14.168  1.00  0.00     0.020 A 
HETATM   12  C   UNL     1     -40.438 -54.449  14.701  1.00  0.00     0.047 A 
HETATM   13  C   UNL     1     -41.828 -54.411  14.612  1.00  0.00     0.160 A 
HETATM   14  F   UNL     1     -42.501 -55.479  15.070  1.00  0.00    -0.202 F 
ENDBRANCH   5   7
BRANCH   1  15
HETATM   15  O   UNL     1     -44.740 -54.595  16.631  1.00  0.00    -0.382 OA
BRANCH  15  16
HETATM   16  C   UNL     1     -44.742 -54.243  18.014  1.00  0.00     0.194 C 
BRANCH  16  17
HETATM   17  C   UNL     1     -46.151 -54.354  18.579  1.00  0.00     0.190 C 
BRANCH  17  18
HETATM   18  O   UNL     1     -46.546 -55.723  18.632  1.00  0.00    -0.399 OA
HETATM   19  H   UNL     1     -45.871 -56.227  18.149  1.00  0.00     0.209 HD
ENDBRANCH  17  18
ENDBRANCH  16  17
ENDBRANCH  15  16
ENDBRANCH   1  15
TORSDOF 5
ENDMDL
