MODEL 1
REMARK VINA RESULT:      -6.9      0.000      0.000
REMARK  3 active torsions:
REMARK  status: ('A' for Active; 'I' for Inactive)
REMARK    1  A    between atoms: C_8  and  N_9 
REMARK       I    between atoms: N_9  and  C_10 
REMARK       I    between atoms: C_10  and  N_12 
REMARK    2  A    between atoms: N_12  and  C_13 
REMARK    3  A    between atoms: N_15  and  C_19 
ROOT
HETATM    1  N   UNL     1     -42.183 -51.509  13.057  1.00  0.00    -0.295 N 
HETATM    2  C   UNL     1     -41.573 -50.709  12.136  1.00  0.00     0.322 C 
HETATM    3  O   UNL     1     -40.385 -50.871  11.867  1.00  0.00    -0.247 OA
HETATM    4  N   UNL     1     -42.310 -49.675  11.642  1.00  0.00    -0.336 N 
HETATM    5  H   UNL     1     -41.556 -52.160  13.502  1.00  0.00     0.172 HD
HETATM    6  H   UNL     1     -43.317 -49.769  11.769  1.00  0.00     0.164 HD
ENDROOT
BRANCH   1   7
HETATM    7  C   UNL     1     -43.507 -51.437  13.505  1.00  0.00     0.109 A 
HETATM    8  N   UNL     1     -44.503 -51.710  12.633  1.00  0.00    -0.346 N 
HETATM    9  C   UNL     1     -45.780 -51.610  13.055  1.00  0.00     0.007 A 
ATOM     10  HN  UNL     1     -44.292 -51.987  11.674  1.00  0.00     0.167 HD
HETATM   11  C   UNL     1     -46.104 -51.214  14.346  1.00  0.00     0.031 A 
HETATM   12  C   UNL     1     -46.829 -51.950  12.043  1.00  0.00     0.068 C 
HETATM   13  C   UNL     1     -45.074 -50.928  15.246  1.00  0.00    -0.057 A 
HETATM   14  C   UNL     1     -45.376 -50.458  16.636  1.00  0.00     0.048 C 
HETATM   15  C   UNL     1     -43.749 -51.065  14.819  1.00  0.00     0.055 A 
ENDBRANCH   1   7
BRANCH   4  16
HETATM   16  C   UNL     1     -41.770 -48.617  10.817  1.00  0.00     0.112 C 
HETATM   17  C   UNL     1     -41.039 -47.553  11.634  1.00  0.00     0.152 C 
HETATM   18  N   UNL     1     -41.282 -46.303  10.953  1.00  0.00    -0.342 N 
HETATM   19  C   UNL     1     -42.268 -46.441   9.981  1.00  0.00     0.222 C 
HETATM   20  O   UNL     1     -42.677 -45.583   9.213  1.00  0.00    -0.273 OA
HETATM   21  C   UNL     1     -42.854 -47.826  10.093  1.00  0.00     0.129 C 
BRANCH  18  22
HETATM   22  C   UNL     1     -40.647 -45.027  11.363  1.00  0.00     0.024 C 
HETATM   23  C   UNL     1     -41.694 -43.916  11.611  1.00  0.00     0.037 C 
HETATM   24  C   UNL     1     -39.850 -45.228  12.661  1.00  0.00     0.037 C 
HETATM   25  C   UNL     1     -39.704 -44.520  10.253  1.00  0.00     0.037 C 
ENDBRANCH  18  22
ENDBRANCH   4  16
TORSDOF 3
ENDMDL
MODEL 2
REMARK VINA RESULT:      -6.7      2.286      7.134
REMARK  3 active torsions:
REMARK  status: ('A' for Active; 'I' for Inactive)
REMARK    1  A    between atoms: C_8  and  N_9 
REMARK       I    between atoms: N_9  and  C_10 
REMARK       I    between atoms: C_10  and  N_12 
REMARK    2  A    between atoms: N_12  and  C_13 
REMARK    3  A    between atoms: N_15  and  C_19 
ROOT
HETATM    1  N   UNL     1     -39.992 -50.356  11.451  1.00  0.00    -0.295 N 
HETATM    2  C   UNL     1     -40.530 -51.310  12.264  1.00  0.00     0.322 C 
HETATM    3  O   UNL     1     -40.017 -52.424  12.333  1.00  0.00    -0.247 OA
HETATM    4  N   UNL     1     -41.705 -50.996  12.879  1.00  0.00    -0.336 N 
HETATM    5  H   UNL     1     -39.212 -50.687  10.904  1.00  0.00     0.172 HD
HETATM    6  H   UNL     1     -41.913 -49.998  12.918  1.00  0.00     0.164 HD
ENDROOT
BRANCH   1   7
HETATM    7  C   UNL     1     -40.469 -49.059  11.227  1.00  0.00     0.109 A 
HETATM    8  N   UNL     1     -41.483 -48.883  10.352  1.00  0.00    -0.346 N 
HETATM    9  C   UNL     1     -41.922 -47.630  10.112  1.00  0.00     0.007 A 
ATOM     10  HN  UNL     1     -41.909 -49.682   9.882  1.00  0.00     0.167 HD
HETATM   11  C   UNL     1     -41.352 -46.517  10.717  1.00  0.00     0.031 A 
HETATM   12  C   UNL     1     -43.063 -47.512   9.150  1.00  0.00     0.068 C 
HETATM   13  C   UNL     1     -40.301 -46.701  11.619  1.00  0.00    -0.057 A 
HETATM   14  C   UNL     1     -39.627 -45.528  12.264  1.00  0.00     0.048 C 
HETATM   15  C   UNL     1     -39.868 -48.002  11.894  1.00  0.00     0.055 A 
ENDBRANCH   1   7
BRANCH   4  16
HETATM   16  C   UNL     1     -42.515 -51.944  13.611  1.00  0.00     0.112 C 
HETATM   17  C   UNL     1     -43.975 -51.933  13.163  1.00  0.00     0.152 C 
HETATM   18  N   UNL     1     -44.750 -52.203  14.352  1.00  0.00    -0.342 N 
HETATM   19  C   UNL     1     -43.962 -52.124  15.496  1.00  0.00     0.222 C 
HETATM   20  O   UNL     1     -44.307 -52.331  16.650  1.00  0.00    -0.273 OA
HETATM   21  C   UNL     1     -42.596 -51.622  15.098  1.00  0.00     0.129 C 
BRANCH  18  22
HETATM   22  C   UNL     1     -46.221 -52.393  14.329  1.00  0.00     0.024 C 
HETATM   23  C   UNL     1     -46.938 -51.454  15.326  1.00  0.00     0.037 C 
HETATM   24  C   UNL     1     -46.767 -52.101  12.923  1.00  0.00     0.037 C 
HETATM   25  C   UNL     1     -46.578 -53.837  14.731  1.00  0.00     0.037 C 
ENDBRANCH  18  22
ENDBRANCH   4  16
TORSDOF 3
ENDMDL
MODEL 3
REMARK VINA RESULT:      -6.6      2.342      2.876
REMARK  3 active torsions:
REMARK  status: ('A' for Active; 'I' for Inactive)
REMARK    1  A    between atoms: C_8  and  N_9 
REMARK       I    between atoms: N_9  and  C_10 
REMARK       I    between atoms: C_10  and  N_12 
REMARK    2  A    between atoms: N_12  and  C_13 
REMARK    3  A    between atoms: N_15  and  C_19 
ROOT
HETATM    1  N   UNL     1     -43.227 -53.268  12.619  1.00  0.00    -0.295 N 
HETATM    2  C   UNL     1     -42.065 -52.643  12.270  1.00  0.00     0.322 C 
HETATM    3  O   UNL     1     -41.053 -53.302  12.044  1.00  0.00    -0.247 OA
HETATM    4  N   UNL     1     -42.069 -51.281  12.308  1.00  0.00    -0.336 N 
HETATM    5  H   UNL     1     -43.131 -54.266  12.723  1.00  0.00     0.172 HD
HETATM    6  H   UNL     1     -42.997 -50.856  12.297  1.00  0.00     0.164 HD
ENDROOT
BRANCH   1   7
HETATM    7  C   UNL     1     -44.450 -52.671  12.945  1.00  0.00     0.109 A 
HETATM    8  N   UNL     1     -45.352 -52.462  11.961  1.00  0.00    -0.346 N 
HETATM    9  C   UNL     1     -46.519 -51.859  12.268  1.00  0.00     0.007 A 
ATOM     10  HN  UNL     1     -45.154 -52.754  11.003  1.00  0.00     0.167 HD
HETATM   11  C   UNL     1     -46.813 -51.427  13.555  1.00  0.00     0.031 A 
HETATM   12  C   UNL     1     -47.479 -51.680  11.134  1.00  0.00     0.068 C 
HETATM   13  C   UNL     1     -45.878 -51.642  14.571  1.00  0.00    -0.057 A 
HETATM   14  C   UNL     1     -46.134 -51.157  15.966  1.00  0.00     0.048 C 
HETATM   15  C   UNL     1     -44.683 -52.298  14.260  1.00  0.00     0.055 A 
ENDBRANCH   1   7
BRANCH   4  16
HETATM   16  C   UNL     1     -40.885 -50.463  12.166  1.00  0.00     0.112 C 
HETATM   17  C   UNL     1     -40.344 -49.979  13.509  1.00  0.00     0.152 C 
HETATM   18  N   UNL     1     -39.802 -48.664  13.261  1.00  0.00    -0.342 N 
HETATM   19  C   UNL     1     -40.172 -48.195  12.005  1.00  0.00     0.222 C 
HETATM   20  O   UNL     1     -39.851 -47.137  11.483  1.00  0.00    -0.273 OA
HETATM   21  C   UNL     1     -41.153 -49.171  11.404  1.00  0.00     0.129 C 
BRANCH  18  22
HETATM   22  C   UNL     1     -39.071 -47.886  14.291  1.00  0.00     0.024 C 
HETATM   23  C   UNL     1     -39.509 -46.404  14.313  1.00  0.00     0.037 C 
HETATM   24  C   UNL     1     -39.333 -48.480  15.683  1.00  0.00     0.037 C 
HETATM   25  C   UNL     1     -37.557 -47.906  13.999  1.00  0.00     0.037 C 
ENDBRANCH  18  22
ENDBRANCH   4  16
TORSDOF 3
ENDMDL
MODEL 4
REMARK VINA RESULT:      -6.3      3.064      4.063
REMARK  3 active torsions:
REMARK  status: ('A' for Active; 'I' for Inactive)
REMARK    1  A    between atoms: C_8  and  N_9 
REMARK       I    between atoms: N_9  and  C_10 
REMARK       I    between atoms: C_10  and  N_12 
REMARK    2  A    between atoms: N_12  and  C_13 
REMARK    3  A    between atoms: N_15  and  C_19 
ROOT
HETATM    1  N   UNL     1     -43.422 -53.821  13.498  1.00  0.00    -0.295 N 
HETATM    2  C   UNL     1     -42.123 -53.453  13.301  1.00  0.00     0.322 C 
HETATM    3  O   UNL     1     -41.236 -54.304  13.286  1.00  0.00    -0.247 OA
HETATM    4  N   UNL     1     -41.868 -52.117  13.247  1.00  0.00    -0.336 N 
HETATM    5  H   UNL     1     -43.538 -54.806  13.682  1.00  0.00     0.172 HD
HETATM    6  H   UNL     1     -42.684 -51.534  13.058  1.00  0.00     0.164 HD
ENDROOT
BRANCH   1   7
HETATM    7  C   UNL     1     -44.541 -52.985  13.581  1.00  0.00     0.109 A 
HETATM    8  N   UNL     1     -44.885 -52.479  14.786  1.00  0.00    -0.346 N 
HETATM    9  C   UNL     1     -45.982 -51.698  14.872  1.00  0.00     0.007 A 
ATOM     10  HN  UNL     1     -44.326 -52.684  15.614  1.00  0.00     0.167 HD
HETATM   11  C   UNL     1     -46.779 -51.417  13.770  1.00  0.00     0.031 A 
HETATM   12  C   UNL     1     -46.289 -51.154  16.232  1.00  0.00     0.068 C 
HETATM   13  C   UNL     1     -46.424 -51.943  12.525  1.00  0.00    -0.057 A 
HETATM   14  C   UNL     1     -47.276 -51.701  11.316  1.00  0.00     0.048 C 
HETATM   15  C   UNL     1     -45.268 -52.725  12.429  1.00  0.00     0.055 A 
ENDBRANCH   1   7
BRANCH   4  16
HETATM   16  C   UNL     1     -40.540 -51.544  13.244  1.00  0.00     0.112 C 
HETATM   17  C   UNL     1     -40.371 -50.455  14.302  1.00  0.00     0.152 C 
HETATM   18  N   UNL     1     -39.470 -49.486  13.724  1.00  0.00    -0.342 N 
HETATM   19  C   UNL     1     -39.277 -49.723  12.367  1.00  0.00     0.222 C 
HETATM   20  O   UNL     1     -38.551 -49.106  11.601  1.00  0.00    -0.273 OA
HETATM   21  C   UNL     1     -40.214 -50.826  11.940  1.00  0.00     0.129 C 
BRANCH  18  22
HETATM   22  C   UNL     1     -38.951 -48.318  14.477  1.00  0.00     0.024 C 
HETATM   23  C   UNL     1     -39.441 -48.316  15.944  1.00  0.00     0.037 C 
HETATM   24  C   UNL     1     -37.415 -48.339  14.489  1.00  0.00     0.037 C 
HETATM   25  C   UNL     1     -39.444 -47.007  13.833  1.00  0.00     0.037 C 
ENDBRANCH  18  22
ENDBRANCH   4  16
TORSDOF 3
ENDMDL
MODEL 5
REMARK VINA RESULT:      -6.3      0.646      2.069
REMARK  3 active torsions:
REMARK  status: ('A' for Active; 'I' for Inactive)
REMARK    1  A    between atoms: C_8  and  N_9 
REMARK       I    between atoms: N_9  and  C_10 
REMARK       I    between atoms: C_10  and  N_12 
REMARK    2  A    between atoms: N_12  and  C_13 
REMARK    3  A    between atoms: N_15  and  C_19 
ROOT
HETATM    1  N   UNL     1     -42.519 -51.514  13.255  1.00  0.00    -0.295 N 
HETATM    2  C   UNL     1     -41.806 -50.739  12.388  1.00  0.00     0.322 C 
HETATM    3  O   UNL     1     -40.597 -50.912  12.255  1.00  0.00    -0.247 OA
HETATM    4  N   UNL     1     -42.477 -49.713  11.794  1.00  0.00    -0.336 N 
HETATM    5  H   UNL     1     -41.949 -52.158  13.781  1.00  0.00     0.172 HD
HETATM    6  H   UNL     1     -43.494 -49.800  11.812  1.00  0.00     0.164 HD
ENDROOT
BRANCH   1   7
HETATM    7  C   UNL     1     -43.884 -51.426  13.553  1.00  0.00     0.109 A 
HETATM    8  N   UNL     1     -44.255 -51.195  14.832  1.00  0.00    -0.346 N 
HETATM    9  C   UNL     1     -45.570 -51.141  15.126  1.00  0.00     0.007 A 
ATOM     10  HN  UNL     1     -43.553 -51.064  15.561  1.00  0.00     0.167 HD
HETATM   11  C   UNL     1     -46.552 -51.337  14.164  1.00  0.00     0.031 A 
HETATM   12  C   UNL     1     -45.907 -50.858  16.556  1.00  0.00     0.068 C 
HETATM   13  C   UNL     1     -46.167 -51.579  12.843  1.00  0.00    -0.057 A 
HETATM   14  C   UNL     1     -47.191 -51.837  11.778  1.00  0.00     0.048 C 
HETATM   15  C   UNL     1     -44.804 -51.601  12.531  1.00  0.00     0.055 A 
ENDBRANCH   1   7
BRANCH   4  16
HETATM   16  C   UNL     1     -41.843 -48.677  11.008  1.00  0.00     0.112 C 
HETATM   17  C   UNL     1     -41.133 -47.639  11.875  1.00  0.00     0.152 C 
HETATM   18  N   UNL     1     -41.282 -46.382  11.179  1.00  0.00    -0.342 N 
HETATM   19  C   UNL     1     -42.202 -46.487  10.141  1.00  0.00     0.222 C 
HETATM   20  O   UNL     1     -42.526 -45.616   9.347  1.00  0.00    -0.273 OA
HETATM   21  C   UNL     1     -42.845 -47.850  10.211  1.00  0.00     0.129 C 
BRANCH  18  22
HETATM   22  C   UNL     1     -40.632 -45.129  11.633  1.00  0.00     0.024 C 
HETATM   23  C   UNL     1     -39.742 -44.510  10.530  1.00  0.00     0.037 C 
HETATM   24  C   UNL     1     -41.698 -44.093  12.021  1.00  0.00     0.037 C 
HETATM   25  C   UNL     1     -39.721 -45.410  12.844  1.00  0.00     0.037 C 
ENDBRANCH  18  22
ENDBRANCH   4  16
TORSDOF 3
ENDMDL
MODEL 6
REMARK VINA RESULT:      -6.3      1.843      7.173
REMARK  3 active torsions:
REMARK  status: ('A' for Active; 'I' for Inactive)
REMARK    1  A    between atoms: C_8  and  N_9 
REMARK       I    between atoms: N_9  and  C_10 
REMARK       I    between atoms: C_10  and  N_12 
REMARK    2  A    between atoms: N_12  and  C_13 
REMARK    3  A    between atoms: N_15  and  C_19 
ROOT
HETATM    1  N   UNL     1     -40.801 -49.447  10.700  1.00  0.00    -0.295 N 
HETATM    2  C   UNL     1     -41.103 -50.252  11.759  1.00  0.00     0.322 C 
HETATM    3  O   UNL     1     -40.677 -51.404  11.801  1.00  0.00    -0.247 OA
HETATM    4  N   UNL     1     -41.979 -49.753  12.675  1.00  0.00    -0.336 N 
HETATM    5  H   UNL     1     -40.274 -49.914   9.978  1.00  0.00     0.172 HD
HETATM    6  H   UNL     1     -42.090 -48.739  12.650  1.00  0.00     0.164 HD
ENDROOT
BRANCH   1   7
HETATM    7  C   UNL     1     -41.230 -48.134  10.477  1.00  0.00     0.109 A 
HETATM    8  N   UNL     1     -40.434 -47.116  10.870  1.00  0.00    -0.346 N 
HETATM    9  C   UNL     1     -40.862 -45.850  10.685  1.00  0.00     0.007 A 
ATOM     10  HN  UNL     1     -39.527 -47.301  11.299  1.00  0.00     0.167 HD
HETATM   11  C   UNL     1     -42.100 -45.561  10.126  1.00  0.00     0.031 A 
HETATM   12  C   UNL     1     -39.919 -44.773  11.122  1.00  0.00     0.068 C 
HETATM   13  C   UNL     1     -42.923 -46.615   9.723  1.00  0.00    -0.057 A 
HETATM   14  C   UNL     1     -44.284 -46.353   9.152  1.00  0.00     0.048 C 
HETATM   15  C   UNL     1     -42.466 -47.927   9.883  1.00  0.00     0.055 A 
ENDBRANCH   1   7
BRANCH   4  16
HETATM   16  C   UNL     1     -42.563 -50.530  13.745  1.00  0.00     0.112 C 
HETATM   17  C   UNL     1     -43.785 -51.326  13.290  1.00  0.00     0.152 C 
HETATM   18  N   UNL     1     -44.681 -51.349  14.422  1.00  0.00    -0.342 N 
HETATM   19  C   UNL     1     -44.268 -50.459  15.409  1.00  0.00     0.222 C 
HETATM   20  O   UNL     1     -44.787 -50.267  16.499  1.00  0.00    -0.273 OA
HETATM   21  C   UNL     1     -43.106 -49.660  14.873  1.00  0.00     0.129 C 
BRANCH  18  22
HETATM   22  C   UNL     1     -45.944 -52.125  14.434  1.00  0.00     0.024 C 
HETATM   23  C   UNL     1     -46.493 -52.353  13.007  1.00  0.00     0.037 C 
HETATM   24  C   UNL     1     -45.711 -53.500  15.080  1.00  0.00     0.037 C 
HETATM   25  C   UNL     1     -47.030 -51.364  15.220  1.00  0.00     0.037 C 
ENDBRANCH  18  22
ENDBRANCH   4  16
TORSDOF 3
ENDMDL
MODEL 7
REMARK VINA RESULT:      -6.0      2.692      7.449
REMARK  3 active torsions:
REMARK  status: ('A' for Active; 'I' for Inactive)
REMARK    1  A    between atoms: C_8  and  N_9 
REMARK       I    between atoms: N_9  and  C_10 
REMARK       I    between atoms: C_10  and  N_12 
REMARK    2  A    between atoms: N_12  and  C_13 
REMARK    3  A    between atoms: N_15  and  C_19 
ROOT
HETATM    1  N   UNL     1     -39.583 -51.060  12.014  1.00  0.00    -0.295 N 
HETATM    2  C   UNL     1     -40.340 -51.991  12.666  1.00  0.00     0.322 C 
HETATM    3  O   UNL     1     -40.231 -53.182  12.385  1.00  0.00    -0.247 OA
HETATM    4  N   UNL     1     -41.280 -51.517  13.530  1.00  0.00    -0.336 N 
HETATM    5  H   UNL     1     -39.013 -51.449  11.280  1.00  0.00     0.172 HD
HETATM    6  H   UNL     1     -41.133 -50.554  13.834  1.00  0.00     0.164 HD
ENDROOT
BRANCH   1   7
HETATM    7  C   UNL     1     -39.610 -49.672  12.182  1.00  0.00     0.109 A 
HETATM    8  N   UNL     1     -38.873 -49.124  13.174  1.00  0.00    -0.346 N 
HETATM    9  C   UNL     1     -38.923 -47.789  13.357  1.00  0.00     0.007 A 
ATOM     10  HN  UNL     1     -38.291 -49.710  13.773  1.00  0.00     0.167 HD
HETATM   11  C   UNL     1     -39.721 -46.963  12.576  1.00  0.00     0.031 A 
HETATM   12  C   UNL     1     -38.064 -47.249  14.458  1.00  0.00     0.068 C 
HETATM   13  C   UNL     1     -40.485 -47.531  11.553  1.00  0.00    -0.057 A 
HETATM   14  C   UNL     1     -41.393 -46.686  10.711  1.00  0.00     0.048 C 
HETATM   15  C   UNL     1     -40.408 -48.912  11.341  1.00  0.00     0.055 A 
ENDBRANCH   1   7
BRANCH   4  16
HETATM   16  C   UNL     1     -42.296 -52.336  14.152  1.00  0.00     0.112 C 
HETATM   17  C   UNL     1     -43.637 -52.257  13.425  1.00  0.00     0.152 C 
HETATM   18  N   UNL     1     -44.645 -52.366  14.453  1.00  0.00    -0.342 N 
HETATM   19  C   UNL     1     -44.087 -52.247  15.721  1.00  0.00     0.222 C 
HETATM   20  O   UNL     1     -44.664 -52.328  16.796  1.00  0.00    -0.273 OA
HETATM   21  C   UNL     1     -42.631 -51.882  15.567  1.00  0.00     0.129 C 
BRANCH  18  22
HETATM   22  C   UNL     1     -46.095 -52.449  14.153  1.00  0.00     0.024 C 
HETATM   23  C   UNL     1     -46.379 -52.312  12.639  1.00  0.00     0.037 C 
HETATM   24  C   UNL     1     -46.653 -53.802  14.620  1.00  0.00     0.037 C 
HETATM   25  C   UNL     1     -46.852 -51.307  14.860  1.00  0.00     0.037 C 
ENDBRANCH  18  22
ENDBRANCH   4  16
TORSDOF 3
ENDMDL
MODEL 8
REMARK VINA RESULT:      -5.8      4.079      8.384
REMARK  3 active torsions:
REMARK  status: ('A' for Active; 'I' for Inactive)
REMARK    1  A    between atoms: C_8  and  N_9 
REMARK       I    between atoms: N_9  and  C_10 
REMARK       I    between atoms: C_10  and  N_12 
REMARK    2  A    between atoms: N_12  and  C_13 
REMARK    3  A    between atoms: N_15  and  C_19 
ROOT
HETATM    1  N   UNL     1     -41.924 -51.110  11.853  1.00  0.00    -0.295 N 
HETATM    2  C   UNL     1     -41.919 -52.393  12.315  1.00  0.00     0.322 C 
HETATM    3  O   UNL     1     -42.909 -53.106  12.170  1.00  0.00    -0.247 OA
HETATM    4  N   UNL     1     -40.827 -52.779  13.032  1.00  0.00    -0.336 N 
HETATM    5  H   UNL     1     -42.809 -50.826  11.464  1.00  0.00     0.172 HD
HETATM    6  H   UNL     1     -40.002 -52.193  12.904  1.00  0.00     0.164 HD
ENDROOT
BRANCH   1   7
HETATM    7  C   UNL     1     -40.903 -50.159  11.968  1.00  0.00     0.109 A 
HETATM    8  N   UNL     1     -39.677 -50.463  11.490  1.00  0.00    -0.346 N 
HETATM    9  C   UNL     1     -38.685 -49.560  11.628  1.00  0.00     0.007 A 
ATOM     10  HN  UNL     1     -39.504 -51.359  11.033  1.00  0.00     0.167 HD
HETATM   11  C   UNL     1     -38.877 -48.340  12.264  1.00  0.00     0.031 A 
HETATM   12  C   UNL     1     -37.359 -49.954  11.055  1.00  0.00     0.068 C 
HETATM   13  C   UNL     1     -40.145 -48.028  12.760  1.00  0.00    -0.057 A 
HETATM   14  C   UNL     1     -40.391 -46.742  13.490  1.00  0.00     0.048 C 
HETATM   15  C   UNL     1     -41.183 -48.950  12.587  1.00  0.00     0.055 A 
ENDBRANCH   1   7
BRANCH   4  16
HETATM   16  C   UNL     1     -40.736 -54.025  13.762  1.00  0.00     0.112 C 
HETATM   17  C   UNL     1     -41.293 -53.913  15.180  1.00  0.00     0.152 C 
HETATM   18  N   UNL     1     -40.477 -54.787  15.990  1.00  0.00    -0.342 N 
HETATM   19  C   UNL     1     -39.349 -55.212  15.295  1.00  0.00     0.222 C 
HETATM   20  O   UNL     1     -38.483 -55.980  15.685  1.00  0.00    -0.273 OA
HETATM   21  C   UNL     1     -39.296 -54.473  13.980  1.00  0.00     0.129 C 
BRANCH  18  22
HETATM   22  C   UNL     1     -40.761 -55.057  17.421  1.00  0.00     0.024 C 
HETATM   23  C   UNL     1     -39.612 -54.576  18.337  1.00  0.00     0.037 C 
HETATM   24  C   UNL     1     -42.046 -54.332  17.848  1.00  0.00     0.037 C 
HETATM   25  C   UNL     1     -40.922 -56.572  17.655  1.00  0.00     0.037 C 
ENDBRANCH  18  22
ENDBRANCH   4  16
TORSDOF 3
ENDMDL
MODEL 9
REMARK VINA RESULT:      -5.7      5.805      8.300
REMARK  3 active torsions:
REMARK  status: ('A' for Active; 'I' for Inactive)
REMARK    1  A    between atoms: C_8  and  N_9 
REMARK       I    between atoms: N_9  and  C_10 
REMARK       I    between atoms: C_10  and  N_12 
REMARK    2  A    between atoms: N_12  and  C_13 
REMARK    3  A    between atoms: N_15  and  C_19 
ROOT
HETATM    1  N   UNL     1     -39.147 -54.198  14.263  1.00  0.00    -0.295 N 
HETATM    2  C   UNL     1     -40.392 -54.120  13.710  1.00  0.00     0.322 C 
HETATM    3  O   UNL     1     -40.521 -53.938  12.502  1.00  0.00    -0.247 OA
HETATM    4  N   UNL     1     -41.445 -54.133  14.574  1.00  0.00    -0.336 N 
HETATM    5  H   UNL     1     -38.403 -54.033  13.602  1.00  0.00     0.172 HD
HETATM    6  H   UNL     1     -41.231 -54.496  15.503  1.00  0.00     0.164 HD
ENDROOT
BRANCH   1   7
HETATM    7  C   UNL     1     -38.823 -54.363  15.614  1.00  0.00     0.109 A 
HETATM    8  N   UNL     1     -38.601 -53.262  16.367  1.00  0.00    -0.346 N 
HETATM    9  C   UNL     1     -38.258 -53.421  17.661  1.00  0.00     0.007 A 
ATOM     10  HN  UNL     1     -38.691 -52.330  15.963  1.00  0.00     0.167 HD
HETATM   11  C   UNL     1     -38.104 -54.674  18.239  1.00  0.00     0.031 A 
HETATM   12  C   UNL     1     -38.051 -52.159  18.440  1.00  0.00     0.068 C 
HETATM   13  C   UNL     1     -38.331 -55.811  17.459  1.00  0.00    -0.057 A 
HETATM   14  C   UNL     1     -38.137 -57.184  18.027  1.00  0.00     0.048 C 
HETATM   15  C   UNL     1     -38.720 -55.647  16.125  1.00  0.00     0.055 A 
ENDBRANCH   1   7
BRANCH   4  16
HETATM   16  C   UNL     1     -42.812 -53.861  14.190  1.00  0.00     0.112 C 
HETATM   17  C   UNL     1     -43.378 -52.623  14.881  1.00  0.00     0.152 C 
HETATM   18  N   UNL     1     -44.778 -52.903  15.099  1.00  0.00    -0.342 N 
HETATM   19  C   UNL     1     -45.068 -54.242  14.859  1.00  0.00     0.222 C 
HETATM   20  O   UNL     1     -46.159 -54.788  14.922  1.00  0.00    -0.273 OA
HETATM   21  C   UNL     1     -43.771 -54.971  14.607  1.00  0.00     0.129 C 
BRANCH  18  22
HETATM   22  C   UNL     1     -45.724 -51.901  15.648  1.00  0.00     0.024 C 
HETATM   23  C   UNL     1     -46.818 -51.520  14.623  1.00  0.00     0.037 C 
HETATM   24  C   UNL     1     -46.419 -52.463  16.898  1.00  0.00     0.037 C 
HETATM   25  C   UNL     1     -44.975 -50.605  16.013  1.00  0.00     0.037 C 
ENDBRANCH  18  22
ENDBRANCH   4  16
TORSDOF 3
ENDMDL
