MODEL 1
REMARK VINA RESULT:      -6.4      0.000      0.000
REMARK  5 active torsions:
REMARK  status: ('A' for Active; 'I' for Inactive)
REMARK    1  A    between atoms: C_2  and  N_3 
REMARK    2  A    between atoms: C_5  and  N_6 
REMARK       I    between atoms: N_6  and  C_7 
REMARK       I    between atoms: C_7  and  N_9 
REMARK    3  A    between atoms: N_9  and  C_10 
REMARK    4  A    between atoms: C_10  and  C_12 
REMARK       I    between atoms: C_12  and  N_14 
REMARK    5  A    between atoms: N_14  and  C_15 
ROOT
HETATM    1  N   UNL     1     -39.771 -49.451  11.240  1.00  0.00    -0.306 N 
HETATM    2  C   UNL     1     -40.350 -48.249  11.579  1.00  0.00     0.321 C 
HETATM    3  O   UNL     1     -40.835 -47.962  12.669  1.00  0.00    -0.247 OA
HETATM    4  N   UNL     1     -40.292 -47.322  10.565  1.00  0.00    -0.330 N 
HETATM    5  H   UNL     1     -39.340 -49.537  10.331  1.00  0.00     0.171 HD
HETATM    6  H   UNL     1     -40.219 -47.629   9.601  1.00  0.00     0.165 HD
ENDROOT
BRANCH   4   7
HETATM    7  C   UNL     1     -40.838 -45.983  10.781  1.00  0.00     0.174 C 
HETATM    8  C   UNL     1     -39.842 -44.929  10.308  1.00  0.00     0.042 C 
BRANCH   7   9
HETATM    9  C   UNL     1     -42.198 -45.833  10.072  1.00  0.00     0.240 C 
HETATM   10  O   UNL     1     -42.818 -44.771  10.059  1.00  0.00    -0.271 OA
HETATM   11  N   UNL     1     -42.629 -46.978   9.429  1.00  0.00    -0.355 N 
HETATM   12  H   UNL     1     -42.112 -47.838   9.564  1.00  0.00     0.162 HD
BRANCH  11  13
HETATM   13  C   UNL     1     -43.888 -47.051   8.719  1.00  0.00     0.084 C 
HETATM   14  C   UNL     1     -45.071 -47.389   9.631  1.00  0.00     0.025 C 
HETATM   15  C   UNL     1     -46.039 -48.212   8.777  1.00  0.00     0.002 C 
HETATM   16  C   UNL     1     -45.381 -48.365   7.410  1.00  0.00     0.002 C 
HETATM   17  C   UNL     1     -43.899 -48.173   7.685  1.00  0.00     0.025 C 
ENDBRANCH  11  13
ENDBRANCH   7   9
ENDBRANCH   4   7
BRANCH   1  18
HETATM   18  C   UNL     1     -39.637 -50.518  12.114  1.00  0.00     0.070 A 
HETATM   19  C   UNL     1     -40.452 -51.618  12.234  1.00  0.00     0.141 A 
HETATM   20  N   UNL     1     -39.948 -52.375  13.247  1.00  0.00    -0.302 N 
HETATM   21  N   UNL     1     -38.832 -51.857  13.795  1.00  0.00    -0.308 N 
HETATM   22  C   UNL     1     -38.646 -50.726  13.103  1.00  0.00     0.138 A 
ATOM     23  HN  UNL     1     -38.264 -52.235  14.554  1.00  0.00     0.186 HD
BRANCH  20  24
HETATM   24  C   UNL     1     -40.534 -53.594  13.766  1.00  0.00     0.143 C 
HETATM   25  C   UNL     1     -41.893 -53.886  13.156  1.00  0.00     0.028 C 
ENDBRANCH  20  24
ENDBRANCH   1  18
TORSDOF 5
ENDMDL
MODEL 2
REMARK VINA RESULT:      -6.2      2.514      3.840
REMARK  5 active torsions:
REMARK  status: ('A' for Active; 'I' for Inactive)
REMARK    1  A    between atoms: C_2  and  N_3 
REMARK    2  A    between atoms: C_5  and  N_6 
REMARK       I    between atoms: N_6  and  C_7 
REMARK       I    between atoms: C_7  and  N_9 
REMARK    3  A    between atoms: N_9  and  C_10 
REMARK    4  A    between atoms: C_10  and  C_12 
REMARK       I    between atoms: C_12  and  N_14 
REMARK    5  A    between atoms: N_14  and  C_15 
ROOT
HETATM    1  N   UNL     1     -42.031 -52.638  11.889  1.00  0.00    -0.306 N 
HETATM    2  C   UNL     1     -41.421 -51.489  12.339  1.00  0.00     0.321 C 
HETATM    3  O   UNL     1     -41.473 -51.043  13.481  1.00  0.00    -0.247 OA
HETATM    4  N   UNL     1     -40.661 -50.873  11.373  1.00  0.00    -0.330 N 
HETATM    5  H   UNL     1     -41.850 -52.939  10.943  1.00  0.00     0.171 HD
HETATM    6  H   UNL     1     -40.873 -51.019  10.392  1.00  0.00     0.165 HD
ENDROOT
BRANCH   4   7
HETATM    7  C   UNL     1     -39.923 -49.655  11.705  1.00  0.00     0.174 C 
HETATM    8  C   UNL     1     -38.505 -49.734  11.149  1.00  0.00     0.042 C 
BRANCH   7   9
HETATM    9  C   UNL     1     -40.668 -48.412  11.179  1.00  0.00     0.240 C 
HETATM   10  O   UNL     1     -40.177 -47.285  11.223  1.00  0.00    -0.271 OA
HETATM   11  N   UNL     1     -41.903 -48.687  10.624  1.00  0.00    -0.355 N 
HETATM   12  H   UNL     1     -42.279 -49.623  10.709  1.00  0.00     0.162 HD
BRANCH  11  13
HETATM   13  C   UNL     1     -42.769 -47.657  10.089  1.00  0.00     0.084 C 
HETATM   14  C   UNL     1     -44.184 -47.701  10.672  1.00  0.00     0.025 C 
HETATM   15  C   UNL     1     -45.116 -47.236   9.550  1.00  0.00     0.002 C 
HETATM   16  C   UNL     1     -44.229 -46.973   8.338  1.00  0.00     0.002 C 
HETATM   17  C   UNL     1     -42.992 -47.819   8.588  1.00  0.00     0.025 C 
ENDBRANCH  11  13
ENDBRANCH   7   9
ENDBRANCH   4   7
BRANCH   1  18
HETATM   18  C   UNL     1     -42.788 -53.477  12.691  1.00  0.00     0.070 A 
HETATM   19  C   UNL     1     -44.139 -53.718  12.623  1.00  0.00     0.141 A 
HETATM   20  N   UNL     1     -44.440 -54.577  13.634  1.00  0.00    -0.302 N 
HETATM   21  N   UNL     1     -43.366 -54.943  14.360  1.00  0.00    -0.308 N 
HETATM   22  C   UNL     1     -42.362 -54.270  13.784  1.00  0.00     0.138 A 
ATOM     23  HN  UNL     1     -43.326 -55.579  15.157  1.00  0.00     0.186 HD
BRANCH  20  24
HETATM   24  C   UNL     1     -45.767 -55.048  13.980  1.00  0.00     0.143 C 
HETATM   25  C   UNL     1     -46.570 -54.004  14.732  1.00  0.00     0.028 C 
ENDBRANCH  20  24
ENDBRANCH   1  18
TORSDOF 5
ENDMDL
MODEL 3
REMARK VINA RESULT:      -6.1      2.740      7.903
REMARK  5 active torsions:
REMARK  status: ('A' for Active; 'I' for Inactive)
REMARK    1  A    between atoms: C_2  and  N_3 
REMARK    2  A    between atoms: C_5  and  N_6 
REMARK       I    between atoms: N_6  and  C_7 
REMARK       I    between atoms: C_7  and  N_9 
REMARK    3  A    between atoms: N_9  and  C_10 
REMARK    4  A    between atoms: C_10  and  C_12 
REMARK       I    between atoms: C_12  and  N_14 
REMARK    5  A    between atoms: N_14  and  C_15 
ROOT
HETATM    1  N   UNL     1     -41.486 -47.536  10.129  1.00  0.00    -0.306 N 
HETATM    2  C   UNL     1     -40.994 -48.578  10.883  1.00  0.00     0.321 C 
HETATM    3  O   UNL     1     -41.582 -49.624  11.140  1.00  0.00    -0.247 OA
HETATM    4  N   UNL     1     -39.702 -48.371  11.304  1.00  0.00    -0.330 N 
HETATM    5  H   UNL     1     -40.874 -46.759   9.927  1.00  0.00     0.171 HD
HETATM    6  H   UNL     1     -39.344 -47.427  11.397  1.00  0.00     0.165 HD
ENDROOT
BRANCH   4   7
HETATM    7  C   UNL     1     -39.027 -49.402  12.090  1.00  0.00     0.174 C 
HETATM    8  C   UNL     1     -37.682 -49.747  11.457  1.00  0.00     0.042 C 
BRANCH   7   9
HETATM    9  C   UNL     1     -38.862 -48.945  13.553  1.00  0.00     0.240 C 
HETATM   10  O   UNL     1     -39.732 -48.309  14.144  1.00  0.00    -0.271 OA
HETATM   11  N   UNL     1     -37.677 -49.347  14.140  1.00  0.00    -0.355 N 
HETATM   12  H   UNL     1     -36.970 -49.786  13.562  1.00  0.00     0.162 HD
BRANCH  11  13
HETATM   13  C   UNL     1     -37.321 -49.006  15.501  1.00  0.00     0.084 C 
HETATM   14  C   UNL     1     -36.409 -47.779  15.593  1.00  0.00     0.025 C 
HETATM   15  C   UNL     1     -35.500 -48.020  16.801  1.00  0.00     0.002 C 
HETATM   16  C   UNL     1     -35.877 -49.390  17.354  1.00  0.00     0.002 C 
HETATM   17  C   UNL     1     -36.510 -50.109  16.175  1.00  0.00     0.025 C 
ENDBRANCH  11  13
ENDBRANCH   7   9
ENDBRANCH   4   7
BRANCH   1  18
HETATM   18  C   UNL     1     -42.734 -47.538   9.528  1.00  0.00     0.070 A 
HETATM   19  C   UNL     1     -43.953 -47.292  10.113  1.00  0.00     0.141 A 
HETATM   20  N   UNL     1     -44.895 -47.444   9.143  1.00  0.00    -0.302 N 
HETATM   21  N   UNL     1     -44.376 -47.755   7.939  1.00  0.00    -0.308 N 
HETATM   22  C   UNL     1     -43.060 -47.812   8.178  1.00  0.00     0.138 A 
ATOM     23  HN  UNL     1     -44.866 -47.909   7.057  1.00  0.00     0.186 HD
BRANCH  20  24
HETATM   24  C   UNL     1     -46.329 -47.348   9.332  1.00  0.00     0.143 C 
HETATM   25  C   UNL     1     -47.055 -48.602   8.882  1.00  0.00     0.028 C 
ENDBRANCH  20  24
ENDBRANCH   1  18
TORSDOF 5
ENDMDL
MODEL 4
REMARK VINA RESULT:      -6.0      3.124      6.682
REMARK  5 active torsions:
REMARK  status: ('A' for Active; 'I' for Inactive)
REMARK    1  A    between atoms: C_2  and  N_3 
REMARK    2  A    between atoms: C_5  and  N_6 
REMARK       I    between atoms: N_6  and  C_7 
REMARK       I    between atoms: C_7  and  N_9 
REMARK    3  A    between atoms: N_9  and  C_10 
REMARK    4  A    between atoms: C_10  and  C_12 
REMARK       I    between atoms: C_12  and  N_14 
REMARK    5  A    between atoms: N_14  and  C_15 
ROOT
HETATM    1  N   UNL     1     -40.609 -50.935  11.083  1.00  0.00    -0.306 N 
HETATM    2  C   UNL     1     -40.743 -51.797  12.149  1.00  0.00     0.321 C 
HETATM    3  O   UNL     1     -40.774 -51.481  13.335  1.00  0.00    -0.247 OA
HETATM    4  N   UNL     1     -40.902 -53.107  11.762  1.00  0.00    -0.330 N 
HETATM    5  H   UNL     1     -40.673 -51.313  10.150  1.00  0.00     0.171 HD
HETATM    6  H   UNL     1     -40.548 -53.416  10.863  1.00  0.00     0.165 HD
ENDROOT
BRANCH   4   7
HETATM    7  C   UNL     1     -41.088 -54.141  12.779  1.00  0.00     0.174 C 
HETATM    8  C   UNL     1     -39.853 -54.227  13.670  1.00  0.00     0.042 C 
BRANCH   7   9
HETATM    9  C   UNL     1     -42.361 -53.864  13.603  1.00  0.00     0.240 C 
HETATM   10  O   UNL     1     -42.434 -54.120  14.804  1.00  0.00    -0.271 OA
HETATM   11  N   UNL     1     -43.383 -53.273  12.884  1.00  0.00    -0.355 N 
HETATM   12  H   UNL     1     -43.283 -53.180  11.881  1.00  0.00     0.162 HD
BRANCH  11  13
HETATM   13  C   UNL     1     -44.666 -52.948  13.468  1.00  0.00     0.084 C 
HETATM   14  C   UNL     1     -45.759 -52.715  12.421  1.00  0.00     0.025 C 
HETATM   15  C   UNL     1     -46.689 -51.653  13.014  1.00  0.00     0.002 C 
HETATM   16  C   UNL     1     -46.096 -51.270  14.366  1.00  0.00     0.002 C 
HETATM   17  C   UNL     1     -44.627 -51.637  14.246  1.00  0.00     0.025 C 
ENDBRANCH  11  13
ENDBRANCH   7   9
ENDBRANCH   4   7
BRANCH   1  18
HETATM   18  C   UNL     1     -40.511 -49.559  11.210  1.00  0.00     0.070 A 
HETATM   19  C   UNL     1     -41.398 -48.606  10.771  1.00  0.00     0.141 A 
HETATM   20  N   UNL     1     -40.865 -47.394  11.084  1.00  0.00    -0.302 N 
HETATM   21  N   UNL     1     -39.683 -47.482  11.726  1.00  0.00    -0.308 N 
HETATM   22  C   UNL     1     -39.471 -48.802  11.800  1.00  0.00     0.138 A 
ATOM     23  HN  UNL     1     -39.093 -46.725  12.073  1.00  0.00     0.186 HD
BRANCH  20  24
HETATM   24  C   UNL     1     -41.431 -46.105  10.742  1.00  0.00     0.143 C 
HETATM   25  C   UNL     1     -40.384 -45.007  10.701  1.00  0.00     0.028 C 
ENDBRANCH  20  24
ENDBRANCH   1  18
TORSDOF 5
ENDMDL
MODEL 5
REMARK VINA RESULT:      -6.0      1.777      6.706
REMARK  5 active torsions:
REMARK  status: ('A' for Active; 'I' for Inactive)
REMARK    1  A    between atoms: C_2  and  N_3 
REMARK    2  A    between atoms: C_5  and  N_6 
REMARK       I    between atoms: N_6  and  C_7 
REMARK       I    between atoms: C_7  and  N_9 
REMARK    3  A    between atoms: N_9  and  C_10 
REMARK    4  A    between atoms: C_10  and  C_12 
REMARK       I    between atoms: C_12  and  N_14 
REMARK    5  A    between atoms: N_14  and  C_15 
ROOT
HETATM    1  N   UNL     1     -41.822 -47.095   9.757  1.00  0.00    -0.306 N 
HETATM    2  C   UNL     1     -41.333 -47.772  10.851  1.00  0.00     0.321 C 
HETATM    3  O   UNL     1     -41.906 -48.671  11.461  1.00  0.00    -0.247 OA
HETATM    4  N   UNL     1     -40.060 -47.383  11.197  1.00  0.00    -0.330 N 
HETATM    5  H   UNL     1     -41.221 -46.427   9.299  1.00  0.00     0.171 HD
HETATM    6  H   UNL     1     -39.728 -46.459  10.946  1.00  0.00     0.165 HD
ENDROOT
BRANCH   4   7
HETATM    7  C   UNL     1     -39.389 -48.033  12.322  1.00  0.00     0.174 C 
HETATM    8  C   UNL     1     -40.197 -47.832  13.601  1.00  0.00     0.042 C 
BRANCH   7   9
HETATM    9  C   UNL     1     -39.164 -49.528  12.026  1.00  0.00     0.240 C 
HETATM   10  O   UNL     1     -38.328 -49.918  11.212  1.00  0.00    -0.271 OA
HETATM   11  N   UNL     1     -39.951 -50.378  12.779  1.00  0.00    -0.355 N 
HETATM   12  H   UNL     1     -40.682 -49.982  13.358  1.00  0.00     0.162 HD
BRANCH  11  13
HETATM   13  C   UNL     1     -39.906 -51.818  12.641  1.00  0.00     0.084 C 
HETATM   14  C   UNL     1     -41.257 -52.427  12.254  1.00  0.00     0.025 C 
HETATM   15  C   UNL     1     -41.307 -53.802  12.925  1.00  0.00     0.002 C 
HETATM   16  C   UNL     1     -40.008 -53.942  13.711  1.00  0.00     0.002 C 
HETATM   17  C   UNL     1     -39.563 -52.511  13.956  1.00  0.00     0.025 C 
ENDBRANCH  11  13
ENDBRANCH   7   9
ENDBRANCH   4   7
BRANCH   1  18
HETATM   18  C   UNL     1     -43.049 -47.359   9.170  1.00  0.00     0.070 A 
HETATM   19  C   UNL     1     -44.299 -47.189   9.715  1.00  0.00     0.141 A 
HETATM   20  N   UNL     1     -45.197 -47.616   8.786  1.00  0.00    -0.302 N 
HETATM   21  N   UNL     1     -44.622 -48.041   7.644  1.00  0.00    -0.308 N 
HETATM   22  C   UNL     1     -43.314 -47.884   7.883  1.00  0.00     0.138 A 
ATOM     23  HN  UNL     1     -45.073 -48.396   6.801  1.00  0.00     0.186 HD
BRANCH  20  24
HETATM   24  C   UNL     1     -46.634 -47.683   8.964  1.00  0.00     0.143 C 
HETATM   25  C   UNL     1     -47.133 -49.110   9.092  1.00  0.00     0.028 C 
ENDBRANCH  20  24
ENDBRANCH   1  18
TORSDOF 5
ENDMDL
MODEL 6
REMARK VINA RESULT:      -5.8      2.168      7.055
REMARK  5 active torsions:
REMARK  status: ('A' for Active; 'I' for Inactive)
REMARK    1  A    between atoms: C_2  and  N_3 
REMARK    2  A    between atoms: C_5  and  N_6 
REMARK       I    between atoms: N_6  and  C_7 
REMARK       I    between atoms: C_7  and  N_9 
REMARK    3  A    between atoms: N_9  and  C_10 
REMARK    4  A    between atoms: C_10  and  C_12 
REMARK       I    between atoms: C_12  and  N_14 
REMARK    5  A    between atoms: N_14  and  C_15 
ROOT
HETATM    1  N   UNL     1     -41.342 -48.670  12.493  1.00  0.00    -0.306 N 
HETATM    2  C   UNL     1     -40.478 -49.738  12.415  1.00  0.00     0.321 C 
HETATM    3  O   UNL     1     -39.892 -50.122  11.406  1.00  0.00    -0.247 OA
HETATM    4  N   UNL     1     -40.266 -50.346  13.630  1.00  0.00    -0.330 N 
HETATM    5  H   UNL     1     -41.703 -48.410  13.399  1.00  0.00     0.171 HD
HETATM    6  H   UNL     1     -40.965 -50.274  14.361  1.00  0.00     0.165 HD
ENDROOT
BRANCH   4   7
HETATM    7  C   UNL     1     -39.347 -51.480  13.717  1.00  0.00     0.174 C 
HETATM    8  C   UNL     1     -38.591 -51.441  15.042  1.00  0.00     0.042 C 
BRANCH   7   9
HETATM    9  C   UNL     1     -40.109 -52.808  13.541  1.00  0.00     0.240 C 
HETATM   10  O   UNL     1     -39.533 -53.871  13.317  1.00  0.00    -0.271 OA
HETATM   11  N   UNL     1     -41.478 -52.698  13.698  1.00  0.00    -0.355 N 
HETATM   12  H   UNL     1     -41.887 -51.776  13.787  1.00  0.00     0.162 HD
BRANCH  11  13
HETATM   13  C   UNL     1     -42.376 -53.824  13.555  1.00  0.00     0.084 C 
HETATM   14  C   UNL     1     -43.603 -53.508  12.695  1.00  0.00     0.025 C 
HETATM   15  C   UNL     1     -44.749 -54.341  13.274  1.00  0.00     0.002 C 
HETATM   16  C   UNL     1     -44.174 -55.087  14.473  1.00  0.00     0.002 C 
HETATM   17  C   UNL     1     -42.975 -54.253  14.891  1.00  0.00     0.025 C 
ENDBRANCH  11  13
ENDBRANCH   7   9
ENDBRANCH   4   7
BRANCH   1  18
HETATM   18  C   UNL     1     -41.657 -47.850  11.422  1.00  0.00     0.070 A 
HETATM   19  C   UNL     1     -42.740 -47.940  10.580  1.00  0.00     0.141 A 
HETATM   20  N   UNL     1     -42.609 -46.947   9.659  1.00  0.00    -0.302 N 
HETATM   21  N   UNL     1     -41.513 -46.186   9.848  1.00  0.00    -0.308 N 
HETATM   22  C   UNL     1     -40.936 -46.739  10.922  1.00  0.00     0.138 A 
ATOM     23  HN  UNL     1     -41.199 -45.381   9.304  1.00  0.00     0.186 HD
BRANCH  20  24
HETATM   24  C   UNL     1     -43.492 -46.714   8.533  1.00  0.00     0.143 C 
HETATM   25  C   UNL     1     -43.507 -47.879   7.561  1.00  0.00     0.028 C 
ENDBRANCH  20  24
ENDBRANCH   1  18
TORSDOF 5
ENDMDL
MODEL 7
REMARK VINA RESULT:      -5.8      3.333      6.985
REMARK  5 active torsions:
REMARK  status: ('A' for Active; 'I' for Inactive)
REMARK    1  A    between atoms: C_2  and  N_3 
REMARK    2  A    between atoms: C_5  and  N_6 
REMARK       I    between atoms: N_6  and  C_7 
REMARK       I    between atoms: C_7  and  N_9 
REMARK    3  A    between atoms: N_9  and  C_10 
REMARK    4  A    between atoms: C_10  and  C_12 
REMARK       I    between atoms: C_12  and  N_14 
REMARK    5  A    between atoms: N_14  and  C_15 
ROOT
HETATM    1  N   UNL     1     -40.837 -50.958  11.169  1.00  0.00    -0.306 N 
HETATM    2  C   UNL     1     -41.308 -51.683  12.240  1.00  0.00     0.321 C 
HETATM    3  O   UNL     1     -41.625 -51.231  13.336  1.00  0.00    -0.247 OA
HETATM    4  N   UNL     1     -41.458 -53.020  11.956  1.00  0.00    -0.330 N 
HETATM    5  H   UNL     1     -40.683 -51.438  10.295  1.00  0.00     0.171 HD
HETATM    6  H   UNL     1     -40.906 -53.447  11.221  1.00  0.00     0.165 HD
ENDROOT
BRANCH   4   7
HETATM    7  C   UNL     1     -41.980 -53.920  12.984  1.00  0.00     0.174 C 
HETATM    8  C   UNL     1     -41.299 -53.640  14.320  1.00  0.00     0.042 C 
BRANCH   7   9
HETATM    9  C   UNL     1     -43.512 -53.786  13.092  1.00  0.00     0.240 C 
HETATM   10  O   UNL     1     -44.269 -54.173  12.203  1.00  0.00    -0.271 OA
HETATM   11  N   UNL     1     -43.948 -53.234  14.281  1.00  0.00    -0.355 N 
HETATM   12  H   UNL     1     -43.263 -52.853  14.923  1.00  0.00     0.162 HD
BRANCH  11  13
HETATM   13  C   UNL     1     -45.347 -53.006  14.573  1.00  0.00     0.084 C 
HETATM   14  C   UNL     1     -45.862 -51.668  14.033  1.00  0.00     0.025 C 
HETATM   15  C   UNL     1     -46.925 -51.194  15.028  1.00  0.00     0.002 C 
HETATM   16  C   UNL     1     -46.974 -52.241  16.135  1.00  0.00     0.002 C 
HETATM   17  C   UNL     1     -45.613 -52.915  16.073  1.00  0.00     0.025 C 
ENDBRANCH  11  13
ENDBRANCH   7   9
ENDBRANCH   4   7
BRANCH   1  18
HETATM   18  C   UNL     1     -40.673 -49.582  11.179  1.00  0.00     0.070 A 
HETATM   19  C   UNL     1     -41.554 -48.624  10.737  1.00  0.00     0.141 A 
HETATM   20  N   UNL     1     -40.948 -47.418  10.912  1.00  0.00    -0.302 N 
HETATM   21  N   UNL     1     -39.723 -47.513  11.465  1.00  0.00    -0.308 N 
HETATM   22  C   UNL     1     -39.559 -48.832  11.625  1.00  0.00     0.138 A 
ATOM     23  HN  UNL     1     -39.076 -46.761  11.705  1.00  0.00     0.186 HD
BRANCH  20  24
HETATM   24  C   UNL     1     -41.487 -46.133  10.516  1.00  0.00     0.143 C 
HETATM   25  C   UNL     1     -42.814 -46.263   9.792  1.00  0.00     0.028 C 
ENDBRANCH  20  24
ENDBRANCH   1  18
TORSDOF 5
ENDMDL
MODEL 8
REMARK VINA RESULT:      -5.8      3.693      7.013
REMARK  5 active torsions:
REMARK  status: ('A' for Active; 'I' for Inactive)
REMARK    1  A    between atoms: C_2  and  N_3 
REMARK    2  A    between atoms: C_5  and  N_6 
REMARK       I    between atoms: N_6  and  C_7 
REMARK       I    between atoms: C_7  and  N_9 
REMARK    3  A    between atoms: N_9  and  C_10 
REMARK    4  A    between atoms: C_10  and  C_12 
REMARK       I    between atoms: C_12  and  N_14 
REMARK    5  A    between atoms: N_14  and  C_15 
ROOT
HETATM    1  N   UNL     1     -41.093 -51.301  11.261  1.00  0.00    -0.306 N 
HETATM    2  C   UNL     1     -41.880 -51.864  12.240  1.00  0.00     0.321 C 
HETATM    3  O   UNL     1     -42.309 -51.295  13.239  1.00  0.00    -0.247 OA
HETATM    4  N   UNL     1     -42.213 -53.172  11.973  1.00  0.00    -0.330 N 
HETATM    5  H   UNL     1     -40.867 -51.856  10.449  1.00  0.00     0.171 HD
HETATM    6  H   UNL     1     -41.620 -53.733  11.373  1.00  0.00     0.165 HD
ENDROOT
BRANCH   4   7
HETATM    7  C   UNL     1     -43.072 -53.900  12.905  1.00  0.00     0.174 C 
HETATM    8  C   UNL     1     -42.327 -54.160  14.211  1.00  0.00     0.042 C 
BRANCH   7   9
HETATM    9  C   UNL     1     -44.384 -53.127  13.147  1.00  0.00     0.240 C 
HETATM   10  O   UNL     1     -45.259 -53.035  12.289  1.00  0.00    -0.271 OA
HETATM   11  N   UNL     1     -44.497 -52.591  14.416  1.00  0.00    -0.355 N 
HETATM   12  H   UNL     1     -43.696 -52.628  15.035  1.00  0.00     0.162 HD
BRANCH  11  13
HETATM   13  C   UNL     1     -45.643 -51.814  14.839  1.00  0.00     0.084 C 
HETATM   14  C   UNL     1     -45.315 -50.825  15.961  1.00  0.00     0.025 C 
HETATM   15  C   UNL     1     -46.578 -50.730  16.821  1.00  0.00     0.002 C 
HETATM   16  C   UNL     1     -47.590 -51.690  16.204  1.00  0.00     0.002 C 
HETATM   17  C   UNL     1     -46.738 -52.690  15.440  1.00  0.00     0.025 C 
ENDBRANCH  11  13
ENDBRANCH   7   9
ENDBRANCH   4   7
BRANCH   1  18
HETATM   18  C   UNL     1     -40.688 -49.977  11.262  1.00  0.00     0.070 A 
HETATM   19  C   UNL     1     -41.439 -48.864  10.968  1.00  0.00     0.141 A 
HETATM   20  N   UNL     1     -40.610 -47.789  11.064  1.00  0.00    -0.302 N 
HETATM   21  N   UNL     1     -39.354 -48.116  11.426  1.00  0.00    -0.308 N 
HETATM   22  C   UNL     1     -39.405 -49.449  11.544  1.00  0.00     0.138 A 
ATOM     23  HN  UNL     1     -38.555 -47.498  11.574  1.00  0.00     0.186 HD
BRANCH  20  24
HETATM   24  C   UNL     1     -40.965 -46.416  10.768  1.00  0.00     0.143 C 
HETATM   25  C   UNL     1     -39.745 -45.530  10.593  1.00  0.00     0.028 C 
ENDBRANCH  20  24
ENDBRANCH   1  18
TORSDOF 5
ENDMDL
MODEL 9
REMARK VINA RESULT:      -5.7      3.136      4.831
REMARK  5 active torsions:
REMARK  status: ('A' for Active; 'I' for Inactive)
REMARK    1  A    between atoms: C_2  and  N_3 
REMARK    2  A    between atoms: C_5  and  N_6 
REMARK       I    between atoms: N_6  and  C_7 
REMARK       I    between atoms: C_7  and  N_9 
REMARK    3  A    between atoms: N_9  and  C_10 
REMARK    4  A    between atoms: C_10  and  C_12 
REMARK       I    between atoms: C_12  and  N_14 
REMARK    5  A    between atoms: N_14  and  C_15 
ROOT
HETATM    1  N   UNL     1     -41.656 -51.907  11.842  1.00  0.00    -0.306 N 
HETATM    2  C   UNL     1     -40.635 -51.215  12.454  1.00  0.00     0.321 C 
HETATM    3  O   UNL     1     -40.493 -51.054  13.662  1.00  0.00    -0.247 OA
HETATM    4  N   UNL     1     -39.703 -50.737  11.562  1.00  0.00    -0.330 N 
HETATM    5  H   UNL     1     -41.620 -52.031  10.842  1.00  0.00     0.171 HD
HETATM    6  H   UNL     1     -39.966 -50.564  10.599  1.00  0.00     0.165 HD
ENDROOT
BRANCH   4   7
HETATM    7  C   UNL     1     -38.539 -50.007  12.060  1.00  0.00     0.174 C 
HETATM    8  C   UNL     1     -37.422 -50.029  11.021  1.00  0.00     0.042 C 
BRANCH   7   9
HETATM    9  C   UNL     1     -38.928 -48.564  12.439  1.00  0.00     0.240 C 
HETATM   10  O   UNL     1     -38.582 -48.048  13.500  1.00  0.00    -0.271 OA
HETATM   11  N   UNL     1     -39.658 -47.903  11.469  1.00  0.00    -0.355 N 
HETATM   12  H   UNL     1     -39.985 -48.423  10.665  1.00  0.00     0.162 HD
BRANCH  11  13
HETATM   13  C   UNL     1     -40.136 -46.547  11.637  1.00  0.00     0.084 C 
HETATM   14  C   UNL     1     -41.657 -46.427  11.504  1.00  0.00     0.025 C 
HETATM   15  C   UNL     1     -41.918 -45.052  10.883  1.00  0.00     0.002 C 
HETATM   16  C   UNL     1     -40.549 -44.426  10.636  1.00  0.00     0.002 C 
HETATM   17  C   UNL     1     -39.605 -45.614  10.552  1.00  0.00     0.025 C 
ENDBRANCH  11  13
ENDBRANCH   7   9
ENDBRANCH   4   7
BRANCH   1  18
HETATM   18  C   UNL     1     -42.675 -52.547  12.529  1.00  0.00     0.070 A 
HETATM   19  C   UNL     1     -43.906 -52.045  12.874  1.00  0.00     0.141 A 
HETATM   20  N   UNL     1     -44.551 -53.020  13.570  1.00  0.00    -0.302 N 
HETATM   21  N   UNL     1     -43.831 -54.153  13.692  1.00  0.00    -0.308 N 
HETATM   22  C   UNL     1     -42.689 -53.861  13.057  1.00  0.00     0.138 A 
ATOM     23  HN  UNL     1     -44.093 -55.024  14.155  1.00  0.00     0.186 HD
BRANCH  20  24
HETATM   24  C   UNL     1     -45.856 -52.898  14.190  1.00  0.00     0.143 C 
HETATM   25  C   UNL     1     -46.476 -51.532  13.962  1.00  0.00     0.028 C 
ENDBRANCH  20  24
ENDBRANCH   1  18
TORSDOF 5
ENDMDL
