MODEL 1
REMARK VINA RESULT:      -4.5      0.000      0.000
REMARK  3 active torsions:
REMARK  status: ('A' for Active; 'I' for Inactive)
REMARK       I    between atoms: N_1  and  C_2 
REMARK    1  A    between atoms: C_2  and  C_4 
REMARK    2  A    between atoms: C_4  and  N_5 
REMARK    3  A    between atoms: C_8  and  N_9 
ROOT
HETATM    1  N   UNL     1     -42.734 -47.849  10.316  1.00  0.00    -0.293 N 
HETATM    2  C   UNL     1     -42.920 -48.112  11.642  1.00  0.00     0.114 A 
HETATM    3  C   UNL     1     -41.909 -48.974  11.997  1.00  0.00     0.068 A 
HETATM    4  C   UNL     1     -41.172 -49.178  10.817  1.00  0.00     0.114 A 
HETATM    5  N   UNL     1     -41.674 -48.502   9.790  1.00  0.00    -0.284 N 
ATOM      6  HN  UNL     1     -41.337 -48.480   8.828  1.00  0.00     0.188 HD
ENDROOT
BRANCH   1   7
HETATM    7  C   UNL     1     -43.548 -46.990   9.470  1.00  0.00     0.250 C 
BRANCH   7   8
HETATM    8  C   UNL     1     -44.104 -47.692   8.249  1.00  0.00     0.235 C 
HETATM    9  N   UNL     1     -45.455 -47.845   8.168  1.00  0.00    -0.369 N 
HETATM   10  H   UNL     1     -45.859 -48.314   7.370  1.00  0.00     0.159 HD
HETATM   11  H   UNL     1     -46.053 -47.587   8.954  1.00  0.00     0.159 HD
HETATM   12  O   UNL     1     -43.387 -48.046   7.315  1.00  0.00    -0.272 OA
ENDBRANCH   7   8
ENDBRANCH   1   7
BRANCH   4  13
HETATM   13  N   UNL     1     -40.082 -49.944  10.733  1.00  0.00    -0.384 N 
HETATM   14  H   UNL     1     -39.154 -49.555  10.840  1.00  0.00     0.157 HD
HETATM   15  H   UNL     1     -40.128 -50.759  10.131  1.00  0.00     0.157 HD
ENDBRANCH   4  13
TORSDOF 3
ENDMDL
MODEL 2
REMARK VINA RESULT:      -4.5      1.918      4.135
REMARK  3 active torsions:
REMARK  status: ('A' for Active; 'I' for Inactive)
REMARK       I    between atoms: N_1  and  C_2 
REMARK    1  A    between atoms: C_2  and  C_4 
REMARK    2  A    between atoms: C_4  and  N_5 
REMARK    3  A    between atoms: C_8  and  N_9 
ROOT
HETATM    1  N   UNL     1     -42.239 -47.313   9.927  1.00  0.00    -0.293 N 
HETATM    2  C   UNL     1     -42.846 -46.095   9.830  1.00  0.00     0.114 A 
HETATM    3  C   UNL     1     -43.776 -46.221   8.824  1.00  0.00     0.068 A 
HETATM    4  C   UNL     1     -43.648 -47.546   8.372  1.00  0.00     0.114 A 
HETATM    5  N   UNL     1     -42.710 -48.212   9.034  1.00  0.00    -0.284 N 
ATOM      6  HN  UNL     1     -42.413 -49.179   8.899  1.00  0.00     0.188 HD
ENDROOT
BRANCH   1   7
HETATM    7  C   UNL     1     -41.176 -47.692  10.844  1.00  0.00     0.250 C 
BRANCH   7   8
HETATM    8  C   UNL     1     -41.153 -49.171  11.169  1.00  0.00     0.235 C 
HETATM    9  N   UNL     1     -40.136 -49.916  10.653  1.00  0.00    -0.369 N 
HETATM   10  H   UNL     1     -40.094 -50.907  10.846  1.00  0.00     0.159 HD
HETATM   11  H   UNL     1     -39.478 -49.506   9.990  1.00  0.00     0.159 HD
HETATM   12  O   UNL     1     -41.967 -49.685  11.934  1.00  0.00    -0.272 OA
ENDBRANCH   7   8
ENDBRANCH   1   7
BRANCH   4  13
HETATM   13  N   UNL     1     -44.392 -48.087   7.405  1.00  0.00    -0.384 N 
HETATM   14  H   UNL     1     -44.228 -47.872   6.430  1.00  0.00     0.157 HD
HETATM   15  H   UNL     1     -45.355 -48.316   7.627  1.00  0.00     0.157 HD
ENDBRANCH   4  13
TORSDOF 3
ENDMDL
MODEL 3
REMARK VINA RESULT:      -4.3      2.686      4.381
REMARK  3 active torsions:
REMARK  status: ('A' for Active; 'I' for Inactive)
REMARK       I    between atoms: N_1  and  C_2 
REMARK    1  A    between atoms: C_2  and  C_4 
REMARK    2  A    between atoms: C_4  and  N_5 
REMARK    3  A    between atoms: C_8  and  N_9 
ROOT
HETATM    1  N   UNL     1     -42.294 -47.135   9.981  1.00  0.00    -0.293 N 
HETATM    2  C   UNL     1     -43.064 -46.013   9.869  1.00  0.00     0.114 A 
HETATM    3  C   UNL     1     -43.935 -46.261   8.833  1.00  0.00     0.068 A 
HETATM    4  C   UNL     1     -43.607 -47.552   8.381  1.00  0.00     0.114 A 
HETATM    5  N   UNL     1     -42.605 -48.084   9.071  1.00  0.00    -0.284 N 
ATOM      6  HN  UNL     1     -42.171 -48.998   8.943  1.00  0.00     0.188 HD
ENDROOT
BRANCH   1   7
HETATM    7  C   UNL     1     -41.218 -47.367  10.931  1.00  0.00     0.250 C 
BRANCH   7   8
HETATM    8  C   UNL     1     -40.300 -46.176  11.111  1.00  0.00     0.235 C 
HETATM    9  N   UNL     1     -39.607 -45.740  10.022  1.00  0.00    -0.369 N 
HETATM   10  H   UNL     1     -38.982 -44.952  10.109  1.00  0.00     0.159 HD
HETATM   11  H   UNL     1     -39.633 -46.267   9.148  1.00  0.00     0.159 HD
HETATM   12  O   UNL     1     -40.229 -45.559  12.173  1.00  0.00    -0.272 OA
ENDBRANCH   7   8
ENDBRANCH   1   7
BRANCH   4  13
HETATM   13  N   UNL     1     -44.237 -48.184   7.389  1.00  0.00    -0.384 N 
HETATM   14  H   UNL     1     -44.274 -49.194   7.346  1.00  0.00     0.157 HD
HETATM   15  H   UNL     1     -44.265 -47.725   6.485  1.00  0.00     0.157 HD
ENDBRANCH   4  13
TORSDOF 3
ENDMDL
MODEL 4
REMARK VINA RESULT:      -4.2      5.319      5.888
REMARK  3 active torsions:
REMARK  status: ('A' for Active; 'I' for Inactive)
REMARK       I    between atoms: N_1  and  C_2 
REMARK    1  A    between atoms: C_2  and  C_4 
REMARK    2  A    between atoms: C_4  and  N_5 
REMARK    3  A    between atoms: C_8  and  N_9 
ROOT
HETATM    1  N   UNL     1     -43.919 -53.517  12.946  1.00  0.00    -0.293 N 
HETATM    2  C   UNL     1     -43.010 -54.194  13.705  1.00  0.00     0.114 A 
HETATM    3  C   UNL     1     -41.778 -53.879  13.181  1.00  0.00     0.068 A 
HETATM    4  C   UNL     1     -42.049 -53.014  12.106  1.00  0.00     0.114 A 
HETATM    5  N   UNL     1     -43.349 -52.797  11.954  1.00  0.00    -0.284 N 
ATOM      6  HN  UNL     1     -43.812 -52.221  11.251  1.00  0.00     0.188 HD
ENDROOT
BRANCH   1   7
HETATM    7  C   UNL     1     -45.366 -53.524  13.097  1.00  0.00     0.250 C 
BRANCH   7   8
HETATM    8  C   UNL     1     -46.025 -52.225  12.686  1.00  0.00     0.235 C 
HETATM    9  N   UNL     1     -46.846 -52.248  11.599  1.00  0.00    -0.369 N 
HETATM   10  H   UNL     1     -47.298 -51.398  11.294  1.00  0.00     0.159 HD
HETATM   11  H   UNL     1     -46.925 -53.091  11.028  1.00  0.00     0.159 HD
HETATM   12  O   UNL     1     -45.902 -51.192  13.342  1.00  0.00    -0.272 OA
ENDBRANCH   7   8
ENDBRANCH   1   7
BRANCH   4  13
HETATM   13  N   UNL     1     -41.113 -52.456  11.335  1.00  0.00    -0.384 N 
HETATM   14  H   UNL     1     -41.347 -52.025  10.450  1.00  0.00     0.157 HD
HETATM   15  H   UNL     1     -40.178 -52.846  11.377  1.00  0.00     0.157 HD
ENDBRANCH   4  13
TORSDOF 3
ENDMDL
MODEL 5
REMARK VINA RESULT:      -4.2      5.895      6.528
REMARK  3 active torsions:
REMARK  status: ('A' for Active; 'I' for Inactive)
REMARK       I    between atoms: N_1  and  C_2 
REMARK    1  A    between atoms: C_2  and  C_4 
REMARK    2  A    between atoms: C_4  and  N_5 
REMARK    3  A    between atoms: C_8  and  N_9 
ROOT
HETATM    1  N   UNL     1     -44.206 -52.585  12.896  1.00  0.00    -0.293 N 
HETATM    2  C   UNL     1     -43.657 -51.522  13.553  1.00  0.00     0.114 A 
HETATM    3  C   UNL     1     -42.397 -51.367  13.024  1.00  0.00     0.068 A 
HETATM    4  C   UNL     1     -42.276 -52.386  12.063  1.00  0.00     0.114 A 
HETATM    5  N   UNL     1     -43.370 -53.135  11.987  1.00  0.00    -0.284 N 
ATOM      6  HN  UNL     1     -43.540 -53.938  11.383  1.00  0.00     0.188 HD
ENDROOT
BRANCH   1   7
HETATM    7  C   UNL     1     -45.529 -53.152  13.099  1.00  0.00     0.250 C 
BRANCH   7   8
HETATM    8  C   UNL     1     -45.527 -54.418  13.931  1.00  0.00     0.235 C 
HETATM    9  N   UNL     1     -46.723 -54.864  14.407  1.00  0.00    -0.369 N 
HETATM   10  H   UNL     1     -46.756 -55.702  14.970  1.00  0.00     0.159 HD
HETATM   11  H   UNL     1     -47.568 -54.304  14.291  1.00  0.00     0.159 HD
HETATM   12  O   UNL     1     -44.506 -55.078  14.114  1.00  0.00    -0.272 OA
ENDBRANCH   7   8
ENDBRANCH   1   7
BRANCH   4  13
HETATM   13  N   UNL     1     -41.198 -52.576  11.299  1.00  0.00    -0.384 N 
HETATM   14  H   UNL     1     -40.264 -52.516  11.680  1.00  0.00     0.157 HD
HETATM   15  H   UNL     1     -41.269 -52.322  10.319  1.00  0.00     0.157 HD
ENDBRANCH   4  13
TORSDOF 3
ENDMDL
MODEL 6
REMARK VINA RESULT:      -4.0      5.470      6.612
REMARK  3 active torsions:
REMARK  status: ('A' for Active; 'I' for Inactive)
REMARK       I    between atoms: N_1  and  C_2 
REMARK    1  A    between atoms: C_2  and  C_4 
REMARK    2  A    between atoms: C_4  and  N_5 
REMARK    3  A    between atoms: C_8  and  N_9 
ROOT
HETATM    1  N   UNL     1     -43.330 -52.726  13.190  1.00  0.00    -0.293 N 
HETATM    2  C   UNL     1     -43.683 -54.009  13.495  1.00  0.00     0.114 A 
HETATM    3  C   UNL     1     -45.018 -54.114  13.177  1.00  0.00     0.068 A 
HETATM    4  C   UNL     1     -45.380 -52.843  12.697  1.00  0.00     0.114 A 
HETATM    5  N   UNL     1     -44.360 -51.993  12.710  1.00  0.00    -0.284 N 
ATOM      6  HN  UNL     1     -44.354 -51.014  12.424  1.00  0.00     0.188 HD
ENDROOT
BRANCH   1   7
HETATM    7  C   UNL     1     -42.020 -52.117  13.350  1.00  0.00     0.250 C 
BRANCH   7   8
HETATM    8  C   UNL     1     -40.965 -52.696  12.430  1.00  0.00     0.235 C 
HETATM    9  N   UNL     1     -41.199 -52.646  11.089  1.00  0.00    -0.369 N 
HETATM   10  H   UNL     1     -40.519 -53.028  10.448  1.00  0.00     0.159 HD
HETATM   11  H   UNL     1     -42.099 -52.324  10.733  1.00  0.00     0.159 HD
HETATM   12  O   UNL     1     -39.894 -53.127  12.853  1.00  0.00    -0.272 OA
ENDBRANCH   7   8
ENDBRANCH   1   7
BRANCH   4  13
HETATM   13  N   UNL     1     -46.599 -52.523  12.258  1.00  0.00    -0.384 N 
HETATM   14  H   UNL     1     -47.432 -52.891  12.699  1.00  0.00     0.157 HD
HETATM   15  H   UNL     1     -46.703 -52.319  11.270  1.00  0.00     0.157 HD
ENDBRANCH   4  13
TORSDOF 3
ENDMDL
MODEL 7
REMARK VINA RESULT:      -3.8      4.791      6.855
REMARK  3 active torsions:
REMARK  status: ('A' for Active; 'I' for Inactive)
REMARK       I    between atoms: N_1  and  C_2 
REMARK    1  A    between atoms: C_2  and  C_4 
REMARK    2  A    between atoms: C_4  and  N_5 
REMARK    3  A    between atoms: C_8  and  N_9 
ROOT
HETATM    1  N   UNL     1     -38.984 -51.530  13.132  1.00  0.00    -0.293 N 
HETATM    2  C   UNL     1     -37.935 -50.701  12.859  1.00  0.00     0.114 A 
HETATM    3  C   UNL     1     -38.312 -49.972  11.756  1.00  0.00     0.068 A 
HETATM    4  C   UNL     1     -39.599 -50.438  11.432  1.00  0.00     0.114 A 
HETATM    5  N   UNL     1     -40.009 -51.390  12.261  1.00  0.00    -0.284 N 
ATOM      6  HN  UNL     1     -40.893 -51.899  12.245  1.00  0.00     0.188 HD
ENDROOT
BRANCH   1   7
HETATM    7  C   UNL     1     -39.074 -52.505  14.206  1.00  0.00     0.250 C 
BRANCH   7   8
HETATM    8  C   UNL     1     -39.674 -53.828  13.777  1.00  0.00     0.235 C 
HETATM    9  N   UNL     1     -38.836 -54.897  13.668  1.00  0.00    -0.369 N 
HETATM   10  H   UNL     1     -39.202 -55.792  13.378  1.00  0.00     0.159 HD
HETATM   11  H   UNL     1     -37.828 -54.777  13.773  1.00  0.00     0.159 HD
HETATM   12  O   UNL     1     -40.883 -53.973  13.605  1.00  0.00    -0.272 OA
ENDBRANCH   7   8
ENDBRANCH   1   7
BRANCH   4  13
HETATM   13  N   UNL     1     -40.337 -49.970  10.424  1.00  0.00    -0.384 N 
HETATM   14  H   UNL     1     -40.871 -50.590   9.829  1.00  0.00     0.157 HD
HETATM   15  H   UNL     1     -40.025 -49.119   9.970  1.00  0.00     0.157 HD
ENDBRANCH   4  13
TORSDOF 3
ENDMDL
MODEL 8
REMARK VINA RESULT:      -3.8      4.694      5.978
REMARK  3 active torsions:
REMARK  status: ('A' for Active; 'I' for Inactive)
REMARK       I    between atoms: N_1  and  C_2 
REMARK    1  A    between atoms: C_2  and  C_4 
REMARK    2  A    between atoms: C_4  and  N_5 
REMARK    3  A    between atoms: C_8  and  N_9 
ROOT
HETATM    1  N   UNL     1     -40.777 -52.510  12.590  1.00  0.00    -0.293 N 
HETATM    2  C   UNL     1     -40.172 -51.644  13.454  1.00  0.00     0.114 A 
HETATM    3  C   UNL     1     -39.947 -50.494  12.733  1.00  0.00     0.068 A 
HETATM    4  C   UNL     1     -40.442 -50.768  11.445  1.00  0.00     0.114 A 
HETATM    5  N   UNL     1     -40.940 -51.995  11.351  1.00  0.00    -0.284 N 
ATOM      6  HN  UNL     1     -41.351 -52.444  10.533  1.00  0.00     0.188 HD
ENDROOT
BRANCH   1   7
HETATM    7  C   UNL     1     -41.214 -53.868  12.873  1.00  0.00     0.250 C 
BRANCH   7   8
HETATM    8  C   UNL     1     -42.661 -53.961  13.311  1.00  0.00     0.235 C 
HETATM    9  N   UNL     1     -43.619 -53.904  12.345  1.00  0.00    -0.369 N 
HETATM   10  H   UNL     1     -44.594 -53.957  12.603  1.00  0.00     0.159 HD
HETATM   11  H   UNL     1     -43.367 -53.702  11.377  1.00  0.00     0.159 HD
HETATM   12  O   UNL     1     -42.978 -54.161  14.482  1.00  0.00    -0.272 OA
ENDBRANCH   7   8
ENDBRANCH   1   7
BRANCH   4  13
HETATM   13  N   UNL     1     -40.433 -49.896  10.435  1.00  0.00    -0.384 N 
HETATM   14  H   UNL     1     -41.192 -49.855   9.767  1.00  0.00     0.157 HD
HETATM   15  H   UNL     1     -39.531 -49.620  10.062  1.00  0.00     0.157 HD
ENDBRANCH   4  13
TORSDOF 3
ENDMDL
MODEL 9
REMARK VINA RESULT:      -3.7      2.647      2.979
REMARK  3 active torsions:
REMARK  status: ('A' for Active; 'I' for Inactive)
REMARK       I    between atoms: N_1  and  C_2 
REMARK    1  A    between atoms: C_2  and  C_4 
REMARK    2  A    between atoms: C_4  and  N_5 
REMARK    3  A    between atoms: C_8  and  N_9 
ROOT
HETATM    1  N   UNL     1     -42.013 -46.783  10.624  1.00  0.00    -0.293 N 
HETATM    2  C   UNL     1     -42.019 -46.551  11.968  1.00  0.00     0.114 A 
HETATM    3  C   UNL     1     -41.194 -45.467  12.163  1.00  0.00     0.068 A 
HETATM    4  C   UNL     1     -40.733 -45.124  10.880  1.00  0.00     0.114 A 
HETATM    5  N   UNL     1     -41.222 -45.925   9.941  1.00  0.00    -0.284 N 
ATOM      6  HN  UNL     1     -41.042 -45.899   8.938  1.00  0.00     0.188 HD
ENDROOT
BRANCH   1   7
HETATM    7  C   UNL     1     -42.730 -47.829   9.912  1.00  0.00     0.250 C 
BRANCH   7   8
HETATM    8  C   UNL     1     -43.303 -47.377   8.585  1.00  0.00     0.235 C 
HETATM    9  N   UNL     1     -43.089 -48.172   7.500  1.00  0.00    -0.369 N 
HETATM   10  H   UNL     1     -43.452 -47.897   6.598  1.00  0.00     0.159 HD
HETATM   11  H   UNL     1     -42.477 -48.986   7.567  1.00  0.00     0.159 HD
HETATM   12  O   UNL     1     -44.006 -46.373   8.484  1.00  0.00    -0.272 OA
ENDBRANCH   7   8
ENDBRANCH   1   7
BRANCH   4  13
HETATM   13  N   UNL     1     -39.914 -44.101  10.623  1.00  0.00    -0.384 N 
HETATM   14  H   UNL     1     -40.272 -43.195  10.350  1.00  0.00     0.157 HD
HETATM   15  H   UNL     1     -38.995 -44.318  10.254  1.00  0.00     0.157 HD
ENDBRANCH   4  13
TORSDOF 3
ENDMDL
