MODEL 1
REMARK VINA RESULT:      -6.5      0.000      0.000
REMARK  3 active torsions:
REMARK  status: ('A' for Active; 'I' for Inactive)
REMARK       I    between atoms: N_8  and  C_9 
REMARK       I    between atoms: C_9  and  N_11 
REMARK    1  A    between atoms: N_11  and  C_12 
REMARK    2  A    between atoms: N_15  and  C_16 
REMARK    3  A    between atoms: C_16  and  C_17 
REMARK       I    between atoms: C_17  and  N_19 
ROOT
HETATM    1  C   UNL     1     -45.091 -54.672  13.414  1.00  0.00     0.078 C 
HETATM    2  C   UNL     1     -43.887 -53.934  12.967  1.00  0.00     0.066 A 
HETATM    3  N   UNL     1     -43.902 -53.007  12.033  1.00  0.00    -0.296 N 
ATOM      4  HN  UNL     1     -44.734 -52.738  11.508  1.00  0.00     0.187 HD
HETATM    5  N   UNL     1     -42.663 -52.447  11.849  1.00  0.00    -0.279 N 
ATOM      6  HN  UNL     1     -42.466 -51.709  11.174  1.00  0.00     0.189 HD
HETATM    7  C   UNL     1     -41.760 -52.972  12.645  1.00  0.00     0.169 A 
HETATM    8  N   UNL     1     -40.451 -52.613  12.764  1.00  0.00    -0.288 N 
HETATM    9  C   UNL     1     -39.908 -51.492  12.195  1.00  0.00     0.322 C 
HETATM   10  O   UNL     1     -38.728 -51.215  12.395  1.00  0.00    -0.247 OA
HETATM   11  N   UNL     1     -40.757 -50.691  11.482  1.00  0.00    -0.338 N 
HETATM   12  S   UNL     1     -42.330 -54.216  13.658  1.00  0.00    -0.038 SA
HETATM   13  H   UNL     1     -39.847 -53.134  13.386  1.00  0.00     0.172 HD
HETATM   14  H   UNL     1     -41.668 -51.073  11.246  1.00  0.00     0.164 HD
ENDROOT
BRANCH  11  15
HETATM   15  C   UNL     1     -40.432 -49.352  11.017  1.00  0.00     0.089 C 
HETATM   16  C   UNL     1     -39.693 -48.573  12.113  1.00  0.00     0.055 C 
HETATM   17  C   UNL     1     -40.633 -47.897  13.113  1.00  0.00     0.275 C 
HETATM   18  N   UNL     1     -41.672 -47.061  12.492  1.00  0.00     0.097 N 
HETATM   19  C   UNL     1     -42.471 -47.892  11.575  1.00  0.00     0.275 C 
HETATM   20  C   UNL     1     -41.666 -48.613  10.489  1.00  0.00     0.055 C 
BRANCH  18  21
HETATM   21  C   UNL     1     -41.127 -45.866  11.803  1.00  0.00     0.374 C 
BRANCH  21  22
HETATM   22  C   UNL     1     -42.237 -44.898  11.387  1.00  0.00     0.243 C 
HETATM   23  O   UNL     1     -42.553 -44.685  10.221  1.00  0.00    -0.272 OA
HETATM   24  N   UNL     1     -42.898 -44.293  12.421  1.00  0.00    -0.369 N 
HETATM   25  H   UNL     1     -42.429 -44.233  13.315  1.00  0.00     0.159 HD
HETATM   26  H   UNL     1     -43.560 -43.571  12.174  1.00  0.00     0.159 HD
ENDBRANCH  21  22
ENDBRANCH  18  21
ENDBRANCH  11  15
TORSDOF 3
ENDMDL
MODEL 2
REMARK VINA RESULT:      -6.5      3.523      6.408
REMARK  3 active torsions:
REMARK  status: ('A' for Active; 'I' for Inactive)
REMARK       I    between atoms: N_8  and  C_9 
REMARK       I    between atoms: C_9  and  N_11 
REMARK    1  A    between atoms: N_11  and  C_12 
REMARK    2  A    between atoms: N_15  and  C_16 
REMARK    3  A    between atoms: C_16  and  C_17 
REMARK       I    between atoms: C_17  and  N_19 
ROOT
HETATM    1  C   UNL     1     -46.473 -47.710   8.837  1.00  0.00     0.078 C 
HETATM    2  C   UNL     1     -45.140 -47.433   9.422  1.00  0.00     0.066 A 
HETATM    3  N   UNL     1     -44.591 -48.165  10.369  1.00  0.00    -0.296 N 
ATOM      4  HN  UNL     1     -45.045 -48.965  10.809  1.00  0.00     0.187 HD
HETATM    5  N   UNL     1     -43.334 -47.721  10.692  1.00  0.00    -0.279 N 
ATOM      6  HN  UNL     1     -42.741 -48.155  11.399  1.00  0.00     0.189 HD
HETATM    7  C   UNL     1     -42.982 -46.672   9.984  1.00  0.00     0.169 A 
HETATM    8  N   UNL     1     -41.787 -46.018  10.009  1.00  0.00    -0.288 N 
HETATM    9  C   UNL     1     -40.672 -46.482  10.655  1.00  0.00     0.322 C 
HETATM   10  O   UNL     1     -39.619 -45.853  10.585  1.00  0.00    -0.247 OA
HETATM   11  N   UNL     1     -40.786 -47.687  11.292  1.00  0.00    -0.338 N 
HETATM   12  S   UNL     1     -44.163 -46.113   8.892  1.00  0.00    -0.038 SA
HETATM   13  H   UNL     1     -41.661 -45.189   9.443  1.00  0.00     0.172 HD
HETATM   14  H   UNL     1     -41.723 -48.056  11.424  1.00  0.00     0.164 HD
ENDROOT
BRANCH  11  15
HETATM   15  C   UNL     1     -39.666 -48.452  11.815  1.00  0.00     0.089 C 
HETATM   16  C   UNL     1     -39.755 -49.912  11.349  1.00  0.00     0.055 C 
HETATM   17  C   UNL     1     -40.645 -50.778  12.242  1.00  0.00     0.275 C 
HETATM   18  N   UNL     1     -40.311 -50.709  13.673  1.00  0.00     0.097 N 
HETATM   19  C   UNL     1     -40.407 -49.310  14.121  1.00  0.00     0.275 C 
HETATM   20  C   UNL     1     -39.540 -48.319  13.336  1.00  0.00     0.055 C 
BRANCH  18  21
HETATM   21  C   UNL     1     -38.983 -51.289  13.992  1.00  0.00     0.374 C 
BRANCH  21  22
HETATM   22  C   UNL     1     -39.083 -52.781  14.322  1.00  0.00     0.243 C 
HETATM   23  O   UNL     1     -38.961 -53.672  13.489  1.00  0.00    -0.272 OA
HETATM   24  N   UNL     1     -39.285 -53.071  15.644  1.00  0.00    -0.369 N 
HETATM   25  H   UNL     1     -39.691 -52.354  16.232  1.00  0.00     0.159 HD
HETATM   26  H   UNL     1     -39.462 -54.039  15.873  1.00  0.00     0.159 HD
ENDBRANCH  21  22
ENDBRANCH  18  21
ENDBRANCH  11  15
TORSDOF 3
ENDMDL
MODEL 3
REMARK VINA RESULT:      -6.2      1.746      2.089
REMARK  3 active torsions:
REMARK  status: ('A' for Active; 'I' for Inactive)
REMARK       I    between atoms: N_8  and  C_9 
REMARK       I    between atoms: C_9  and  N_11 
REMARK    1  A    between atoms: N_11  and  C_12 
REMARK    2  A    between atoms: N_15  and  C_16 
REMARK    3  A    between atoms: C_16  and  C_17 
REMARK       I    between atoms: C_17  and  N_19 
ROOT
HETATM    1  C   UNL     1     -47.200 -53.276  14.539  1.00  0.00     0.078 C 
HETATM    2  C   UNL     1     -45.928 -52.965  13.846  1.00  0.00     0.066 A 
HETATM    3  N   UNL     1     -45.573 -51.752  13.477  1.00  0.00    -0.296 N 
ATOM      4  HN  UNL     1     -46.155 -50.924  13.603  1.00  0.00     0.187 HD
HETATM    5  N   UNL     1     -44.328 -51.737  12.903  1.00  0.00    -0.279 N 
ATOM      6  HN  UNL     1     -43.872 -50.894  12.555  1.00  0.00     0.189 HD
HETATM    7  C   UNL     1     -43.790 -52.934  12.855  1.00  0.00     0.169 A 
HETATM    8  N   UNL     1     -42.549 -53.267  12.403  1.00  0.00    -0.288 N 
HETATM    9  C   UNL     1     -41.572 -52.356  12.100  1.00  0.00     0.322 C 
HETATM   10  O   UNL     1     -40.461 -52.746  11.746  1.00  0.00    -0.247 OA
HETATM   11  N   UNL     1     -41.881 -51.038  12.287  1.00  0.00    -0.338 N 
HETATM   12  S   UNL     1     -44.767 -54.186  13.469  1.00  0.00    -0.038 SA
HETATM   13  H   UNL     1     -42.274 -54.241  12.377  1.00  0.00     0.172 HD
HETATM   14  H   UNL     1     -42.859 -50.805  12.434  1.00  0.00     0.164 HD
ENDROOT
BRANCH  11  15
HETATM   15  C   UNL     1     -40.915 -49.951  12.258  1.00  0.00     0.089 C 
HETATM   16  C   UNL     1     -41.198 -48.958  13.392  1.00  0.00     0.055 C 
HETATM   17  C   UNL     1     -42.250 -47.908  13.028  1.00  0.00     0.275 C 
HETATM   18  N   UNL     1     -41.979 -47.196  11.770  1.00  0.00     0.097 N 
HETATM   19  C   UNL     1     -41.888 -48.177  10.675  1.00  0.00     0.275 C 
HETATM   20  C   UNL     1     -40.846 -49.281  10.882  1.00  0.00     0.055 C 
BRANCH  18  21
HETATM   21  C   UNL     1     -40.770 -46.339  11.831  1.00  0.00     0.374 C 
BRANCH  21  22
HETATM   22  C   UNL     1     -40.654 -45.437  10.600  1.00  0.00     0.243 C 
HETATM   23  O   UNL     1     -41.506 -44.616  10.275  1.00  0.00    -0.272 OA
HETATM   24  N   UNL     1     -39.498 -45.577   9.882  1.00  0.00    -0.369 N 
HETATM   25  H   UNL     1     -38.984 -46.444   9.973  1.00  0.00     0.159 HD
HETATM   26  H   UNL     1     -39.443 -45.074   9.008  1.00  0.00     0.159 HD
ENDBRANCH  21  22
ENDBRANCH  18  21
ENDBRANCH  11  15
TORSDOF 3
ENDMDL
MODEL 4
REMARK VINA RESULT:      -6.0      3.423      6.762
REMARK  3 active torsions:
REMARK  status: ('A' for Active; 'I' for Inactive)
REMARK       I    between atoms: N_8  and  C_9 
REMARK       I    between atoms: C_9  and  N_11 
REMARK    1  A    between atoms: N_11  and  C_12 
REMARK    2  A    between atoms: N_15  and  C_16 
REMARK    3  A    between atoms: C_16  and  C_17 
REMARK       I    between atoms: C_17  and  N_19 
ROOT
HETATM    1  C   UNL     1     -45.552 -46.824   8.981  1.00  0.00     0.078 C 
HETATM    2  C   UNL     1     -44.377 -47.348   9.717  1.00  0.00     0.066 A 
HETATM    3  N   UNL     1     -44.460 -48.212  10.707  1.00  0.00    -0.296 N 
ATOM      4  HN  UNL     1     -45.339 -48.572  11.080  1.00  0.00     0.187 HD
HETATM    5  N   UNL     1     -43.222 -48.570  11.177  1.00  0.00    -0.279 N 
ATOM      6  HN  UNL     1     -43.072 -49.230  11.939  1.00  0.00     0.189 HD
HETATM    7  C   UNL     1     -42.253 -47.962  10.532  1.00  0.00     0.169 A 
HETATM    8  N   UNL     1     -40.911 -48.129  10.703  1.00  0.00    -0.288 N 
HETATM    9  C   UNL     1     -40.352 -49.122  11.462  1.00  0.00     0.322 C 
HETATM   10  O   UNL     1     -39.129 -49.231  11.522  1.00  0.00    -0.247 OA
HETATM   11  N   UNL     1     -41.214 -49.998  12.061  1.00  0.00    -0.338 N 
HETATM   12  S   UNL     1     -42.764 -46.877   9.323  1.00  0.00    -0.038 SA
HETATM   13  H   UNL     1     -40.267 -47.560  10.169  1.00  0.00     0.172 HD
HETATM   14  H   UNL     1     -42.197 -49.744  12.080  1.00  0.00     0.164 HD
ENDROOT
BRANCH  11  15
HETATM   15  C   UNL     1     -40.815 -51.245  12.694  1.00  0.00     0.089 C 
HETATM   16  C   UNL     1     -41.574 -52.425  12.071  1.00  0.00     0.055 C 
HETATM   17  C   UNL     1     -42.952 -52.655  12.695  1.00  0.00     0.275 C 
HETATM   18  N   UNL     1     -42.936 -52.764  14.162  1.00  0.00     0.097 N 
HETATM   19  C   UNL     1     -42.358 -51.534  14.728  1.00  0.00     0.275 C 
HETATM   20  C   UNL     1     -40.956 -51.185  14.219  1.00  0.00     0.055 C 
BRANCH  18  21
HETATM   21  C   UNL     1     -42.226 -53.971  14.652  1.00  0.00     0.374 C 
BRANCH  21  22
HETATM   22  C   UNL     1     -43.137 -54.855  15.506  1.00  0.00     0.243 C 
HETATM   23  O   UNL     1     -43.096 -56.081  15.501  1.00  0.00    -0.272 OA
HETATM   24  N   UNL     1     -44.000 -54.180  16.326  1.00  0.00    -0.369 N 
HETATM   25  H   UNL     1     -44.235 -53.226  16.087  1.00  0.00     0.159 HD
HETATM   26  H   UNL     1     -44.685 -54.737  16.819  1.00  0.00     0.159 HD
ENDBRANCH  21  22
ENDBRANCH  18  21
ENDBRANCH  11  15
TORSDOF 3
ENDMDL
MODEL 5
REMARK VINA RESULT:      -5.9      1.848      2.161
REMARK  3 active torsions:
REMARK  status: ('A' for Active; 'I' for Inactive)
REMARK       I    between atoms: N_8  and  C_9 
REMARK       I    between atoms: C_9  and  N_11 
REMARK    1  A    between atoms: N_11  and  C_12 
REMARK    2  A    between atoms: N_15  and  C_16 
REMARK    3  A    between atoms: C_16  and  C_17 
REMARK       I    between atoms: C_17  and  N_19 
ROOT
HETATM    1  C   UNL     1     -43.552 -53.764  13.110  1.00  0.00     0.078 C 
HETATM    2  C   UNL     1     -42.580 -52.764  12.608  1.00  0.00     0.066 A 
HETATM    3  N   UNL     1     -42.924 -51.596  12.109  1.00  0.00    -0.296 N 
ATOM      4  HN  UNL     1     -43.889 -51.287  11.990  1.00  0.00     0.187 HD
HETATM    5  N   UNL     1     -41.829 -50.844  11.768  1.00  0.00    -0.279 N 
ATOM      6  HN  UNL     1     -41.884 -49.907  11.368  1.00  0.00     0.189 HD
HETATM    7  C   UNL     1     -40.702 -51.471  12.015  1.00  0.00     0.169 A 
HETATM    8  N   UNL     1     -39.436 -50.995  11.850  1.00  0.00    -0.288 N 
HETATM    9  C   UNL     1     -39.137 -49.687  11.574  1.00  0.00     0.322 C 
HETATM   10  O   UNL     1     -37.964 -49.332  11.491  1.00  0.00    -0.247 OA
HETATM   11  N   UNL     1     -40.192 -48.821  11.480  1.00  0.00    -0.338 N 
HETATM   12  S   UNL     1     -40.876 -53.041  12.649  1.00  0.00    -0.038 SA
HETATM   13  H   UNL     1     -38.648 -51.602  12.036  1.00  0.00     0.172 HD
HETATM   14  H   UNL     1     -41.121 -49.226  11.413  1.00  0.00     0.164 HD
ENDROOT
BRANCH  11  15
HETATM   15  C   UNL     1     -40.069 -47.373  11.439  1.00  0.00     0.089 C 
HETATM   16  C   UNL     1     -39.958 -46.808  12.862  1.00  0.00     0.055 C 
HETATM   17  C   UNL     1     -41.316 -46.582  13.530  1.00  0.00     0.275 C 
HETATM   18  N   UNL     1     -42.257 -45.786  12.727  1.00  0.00     0.097 N 
HETATM   19  C   UNL     1     -42.470 -46.457  11.434  1.00  0.00     0.275 C 
HETATM   20  C   UNL     1     -41.195 -46.725  10.627  1.00  0.00     0.055 C 
BRANCH  18  21
HETATM   21  C   UNL     1     -41.823 -44.380  12.542  1.00  0.00     0.374 C 
BRANCH  21  22
HETATM   22  C   UNL     1     -42.216 -43.505  13.735  1.00  0.00     0.243 C 
HETATM   23  O   UNL     1     -43.373 -43.192  13.997  1.00  0.00    -0.272 OA
HETATM   24  N   UNL     1     -41.178 -43.112  14.535  1.00  0.00    -0.369 N 
HETATM   25  H   UNL     1     -40.248 -43.105  14.138  1.00  0.00     0.159 HD
HETATM   26  H   UNL     1     -41.395 -42.447  15.264  1.00  0.00     0.159 HD
ENDBRANCH  21  22
ENDBRANCH  18  21
ENDBRANCH  11  15
TORSDOF 3
ENDMDL
MODEL 6
REMARK VINA RESULT:      -5.8      3.567      4.137
REMARK  3 active torsions:
REMARK  status: ('A' for Active; 'I' for Inactive)
REMARK       I    between atoms: N_8  and  C_9 
REMARK       I    between atoms: C_9  and  N_11 
REMARK    1  A    between atoms: N_11  and  C_12 
REMARK    2  A    between atoms: N_15  and  C_16 
REMARK    3  A    between atoms: C_16  and  C_17 
REMARK       I    between atoms: C_17  and  N_19 
ROOT
HETATM    1  C   UNL     1     -46.688 -51.579  13.225  1.00  0.00     0.078 C 
HETATM    2  C   UNL     1     -45.281 -51.991  13.011  1.00  0.00     0.066 A 
HETATM    3  N   UNL     1     -44.291 -51.144  12.820  1.00  0.00    -0.296 N 
ATOM      4  HN  UNL     1     -44.408 -50.132  12.767  1.00  0.00     0.187 HD
HETATM    5  N   UNL     1     -43.086 -51.786  12.700  1.00  0.00    -0.279 N 
ATOM      6  HN  UNL     1     -42.198 -51.306  12.551  1.00  0.00     0.189 HD
HETATM    7  C   UNL     1     -43.207 -53.090  12.799  1.00  0.00     0.169 A 
HETATM    8  N   UNL     1     -42.210 -54.018  12.783  1.00  0.00    -0.288 N 
HETATM    9  C   UNL     1     -40.877 -53.714  12.854  1.00  0.00     0.322 C 
HETATM   10  O   UNL     1     -40.044 -54.618  12.884  1.00  0.00    -0.247 OA
HETATM   11  N   UNL     1     -40.552 -52.390  12.965  1.00  0.00    -0.338 N 
HETATM   12  S   UNL     1     -44.801 -53.649  13.010  1.00  0.00    -0.038 SA
HETATM   13  H   UNL     1     -42.445 -55.002  12.822  1.00  0.00     0.172 HD
HETATM   14  H   UNL     1     -41.288 -51.714  12.781  1.00  0.00     0.164 HD
ENDROOT
BRANCH  11  15
HETATM   15  C   UNL     1     -39.227 -51.890  13.295  1.00  0.00     0.089 C 
HETATM   16  C   UNL     1     -39.018 -51.904  14.816  1.00  0.00     0.055 C 
HETATM   17  C   UNL     1     -39.562 -50.655  15.512  1.00  0.00     0.275 C 
HETATM   18  N   UNL     1     -39.087 -49.388  14.933  1.00  0.00     0.097 N 
HETATM   19  C   UNL     1     -39.463 -49.341  13.510  1.00  0.00     0.275 C 
HETATM   20  C   UNL     1     -38.959 -50.518  12.669  1.00  0.00     0.055 C 
BRANCH  18  21
HETATM   21  C   UNL     1     -37.631 -49.171  15.116  1.00  0.00     0.374 C 
BRANCH  21  22
HETATM   22  C   UNL     1     -37.276 -47.683  15.104  1.00  0.00     0.243 C 
HETATM   23  O   UNL     1     -36.303 -47.220  14.517  1.00  0.00    -0.272 OA
HETATM   24  N   UNL     1     -38.149 -46.871  15.775  1.00  0.00    -0.369 N 
HETATM   25  H   UNL     1     -38.731 -47.287  16.490  1.00  0.00     0.159 HD
HETATM   26  H   UNL     1     -37.882 -45.902  15.874  1.00  0.00     0.159 HD
ENDBRANCH  21  22
ENDBRANCH  18  21
ENDBRANCH  11  15
TORSDOF 3
ENDMDL
MODEL 7
REMARK VINA RESULT:      -5.6      3.877      6.879
REMARK  3 active torsions:
REMARK  status: ('A' for Active; 'I' for Inactive)
REMARK       I    between atoms: N_8  and  C_9 
REMARK       I    between atoms: C_9  and  N_11 
REMARK    1  A    between atoms: N_11  and  C_12 
REMARK    2  A    between atoms: N_15  and  C_16 
REMARK    3  A    between atoms: C_16  and  C_17 
REMARK       I    between atoms: C_17  and  N_19 
ROOT
HETATM    1  C   UNL     1     -37.047 -50.342  18.259  1.00  0.00     0.078 C 
HETATM    2  C   UNL     1     -37.491 -50.527  16.857  1.00  0.00     0.066 A 
HETATM    3  N   UNL     1     -38.150 -51.584  16.432  1.00  0.00    -0.296 N 
ATOM      4  HN  UNL     1     -38.383 -52.386  17.018  1.00  0.00     0.187 HD
HETATM    5  N   UNL     1     -38.484 -51.478  15.106  1.00  0.00    -0.279 N 
ATOM      6  HN  UNL     1     -38.999 -52.191  14.590  1.00  0.00     0.189 HD
HETATM    7  C   UNL     1     -38.063 -50.352  14.578  1.00  0.00     0.169 A 
HETATM    8  N   UNL     1     -38.272 -49.903  13.308  1.00  0.00    -0.288 N 
HETATM    9  C   UNL     1     -39.136 -50.486  12.421  1.00  0.00     0.322 C 
HETATM   10  O   UNL     1     -39.302 -49.986  11.310  1.00  0.00    -0.247 OA
HETATM   11  N   UNL     1     -39.836 -51.573  12.866  1.00  0.00    -0.338 N 
HETATM   12  S   UNL     1     -37.194 -49.342  15.638  1.00  0.00    -0.038 SA
HETATM   13  H   UNL     1     -37.850 -49.032  13.013  1.00  0.00     0.172 HD
HETATM   14  H   UNL     1     -39.526 -52.002  13.733  1.00  0.00     0.164 HD
ENDROOT
BRANCH  11  15
HETATM   15  C   UNL     1     -40.964 -52.171  12.170  1.00  0.00     0.089 C 
HETATM   16  C   UNL     1     -42.266 -51.455  12.554  1.00  0.00     0.055 C 
HETATM   17  C   UNL     1     -42.894 -51.992  13.841  1.00  0.00     0.275 C 
HETATM   18  N   UNL     1     -43.080 -53.452  13.856  1.00  0.00     0.097 N 
HETATM   19  C   UNL     1     -41.774 -54.103  13.657  1.00  0.00     0.275 C 
HETATM   20  C   UNL     1     -41.032 -53.686  12.382  1.00  0.00     0.055 C 
BRANCH  18  21
HETATM   21  C   UNL     1     -44.077 -53.924  12.865  1.00  0.00     0.374 C 
BRANCH  21  22
HETATM   22  C   UNL     1     -45.324 -54.495  13.546  1.00  0.00     0.243 C 
HETATM   23  O   UNL     1     -45.362 -55.598  14.081  1.00  0.00    -0.272 OA
HETATM   24  N   UNL     1     -46.412 -53.666  13.554  1.00  0.00    -0.369 N 
HETATM   25  H   UNL     1     -46.459 -52.935  12.857  1.00  0.00     0.159 HD
HETATM   26  H   UNL     1     -47.277 -54.058  13.900  1.00  0.00     0.159 HD
ENDBRANCH  21  22
ENDBRANCH  18  21
ENDBRANCH  11  15
TORSDOF 3
ENDMDL
MODEL 8
REMARK VINA RESULT:      -5.6      4.002      6.824
REMARK  3 active torsions:
REMARK  status: ('A' for Active; 'I' for Inactive)
REMARK       I    between atoms: N_8  and  C_9 
REMARK       I    between atoms: C_9  and  N_11 
REMARK    1  A    between atoms: N_11  and  C_12 
REMARK    2  A    between atoms: N_15  and  C_16 
REMARK    3  A    between atoms: C_16  and  C_17 
REMARK       I    between atoms: C_17  and  N_19 
ROOT
HETATM    1  C   UNL     1     -41.362 -45.237  10.229  1.00  0.00     0.078 C 
HETATM    2  C   UNL     1     -41.086 -46.648  10.588  1.00  0.00     0.066 A 
HETATM    3  N   UNL     1     -39.949 -47.062  11.107  1.00  0.00    -0.296 N 
ATOM      4  HN  UNL     1     -39.145 -46.457  11.276  1.00  0.00     0.187 HD
HETATM    5  N   UNL     1     -39.976 -48.403  11.391  1.00  0.00    -0.279 N 
ATOM      6  HN  UNL     1     -39.195 -48.914  11.801  1.00  0.00     0.189 HD
HETATM    7  C   UNL     1     -41.126 -48.953  11.073  1.00  0.00     0.169 A 
HETATM    8  N   UNL     1     -41.509 -50.246  11.273  1.00  0.00    -0.288 N 
HETATM    9  C   UNL     1     -40.807 -51.146  12.028  1.00  0.00     0.322 C 
HETATM   10  O   UNL     1     -41.251 -52.280  12.198  1.00  0.00    -0.247 OA
HETATM   11  N   UNL     1     -39.663 -50.692  12.623  1.00  0.00    -0.338 N 
HETATM   12  S   UNL     1     -42.259 -47.895  10.368  1.00  0.00    -0.038 SA
HETATM   13  H   UNL     1     -42.412 -50.554  10.936  1.00  0.00     0.172 HD
HETATM   14  H   UNL     1     -39.298 -49.798  12.307  1.00  0.00     0.164 HD
ENDROOT
BRANCH  11  15
HETATM   15  C   UNL     1     -38.923 -51.412  13.647  1.00  0.00     0.089 C 
HETATM   16  C   UNL     1     -39.562 -51.186  15.023  1.00  0.00     0.055 C 
HETATM   17  C   UNL     1     -39.084 -49.905  15.710  1.00  0.00     0.275 C 
HETATM   18  N   UNL     1     -37.620 -49.775  15.789  1.00  0.00     0.097 N 
HETATM   19  C   UNL     1     -37.061 -49.823  14.427  1.00  0.00     0.275 C 
HETATM   20  C   UNL     1     -37.429 -51.073  13.621  1.00  0.00     0.055 C 
BRANCH  18  21
HETATM   21  C   UNL     1     -36.990 -50.790  16.669  1.00  0.00     0.374 C 
BRANCH  21  22
HETATM   22  C   UNL     1     -35.622 -50.327  17.175  1.00  0.00     0.243 C 
HETATM   23  O   UNL     1     -35.194 -49.187  17.034  1.00  0.00    -0.272 OA
HETATM   24  N   UNL     1     -34.898 -51.277  17.842  1.00  0.00    -0.369 N 
HETATM   25  H   UNL     1     -35.114 -52.250  17.669  1.00  0.00     0.159 HD
HETATM   26  H   UNL     1     -33.950 -51.031  18.091  1.00  0.00     0.159 HD
ENDBRANCH  21  22
ENDBRANCH  18  21
ENDBRANCH  11  15
TORSDOF 3
ENDMDL
MODEL 9
REMARK VINA RESULT:      -5.6      4.169      6.825
REMARK  3 active torsions:
REMARK  status: ('A' for Active; 'I' for Inactive)
REMARK       I    between atoms: N_8  and  C_9 
REMARK       I    between atoms: C_9  and  N_11 
REMARK    1  A    between atoms: N_11  and  C_12 
REMARK    2  A    between atoms: N_15  and  C_16 
REMARK    3  A    between atoms: C_16  and  C_17 
REMARK       I    between atoms: C_17  and  N_19 
ROOT
HETATM    1  C   UNL     1     -39.120 -45.954  16.364  1.00  0.00     0.078 C 
HETATM    2  C   UNL     1     -38.890 -47.294  15.774  1.00  0.00     0.066 A 
HETATM    3  N   UNL     1     -39.752 -48.285  15.852  1.00  0.00    -0.296 N 
ATOM      4  HN  UNL     1     -40.639 -48.233  16.354  1.00  0.00     0.187 HD
HETATM    5  N   UNL     1     -39.315 -49.396  15.178  1.00  0.00    -0.279 N 
ATOM      6  HN  UNL     1     -39.840 -50.268  15.116  1.00  0.00     0.189 HD
HETATM    7  C   UNL     1     -38.140 -49.207  14.621  1.00  0.00     0.169 A 
HETATM    8  N   UNL     1     -37.445 -50.078  13.836  1.00  0.00    -0.288 N 
HETATM    9  C   UNL     1     -37.964 -51.242  13.336  1.00  0.00     0.322 C 
HETATM   10  O   UNL     1     -37.283 -51.945  12.593  1.00  0.00    -0.247 OA
HETATM   11  N   UNL     1     -39.268 -51.517  13.644  1.00  0.00    -0.338 N 
HETATM   12  S   UNL     1     -37.451 -47.676  14.900  1.00  0.00    -0.038 SA
HETATM   13  H   UNL     1     -36.523 -49.823  13.507  1.00  0.00     0.172 HD
HETATM   14  H   UNL     1     -39.699 -50.964  14.378  1.00  0.00     0.164 HD
ENDROOT
BRANCH  11  15
HETATM   15  C   UNL     1     -40.061 -52.562  13.016  1.00  0.00     0.089 C 
HETATM   16  C   UNL     1     -41.168 -51.943  12.152  1.00  0.00     0.055 C 
HETATM   17  C   UNL     1     -42.428 -51.590  12.945  1.00  0.00     0.275 C 
HETATM   18  N   UNL     1     -42.959 -52.698  13.754  1.00  0.00     0.097 N 
HETATM   19  C   UNL     1     -41.917 -53.149  14.692  1.00  0.00     0.275 C 
HETATM   20  C   UNL     1     -40.597 -53.569  14.039  1.00  0.00     0.055 C 
BRANCH  18  21
HETATM   21  C   UNL     1     -43.475 -53.824  12.937  1.00  0.00     0.374 C 
BRANCH  21  22
HETATM   22  C   UNL     1     -45.004 -53.819  12.869  1.00  0.00     0.243 C 
HETATM   23  O   UNL     1     -45.650 -53.066  12.148  1.00  0.00    -0.272 OA
HETATM   24  N   UNL     1     -45.624 -54.752  13.654  1.00  0.00    -0.369 N 
HETATM   25  H   UNL     1     -45.115 -55.121  14.446  1.00  0.00     0.159 HD
HETATM   26  H   UNL     1     -46.631 -54.699  13.710  1.00  0.00     0.159 HD
ENDBRANCH  21  22
ENDBRANCH  18  21
ENDBRANCH  11  15
TORSDOF 3
ENDMDL
