MODEL 1
REMARK VINA RESULT:      -6.5      0.000      0.000
REMARK  5 active torsions:
REMARK  status: ('A' for Active; 'I' for Inactive)
REMARK    1  A    between atoms: C_2  and  C_3 
REMARK    2  A    between atoms: C_2  and  S_20 
REMARK       I    between atoms: C_3  and  N_5 
REMARK    3  A    between atoms: N_5  and  C_6 
REMARK    4  A    between atoms: C_6  and  C_7 
REMARK    5  A    between atoms: C_10  and  N_14 
ROOT
HETATM    1  C   UNL     1     -41.351 -50.438  12.130  1.00  0.00    -0.025 A 
HETATM    2  C   UNL     1     -42.490 -49.731  12.502  1.00  0.00     0.014 A 
HETATM    3  C   UNL     1     -42.860 -48.590  11.786  1.00  0.00     0.049 A 
HETATM    4  C   UNL     1     -42.103 -48.167  10.694  1.00  0.00     0.103 A 
HETATM    5  N   UNL     1     -40.977 -48.833  10.356  1.00  0.00    -0.352 N 
ATOM      6  HN  UNL     1     -40.408 -48.520   9.570  1.00  0.00     0.166 HD
HETATM    7  C   UNL     1     -40.617 -49.922  11.075  1.00  0.00     0.098 A 
ENDROOT
BRANCH   1   8
HETATM    8  C   UNL     1     -40.950 -51.720  12.794  1.00  0.00     0.162 C 
BRANCH   8   9
HETATM    9  N   UNL     1     -41.983 -52.256  13.650  1.00  0.00    -0.356 N 
HETATM   10  C   UNL     1     -42.237 -53.609  13.719  1.00  0.00     0.236 C 
HETATM   11  O   UNL     1     -41.518 -54.448  13.177  1.00  0.00    -0.272 OA
HETATM   12  H   UNL     1     -42.666 -51.601  14.007  1.00  0.00     0.162 HD
BRANCH  10  13
HETATM   13  C   UNL     1     -43.481 -53.991  14.484  1.00  0.00     0.195 C 
HETATM   14  C   UNL     1     -43.339 -55.353  15.148  1.00  0.00     0.036 C 
BRANCH  13  15
HETATM   15  S   UNL     1     -44.859 -53.942  13.344  1.00  0.00     0.153 S 
HETATM   16  O   UNL     1     -44.355 -53.437  12.078  1.00  0.00    -0.227 OA
HETATM   17  O   UNL     1     -45.513 -55.238  13.378  1.00  0.00    -0.227 OA
HETATM   18  C   UNL     1     -46.001 -52.730  13.978  1.00  0.00     0.162 C 
ENDBRANCH  13  15
ENDBRANCH  10  13
ENDBRANCH   8   9
ENDBRANCH   1   8
BRANCH   4  19
HETATM   19  N   UNL     1     -42.470 -47.091   9.927  1.00  0.00    -0.363 N 
HETATM   20  C   UNL     1     -41.925 -45.763  10.221  1.00  0.00     0.150 C 
HETATM   21  C   UNL     1     -43.055 -44.725  10.267  1.00  0.00     0.187 C 
HETATM   22  O   UNL     1     -43.860 -44.763   9.073  1.00  0.00    -0.388 OA
HETATM   23  C   UNL     1     -44.448 -46.065   8.919  1.00  0.00     0.187 C 
HETATM   24  C   UNL     1     -43.376 -47.161   8.783  1.00  0.00     0.150 C 
ENDBRANCH   4  19
TORSDOF 5
ENDMDL
MODEL 2
REMARK VINA RESULT:      -6.1      2.563      7.458
REMARK  5 active torsions:
REMARK  status: ('A' for Active; 'I' for Inactive)
REMARK    1  A    between atoms: C_2  and  C_3 
REMARK    2  A    between atoms: C_2  and  S_20 
REMARK       I    between atoms: C_3  and  N_5 
REMARK    3  A    between atoms: N_5  and  C_6 
REMARK    4  A    between atoms: C_6  and  C_7 
REMARK    5  A    between atoms: C_10  and  N_14 
ROOT
HETATM    1  C   UNL     1     -41.724 -50.467  12.053  1.00  0.00    -0.025 A 
HETATM    2  C   UNL     1     -42.702 -49.870  12.840  1.00  0.00     0.014 A 
HETATM    3  C   UNL     1     -43.622 -50.668  13.525  1.00  0.00     0.049 A 
HETATM    4  C   UNL     1     -43.554 -52.058  13.435  1.00  0.00     0.103 A 
HETATM    5  N   UNL     1     -42.627 -52.637  12.641  1.00  0.00    -0.352 N 
ATOM      6  HN  UNL     1     -42.581 -53.652  12.554  1.00  0.00     0.166 HD
HETATM    7  C   UNL     1     -41.758 -51.850  11.962  1.00  0.00     0.098 A 
ENDROOT
BRANCH   1   8
HETATM    8  C   UNL     1     -40.652 -49.677  11.368  1.00  0.00     0.162 C 
BRANCH   8   9
HETATM    9  N   UNL     1     -41.177 -48.604  10.555  1.00  0.00    -0.356 N 
HETATM   10  C   UNL     1     -41.107 -47.288  10.957  1.00  0.00     0.236 C 
HETATM   11  O   UNL     1     -40.474 -46.931  11.950  1.00  0.00    -0.272 OA
HETATM   12  H   UNL     1     -41.806 -48.865   9.806  1.00  0.00     0.162 HD
BRANCH  10  13
HETATM   13  C   UNL     1     -41.889 -46.315  10.109  1.00  0.00     0.195 C 
HETATM   14  C   UNL     1     -42.195 -45.029  10.864  1.00  0.00     0.036 C 
BRANCH  13  15
HETATM   15  S   UNL     1     -43.378 -47.141   9.563  1.00  0.00     0.153 S 
HETATM   16  O   UNL     1     -43.015 -47.990   8.441  1.00  0.00    -0.227 OA
HETATM   17  O   UNL     1     -44.011 -47.739  10.725  1.00  0.00    -0.227 OA
HETATM   18  C   UNL     1     -44.462 -45.874   8.935  1.00  0.00     0.162 C 
ENDBRANCH  13  15
ENDBRANCH  10  13
ENDBRANCH   8   9
ENDBRANCH   1   8
BRANCH   4  19
HETATM   19  N   UNL     1     -44.395 -52.876  14.144  1.00  0.00    -0.363 N 
HETATM   20  C   UNL     1     -44.183 -54.327  14.136  1.00  0.00     0.150 C 
HETATM   21  C   UNL     1     -45.502 -55.054  13.840  1.00  0.00     0.187 C 
HETATM   22  O   UNL     1     -46.552 -54.632  14.732  1.00  0.00    -0.388 OA
HETATM   23  C   UNL     1     -46.774 -53.220  14.595  1.00  0.00     0.187 C 
HETATM   24  C   UNL     1     -45.517 -52.409  14.954  1.00  0.00     0.150 C 
ENDBRANCH   4  19
TORSDOF 5
ENDMDL
MODEL 3
REMARK VINA RESULT:      -6.0      2.252      3.104
REMARK  5 active torsions:
REMARK  status: ('A' for Active; 'I' for Inactive)
REMARK    1  A    between atoms: C_2  and  C_3 
REMARK    2  A    between atoms: C_2  and  S_20 
REMARK       I    between atoms: C_3  and  N_5 
REMARK    3  A    between atoms: N_5  and  C_6 
REMARK    4  A    between atoms: C_6  and  C_7 
REMARK    5  A    between atoms: C_10  and  N_14 
ROOT
HETATM    1  C   UNL     1     -42.238 -52.395  12.752  1.00  0.00    -0.025 A 
HETATM    2  C   UNL     1     -42.888 -51.262  13.228  1.00  0.00     0.014 A 
HETATM    3  C   UNL     1     -42.538 -50.003  12.732  1.00  0.00     0.049 A 
HETATM    4  C   UNL     1     -41.552 -49.880  11.753  1.00  0.00     0.103 A 
HETATM    5  N   UNL     1     -40.896 -50.978  11.317  1.00  0.00    -0.352 N 
ATOM      6  HN  UNL     1     -40.161 -50.895  10.614  1.00  0.00     0.166 HD
HETATM    7  C   UNL     1     -41.228 -52.188  11.825  1.00  0.00     0.098 A 
ENDROOT
BRANCH   1   8
HETATM    8  C   UNL     1     -42.627 -53.779  13.170  1.00  0.00     0.162 C 
BRANCH   8   9
HETATM    9  N   UNL     1     -43.619 -53.790  14.221  1.00  0.00    -0.356 N 
HETATM   10  C   UNL     1     -44.907 -54.224  13.997  1.00  0.00     0.236 C 
HETATM   11  O   UNL     1     -45.255 -54.757  12.944  1.00  0.00    -0.272 OA
HETATM   12  H   UNL     1     -43.410 -53.250  15.052  1.00  0.00     0.162 HD
BRANCH  10  13
HETATM   13  C   UNL     1     -45.876 -53.969  15.127  1.00  0.00     0.195 C 
HETATM   14  C   UNL     1     -46.783 -52.782  14.836  1.00  0.00     0.036 C 
BRANCH  13  15
HETATM   15  S   UNL     1     -44.922 -53.733  16.621  1.00  0.00     0.153 S 
HETATM   16  O   UNL     1     -44.053 -54.889  16.767  1.00  0.00    -0.227 OA
HETATM   17  O   UNL     1     -44.331 -52.407  16.570  1.00  0.00    -0.227 OA
HETATM   18  C   UNL     1     -46.079 -53.769  17.975  1.00  0.00     0.162 C 
ENDBRANCH  13  15
ENDBRANCH  10  13
ENDBRANCH   8   9
ENDBRANCH   1   8
BRANCH   4  19
HETATM   19  N   UNL     1     -41.228 -48.671  11.194  1.00  0.00    -0.363 N 
HETATM   20  C   UNL     1     -40.008 -47.975  11.615  1.00  0.00     0.150 C 
HETATM   21  C   UNL     1     -40.320 -46.507  11.935  1.00  0.00     0.187 C 
HETATM   22  O   UNL     1     -41.003 -45.859  10.844  1.00  0.00    -0.388 OA
HETATM   23  C   UNL     1     -42.241 -46.535  10.570  1.00  0.00     0.187 C 
HETATM   24  C   UNL     1     -42.010 -48.000  10.160  1.00  0.00     0.150 C 
ENDBRANCH   4  19
TORSDOF 5
ENDMDL
MODEL 4
REMARK VINA RESULT:      -5.9      1.845      2.490
REMARK  5 active torsions:
REMARK  status: ('A' for Active; 'I' for Inactive)
REMARK    1  A    between atoms: C_2  and  C_3 
REMARK    2  A    between atoms: C_2  and  S_20 
REMARK       I    between atoms: C_3  and  N_5 
REMARK    3  A    between atoms: N_5  and  C_6 
REMARK    4  A    between atoms: C_6  and  C_7 
REMARK    5  A    between atoms: C_10  and  N_14 
ROOT
HETATM    1  C   UNL     1     -42.111 -50.284  12.254  1.00  0.00    -0.025 A 
HETATM    2  C   UNL     1     -43.002 -49.277  12.610  1.00  0.00     0.014 A 
HETATM    3  C   UNL     1     -42.787 -47.972  12.158  1.00  0.00     0.049 A 
HETATM    4  C   UNL     1     -41.696 -47.679  11.342  1.00  0.00     0.103 A 
HETATM    5  N   UNL     1     -40.811 -48.650  11.026  1.00  0.00    -0.352 N 
ATOM      6  HN  UNL     1     -40.000 -48.441  10.444  1.00  0.00     0.166 HD
HETATM    7  C   UNL     1     -41.017 -49.905  11.492  1.00  0.00     0.098 A 
ENDROOT
BRANCH   1   8
HETATM    8  C   UNL     1     -42.332 -51.718  12.625  1.00  0.00     0.162 C 
BRANCH   8   9
HETATM    9  N   UNL     1     -43.574 -51.931  13.332  1.00  0.00    -0.356 N 
HETATM   10  C   UNL     1     -44.490 -52.873  12.918  1.00  0.00     0.236 C 
HETATM   11  O   UNL     1     -44.253 -53.682  12.022  1.00  0.00    -0.272 OA
HETATM   12  H   UNL     1     -43.856 -51.211  13.985  1.00  0.00     0.162 HD
BRANCH  10  13
HETATM   13  C   UNL     1     -45.824 -52.824  13.624  1.00  0.00     0.195 C 
HETATM   14  C   UNL     1     -46.261 -51.393  13.905  1.00  0.00     0.036 C 
BRANCH  13  15
HETATM   15  S   UNL     1     -45.685 -53.788  15.123  1.00  0.00     0.153 S 
HETATM   16  O   UNL     1     -46.558 -54.941  14.979  1.00  0.00    -0.227 OA
HETATM   17  O   UNL     1     -44.273 -54.000  15.389  1.00  0.00    -0.227 OA
HETATM   18  C   UNL     1     -46.349 -52.785  16.437  1.00  0.00     0.162 C 
ENDBRANCH  13  15
ENDBRANCH  10  13
ENDBRANCH   8   9
ENDBRANCH   1   8
BRANCH   4  19
HETATM   19  N   UNL     1     -41.488 -46.426  10.824  1.00  0.00    -0.363 N 
HETATM   20  C   UNL     1     -40.122 -45.925  10.648  1.00  0.00     0.150 C 
HETATM   21  C   UNL     1     -39.997 -44.512  11.232  1.00  0.00     0.187 C 
HETATM   22  O   UNL     1     -41.005 -43.628  10.703  1.00  0.00    -0.388 OA
HETATM   23  C   UNL     1     -42.313 -44.132  11.017  1.00  0.00     0.187 C 
HETATM   24  C   UNL     1     -42.551 -45.520  10.397  1.00  0.00     0.150 C 
ENDBRANCH   4  19
TORSDOF 5
ENDMDL
MODEL 5
REMARK VINA RESULT:      -5.8      3.883      4.935
REMARK  5 active torsions:
REMARK  status: ('A' for Active; 'I' for Inactive)
REMARK    1  A    between atoms: C_2  and  C_3 
REMARK    2  A    between atoms: C_2  and  S_20 
REMARK       I    between atoms: C_3  and  N_5 
REMARK    3  A    between atoms: N_5  and  C_6 
REMARK    4  A    between atoms: C_6  and  C_7 
REMARK    5  A    between atoms: C_10  and  N_14 
ROOT
HETATM    1  C   UNL     1     -40.783 -47.174  11.041  1.00  0.00    -0.025 A 
HETATM    2  C   UNL     1     -41.342 -45.967  10.637  1.00  0.00     0.014 A 
HETATM    3  C   UNL     1     -42.509 -45.968   9.868  1.00  0.00     0.049 A 
HETATM    4  C   UNL     1     -43.122 -47.170   9.518  1.00  0.00     0.103 A 
HETATM    5  N   UNL     1     -42.558 -48.344   9.879  1.00  0.00    -0.352 N 
ATOM      6  HN  UNL     1     -42.989 -49.228   9.612  1.00  0.00     0.166 HD
HETATM    7  C   UNL     1     -41.413 -48.328  10.602  1.00  0.00     0.098 A 
ENDROOT
BRANCH   1   8
HETATM    8  C   UNL     1     -39.589 -47.244  11.943  1.00  0.00     0.162 C 
BRANCH   8   9
HETATM    9  N   UNL     1     -39.199 -48.599  12.255  1.00  0.00    -0.356 N 
HETATM   10  C   UNL     1     -38.440 -48.897  13.366  1.00  0.00     0.236 C 
HETATM   11  O   UNL     1     -38.171 -48.063  14.229  1.00  0.00    -0.272 OA
HETATM   12  H   UNL     1     -39.293 -49.283  11.514  1.00  0.00     0.162 HD
BRANCH  10  13
HETATM   13  C   UNL     1     -37.933 -50.318  13.434  1.00  0.00     0.195 C 
HETATM   14  C   UNL     1     -37.381 -50.785  12.095  1.00  0.00     0.036 C 
BRANCH  13  15
HETATM   15  S   UNL     1     -39.279 -51.351  14.000  1.00  0.00     0.153 S 
HETATM   16  O   UNL     1     -40.452 -50.502  14.129  1.00  0.00    -0.227 OA
HETATM   17  O   UNL     1     -39.342 -52.517  13.137  1.00  0.00    -0.227 OA
HETATM   18  C   UNL     1     -38.844 -51.901  15.639  1.00  0.00     0.162 C 
ENDBRANCH  13  15
ENDBRANCH  10  13
ENDBRANCH   8   9
ENDBRANCH   1   8
BRANCH   4  19
HETATM   19  N   UNL     1     -44.302 -47.211   8.821  1.00  0.00    -0.363 N 
HETATM   20  C   UNL     1     -45.351 -46.225   9.102  1.00  0.00     0.150 C 
HETATM   21  C   UNL     1     -46.702 -46.928   9.287  1.00  0.00     0.187 C 
HETATM   22  O   UNL     1     -47.009 -47.792   8.175  1.00  0.00    -0.388 OA
HETATM   23  C   UNL     1     -45.991 -48.797   8.040  1.00  0.00     0.187 C 
HETATM   24  C   UNL     1     -44.610 -48.175   7.769  1.00  0.00     0.150 C 
ENDBRANCH   4  19
TORSDOF 5
ENDMDL
MODEL 6
REMARK VINA RESULT:      -5.7      4.050      5.454
REMARK  5 active torsions:
REMARK  status: ('A' for Active; 'I' for Inactive)
REMARK    1  A    between atoms: C_2  and  C_3 
REMARK    2  A    between atoms: C_2  and  S_20 
REMARK       I    between atoms: C_3  and  N_5 
REMARK    3  A    between atoms: N_5  and  C_6 
REMARK    4  A    between atoms: C_6  and  C_7 
REMARK    5  A    between atoms: C_10  and  N_14 
ROOT
HETATM    1  C   UNL     1     -43.131 -53.665  13.134  1.00  0.00    -0.025 A 
HETATM    2  C   UNL     1     -42.030 -54.024  13.904  1.00  0.00     0.014 A 
HETATM    3  C   UNL     1     -40.898 -53.205  13.916  1.00  0.00     0.049 A 
HETATM    4  C   UNL     1     -40.873 -52.026  13.173  1.00  0.00     0.103 A 
HETATM    5  N   UNL     1     -41.928 -51.696  12.396  1.00  0.00    -0.352 N 
ATOM      6  HN  UNL     1     -41.912 -50.845  11.835  1.00  0.00     0.166 HD
HETATM    7  C   UNL     1     -43.009 -52.512  12.374  1.00  0.00     0.098 A 
ENDROOT
BRANCH   1   8
HETATM    8  C   UNL     1     -44.409 -54.446  13.148  1.00  0.00     0.162 C 
BRANCH   8   9
HETATM    9  N   UNL     1     -45.240 -54.141  14.290  1.00  0.00    -0.356 N 
HETATM   10  C   UNL     1     -46.184 -53.138  14.252  1.00  0.00     0.236 C 
HETATM   11  O   UNL     1     -46.478 -52.542  13.217  1.00  0.00    -0.272 OA
HETATM   12  H   UNL     1     -44.946 -54.518  15.182  1.00  0.00     0.162 HD
BRANCH  10  13
HETATM   13  C   UNL     1     -46.814 -52.799  15.582  1.00  0.00     0.195 C 
HETATM   14  C   UNL     1     -47.224 -51.334  15.654  1.00  0.00     0.036 C 
BRANCH  13  15
HETATM   15  S   UNL     1     -45.646 -53.231  16.865  1.00  0.00     0.153 S 
HETATM   16  O   UNL     1     -45.755 -54.663  17.085  1.00  0.00    -0.227 OA
HETATM   17  O   UNL     1     -44.357 -52.667  16.505  1.00  0.00    -0.227 OA
HETATM   18  C   UNL     1     -46.204 -52.426  18.354  1.00  0.00     0.162 C 
ENDBRANCH  13  15
ENDBRANCH  10  13
ENDBRANCH   8   9
ENDBRANCH   1   8
BRANCH   4  19
HETATM   19  N   UNL     1     -39.808 -51.163  13.210  1.00  0.00    -0.363 N 
HETATM   20  C   UNL     1     -39.948 -49.804  12.678  1.00  0.00     0.150 C 
HETATM   21  C   UNL     1     -38.776 -49.479  11.743  1.00  0.00     0.187 C 
HETATM   22  O   UNL     1     -37.506 -49.717  12.380  1.00  0.00    -0.388 OA
HETATM   23  C   UNL     1     -37.403 -51.096  12.769  1.00  0.00     0.187 C 
HETATM   24  C   UNL     1     -38.500 -51.486  13.775  1.00  0.00     0.150 C 
ENDBRANCH   4  19
TORSDOF 5
ENDMDL
MODEL 7
REMARK VINA RESULT:      -5.6      3.762      8.671
REMARK  5 active torsions:
REMARK  status: ('A' for Active; 'I' for Inactive)
REMARK    1  A    between atoms: C_2  and  C_3 
REMARK    2  A    between atoms: C_2  and  S_20 
REMARK       I    between atoms: C_3  and  N_5 
REMARK    3  A    between atoms: N_5  and  C_6 
REMARK    4  A    between atoms: C_6  and  C_7 
REMARK    5  A    between atoms: C_10  and  N_14 
ROOT
HETATM    1  C   UNL     1     -41.515 -46.957  10.773  1.00  0.00    -0.025 A 
HETATM    2  C   UNL     1     -40.278 -46.993  11.407  1.00  0.00     0.014 A 
HETATM    3  C   UNL     1     -39.755 -48.215  11.836  1.00  0.00     0.049 A 
HETATM    4  C   UNL     1     -40.459 -49.399  11.618  1.00  0.00     0.103 A 
HETATM    5  N   UNL     1     -41.677 -49.360  11.035  1.00  0.00    -0.352 N 
ATOM      6  HN  UNL     1     -42.208 -50.219  10.888  1.00  0.00     0.166 HD
HETATM    7  C   UNL     1     -42.183 -48.165  10.647  1.00  0.00     0.098 A 
ENDROOT
BRANCH   1   8
HETATM    8  C   UNL     1     -42.090 -45.696  10.205  1.00  0.00     0.162 C 
BRANCH   8   9
HETATM    9  N   UNL     1     -42.162 -44.626  11.174  1.00  0.00    -0.356 N 
HETATM   10  C   UNL     1     -42.888 -43.480  10.934  1.00  0.00     0.236 C 
HETATM   11  O   UNL     1     -43.628 -43.354   9.959  1.00  0.00    -0.272 OA
HETATM   12  H   UNL     1     -41.477 -44.638  11.919  1.00  0.00     0.162 HD
BRANCH  10  13
HETATM   13  C   UNL     1     -42.687 -42.371  11.939  1.00  0.00     0.195 C 
HETATM   14  C   UNL     1     -41.663 -41.353  11.459  1.00  0.00     0.036 C 
BRANCH  13  15
HETATM   15  S   UNL     1     -42.209 -43.121  13.491  1.00  0.00     0.153 S 
HETATM   16  O   UNL     1     -43.212 -44.121  13.815  1.00  0.00    -0.227 OA
HETATM   17  O   UNL     1     -40.818 -43.524  13.383  1.00  0.00    -0.227 OA
HETATM   18  C   UNL     1     -42.320 -41.844  14.728  1.00  0.00     0.162 C 
ENDBRANCH  13  15
ENDBRANCH  10  13
ENDBRANCH   8   9
ENDBRANCH   1   8
BRANCH   4  19
HETATM   19  N   UNL     1     -39.950 -50.624  11.964  1.00  0.00    -0.363 N 
HETATM   20  C   UNL     1     -40.801 -51.816  11.895  1.00  0.00     0.150 C 
HETATM   21  C   UNL     1     -40.691 -52.622  13.196  1.00  0.00     0.187 C 
HETATM   22  O   UNL     1     -39.319 -52.915  13.524  1.00  0.00    -0.388 OA
HETATM   23  C   UNL     1     -38.581 -51.693  13.686  1.00  0.00     0.187 C 
HETATM   24  C   UNL     1     -38.574 -50.858  12.394  1.00  0.00     0.150 C 
ENDBRANCH   4  19
TORSDOF 5
ENDMDL
MODEL 8
REMARK VINA RESULT:      -5.5      2.322      2.746
REMARK  5 active torsions:
REMARK  status: ('A' for Active; 'I' for Inactive)
REMARK    1  A    between atoms: C_2  and  C_3 
REMARK    2  A    between atoms: C_2  and  S_20 
REMARK       I    between atoms: C_3  and  N_5 
REMARK    3  A    between atoms: N_5  and  C_6 
REMARK    4  A    between atoms: C_6  and  C_7 
REMARK    5  A    between atoms: C_10  and  N_14 
ROOT
HETATM    1  C   UNL     1     -39.884 -49.627  12.423  1.00  0.00    -0.025 A 
HETATM    2  C   UNL     1     -39.482 -48.473  13.088  1.00  0.00     0.014 A 
HETATM    3  C   UNL     1     -39.769 -47.221  12.537  1.00  0.00     0.049 A 
HETATM    4  C   UNL     1     -40.468 -47.124  11.334  1.00  0.00     0.103 A 
HETATM    5  N   UNL     1     -40.827 -48.245  10.671  1.00  0.00    -0.352 N 
ATOM      6  HN  UNL     1     -41.322 -48.183   9.781  1.00  0.00     0.166 HD
HETATM    7  C   UNL     1     -40.519 -49.452  11.204  1.00  0.00     0.098 A 
ENDROOT
BRANCH   1   8
HETATM    8  C   UNL     1     -39.692 -50.995  13.002  1.00  0.00     0.162 C 
BRANCH   8   9
HETATM    9  N   UNL     1     -40.902 -51.535  13.578  1.00  0.00    -0.356 N 
HETATM   10  C   UNL     1     -41.734 -52.370  12.865  1.00  0.00     0.236 C 
HETATM   11  O   UNL     1     -41.434 -52.820  11.760  1.00  0.00    -0.272 OA
HETATM   12  H   UNL     1     -41.240 -51.095  14.425  1.00  0.00     0.162 HD
BRANCH  10  13
HETATM   13  C   UNL     1     -43.059 -52.672  13.524  1.00  0.00     0.195 C 
HETATM   14  C   UNL     1     -43.984 -53.449  12.598  1.00  0.00     0.036 C 
BRANCH  13  15
HETATM   15  S   UNL     1     -43.778 -51.118  14.040  1.00  0.00     0.153 S 
HETATM   16  O   UNL     1     -43.317 -50.857  15.393  1.00  0.00    -0.227 OA
HETATM   17  O   UNL     1     -43.515 -50.137  13.002  1.00  0.00    -0.227 OA
HETATM   18  C   UNL     1     -45.539 -51.375  14.123  1.00  0.00     0.162 C 
ENDBRANCH  13  15
ENDBRANCH  10  13
ENDBRANCH   8   9
ENDBRANCH   1   8
BRANCH   4  19
HETATM   19  N   UNL     1     -40.826 -45.915  10.796  1.00  0.00    -0.363 N 
HETATM   20  C   UNL     1     -39.795 -44.925  10.472  1.00  0.00     0.150 C 
HETATM   21  C   UNL     1     -40.183 -43.552  11.036  1.00  0.00     0.187 C 
HETATM   22  O   UNL     1     -41.506 -43.160  10.620  1.00  0.00    -0.388 OA
HETATM   23  C   UNL     1     -42.469 -44.125  11.075  1.00  0.00     0.187 C 
HETATM   24  C   UNL     1     -42.198 -45.520  10.486  1.00  0.00     0.150 C 
ENDBRANCH   4  19
TORSDOF 5
ENDMDL
MODEL 9
REMARK VINA RESULT:      -5.5      3.365      8.321
REMARK  5 active torsions:
REMARK  status: ('A' for Active; 'I' for Inactive)
REMARK    1  A    between atoms: C_2  and  C_3 
REMARK    2  A    between atoms: C_2  and  S_20 
REMARK       I    between atoms: C_3  and  N_5 
REMARK    3  A    between atoms: N_5  and  C_6 
REMARK    4  A    between atoms: C_6  and  C_7 
REMARK    5  A    between atoms: C_10  and  N_14 
ROOT
HETATM    1  C   UNL     1     -40.486 -47.924  11.743  1.00  0.00    -0.025 A 
HETATM    2  C   UNL     1     -40.137 -48.381  13.010  1.00  0.00     0.014 A 
HETATM    3  C   UNL     1     -40.738 -49.535  13.518  1.00  0.00     0.049 A 
HETATM    4  C   UNL     1     -41.672 -50.237  12.758  1.00  0.00     0.103 A 
HETATM    5  N   UNL     1     -42.038 -49.773  11.543  1.00  0.00    -0.352 N 
ATOM      6  HN  UNL     1     -42.734 -50.270  10.987  1.00  0.00     0.166 HD
HETATM    7  C   UNL     1     -41.466 -48.638  11.073  1.00  0.00     0.098 A 
ENDROOT
BRANCH   1   8
HETATM    8  C   UNL     1     -39.814 -46.750  11.101  1.00  0.00     0.162 C 
BRANCH   8   9
HETATM    9  N   UNL     1     -40.445 -45.492  11.429  1.00  0.00    -0.356 N 
HETATM   10  C   UNL     1     -40.267 -44.368  10.652  1.00  0.00     0.236 C 
HETATM   11  O   UNL     1     -39.688 -44.395   9.567  1.00  0.00    -0.272 OA
HETATM   12  H   UNL     1     -40.819 -45.400  12.365  1.00  0.00     0.162 HD
BRANCH  10  13
HETATM   13  C   UNL     1     -40.809 -43.088  11.242  1.00  0.00     0.195 C 
HETATM   14  C   UNL     1     -40.104 -42.724  12.542  1.00  0.00     0.036 C 
BRANCH  13  15
HETATM   15  S   UNL     1     -42.570 -43.295  11.471  1.00  0.00     0.153 S 
HETATM   16  O   UNL     1     -43.154 -43.519  10.159  1.00  0.00    -0.227 OA
HETATM   17  O   UNL     1     -42.773 -44.285  12.513  1.00  0.00    -0.227 OA
HETATM   18  C   UNL     1     -43.193 -41.734  12.064  1.00  0.00     0.162 C 
ENDBRANCH  13  15
ENDBRANCH  10  13
ENDBRANCH   8   9
ENDBRANCH   1   8
BRANCH   4  19
HETATM   19  N   UNL     1     -42.234 -51.409  13.194  1.00  0.00    -0.363 N 
HETATM   20  C   UNL     1     -41.391 -52.442  13.804  1.00  0.00     0.150 C 
HETATM   21  C   UNL     1     -41.690 -53.809  13.174  1.00  0.00     0.187 C 
HETATM   22  O   UNL     1     -43.096 -54.118  13.216  1.00  0.00    -0.388 OA
HETATM   23  C   UNL     1     -43.840 -53.119  12.501  1.00  0.00     0.187 C 
HETATM   24  C   UNL     1     -43.659 -51.722  13.121  1.00  0.00     0.150 C 
ENDBRANCH   4  19
TORSDOF 5
ENDMDL
