MODEL 1
REMARK VINA RESULT:      -5.9      0.000      0.000
REMARK  3 active torsions:
REMARK  status: ('A' for Active; 'I' for Inactive)
REMARK    1  A    between atoms: C_2  and  C_3 
REMARK       I    between atoms: C_2  and  N_13 
REMARK    2  A    between atoms: C_3  and  N_4 
REMARK    3  A    between atoms: N_13  and  C_14 
ROOT
HETATM    1  N   UNL     1     -41.749 -49.381  11.771  1.00  0.00    -0.277 N 
HETATM    2  C   UNL     1     -40.627 -48.754  11.323  1.00  0.00     0.203 A 
HETATM    3  N   UNL     1     -40.952 -47.849  10.427  1.00  0.00    -0.327 N 
ATOM      4  HN  UNL     1     -40.339 -47.214   9.916  1.00  0.00     0.169 HD
HETATM    5  C   UNL     1     -42.317 -47.965  10.346  1.00  0.00     0.204 A 
HETATM    6  C   UNL     1     -43.128 -47.106   9.524  1.00  0.00     0.138 C 
HETATM    7  N   UNL     1     -43.792 -46.403   8.869  1.00  0.00    -0.188 NA
HETATM    8  N   UNL     1     -42.851 -48.891  11.155  1.00  0.00    -0.273 N 
ATOM      9  HN  UNL     1     -43.829 -49.155  11.275  1.00  0.00     0.189 HD
ENDROOT
BRANCH   1  10
HETATM   10  C   UNL     1     -41.929 -50.305  12.875  1.00  0.00     0.252 C 
BRANCH  10  11
HETATM   11  C   UNL     1     -42.718 -51.556  12.550  1.00  0.00     0.237 C 
HETATM   12  O   UNL     1     -42.228 -52.492  11.929  1.00  0.00    -0.272 OA
HETATM   13  N   UNL     1     -44.024 -51.538  13.009  1.00  0.00    -0.355 N 
HETATM   14  H   UNL     1     -44.375 -50.663  13.380  1.00  0.00     0.162 HD
BRANCH  13  15
HETATM   15  C   UNL     1     -45.048 -52.528  12.652  1.00  0.00     0.084 C 
HETATM   16  C   UNL     1     -46.436 -51.871  12.695  1.00  0.00     0.025 C 
HETATM   17  C   UNL     1     -46.820 -51.442  14.113  1.00  0.00     0.002 C 
HETATM   18  C   UNL     1     -46.646 -52.540  15.163  1.00  0.00     0.000 C 
HETATM   19  C   UNL     1     -45.394 -53.404  15.005  1.00  0.00     0.002 C 
HETATM   20  C   UNL     1     -45.088 -53.765  13.556  1.00  0.00     0.025 C 
ENDBRANCH  13  15
ENDBRANCH  10  11
ENDBRANCH   1  10
TORSDOF 3
ENDMDL
MODEL 2
REMARK VINA RESULT:      -5.8      2.000      2.974
REMARK  3 active torsions:
REMARK  status: ('A' for Active; 'I' for Inactive)
REMARK    1  A    between atoms: C_2  and  C_3 
REMARK       I    between atoms: C_2  and  N_13 
REMARK    2  A    between atoms: C_3  and  N_4 
REMARK    3  A    between atoms: N_13  and  C_14 
ROOT
HETATM    1  N   UNL     1     -42.941 -47.686  10.619  1.00  0.00    -0.277 N 
HETATM    2  C   UNL     1     -42.788 -46.396  10.210  1.00  0.00     0.203 A 
HETATM    3  N   UNL     1     -43.884 -45.988   9.609  1.00  0.00    -0.327 N 
ATOM      4  HN  UNL     1     -44.080 -45.074   9.202  1.00  0.00     0.169 HD
HETATM    5  C   UNL     1     -44.699 -47.090   9.663  1.00  0.00     0.204 A 
HETATM    6  C   UNL     1     -46.055 -47.085   9.179  1.00  0.00     0.138 C 
HETATM    7  N   UNL     1     -47.160 -47.082   8.800  1.00  0.00    -0.188 NA
HETATM    8  N   UNL     1     -44.165 -48.155  10.276  1.00  0.00    -0.273 N 
ATOM      9  HN  UNL     1     -44.572 -49.076  10.441  1.00  0.00     0.189 HD
ENDROOT
BRANCH   1  10
HETATM   10  C   UNL     1     -42.102 -48.504  11.475  1.00  0.00     0.252 C 
BRANCH  10  11
HETATM   11  C   UNL     1     -42.771 -49.022  12.730  1.00  0.00     0.237 C 
HETATM   12  O   UNL     1     -42.998 -48.299  13.694  1.00  0.00    -0.272 OA
HETATM   13  N   UNL     1     -43.090 -50.369  12.688  1.00  0.00    -0.355 N 
HETATM   14  H   UNL     1     -42.730 -50.908  11.910  1.00  0.00     0.162 HD
BRANCH  13  15
HETATM   15  C   UNL     1     -43.551 -51.154  13.840  1.00  0.00     0.084 C 
HETATM   16  C   UNL     1     -43.261 -52.643  13.598  1.00  0.00     0.025 C 
HETATM   17  C   UNL     1     -44.075 -53.199  12.426  1.00  0.00     0.002 C 
HETATM   18  C   UNL     1     -45.570 -52.886  12.502  1.00  0.00     0.000 C 
HETATM   19  C   UNL     1     -45.919 -51.482  12.998  1.00  0.00     0.002 C 
HETATM   20  C   UNL     1     -45.045 -51.014  14.155  1.00  0.00     0.025 C 
ENDBRANCH  13  15
ENDBRANCH  10  11
ENDBRANCH   1  10
TORSDOF 3
ENDMDL
MODEL 3
REMARK VINA RESULT:      -5.7      2.332      6.203
REMARK  3 active torsions:
REMARK  status: ('A' for Active; 'I' for Inactive)
REMARK    1  A    between atoms: C_2  and  C_3 
REMARK       I    between atoms: C_2  and  N_13 
REMARK    2  A    between atoms: C_3  and  N_4 
REMARK    3  A    between atoms: N_13  and  C_14 
ROOT
HETATM    1  N   UNL     1     -41.504 -51.866  12.108  1.00  0.00    -0.277 N 
HETATM    2  C   UNL     1     -40.863 -53.055  12.279  1.00  0.00     0.203 A 
HETATM    3  N   UNL     1     -41.736 -53.990  12.585  1.00  0.00    -0.327 N 
ATOM      4  HN  UNL     1     -41.567 -54.979  12.766  1.00  0.00     0.169 HD
HETATM    5  C   UNL     1     -42.928 -53.312  12.602  1.00  0.00     0.204 A 
HETATM    6  C   UNL     1     -44.193 -53.959  12.827  1.00  0.00     0.138 C 
HETATM    7  N   UNL     1     -45.224 -54.482  12.996  1.00  0.00    -0.188 NA
HETATM    8  N   UNL     1     -42.836 -52.006  12.312  1.00  0.00    -0.273 N 
ATOM      9  HN  UNL     1     -43.574 -51.304  12.259  1.00  0.00     0.189 HD
ENDROOT
BRANCH   1  10
HETATM   10  C   UNL     1     -41.014 -50.603  11.590  1.00  0.00     0.252 C 
BRANCH  10  11
HETATM   11  C   UNL     1     -41.787 -49.379  12.032  1.00  0.00     0.237 C 
HETATM   12  O   UNL     1     -41.768 -48.980  13.191  1.00  0.00    -0.272 OA
HETATM   13  N   UNL     1     -42.508 -48.768  11.021  1.00  0.00    -0.355 N 
HETATM   14  H   UNL     1     -42.575 -49.257  10.136  1.00  0.00     0.162 HD
BRANCH  13  15
HETATM   15  C   UNL     1     -43.493 -47.698  11.227  1.00  0.00     0.084 C 
HETATM   16  C   UNL     1     -44.558 -47.759  10.121  1.00  0.00     0.025 C 
HETATM   17  C   UNL     1     -43.967 -47.452   8.743  1.00  0.00     0.002 C 
HETATM   18  C   UNL     1     -43.129 -46.174   8.696  1.00  0.00     0.000 C 
HETATM   19  C   UNL     1     -42.236 -45.932   9.913  1.00  0.00     0.002 C 
HETATM   20  C   UNL     1     -42.909 -46.281  11.236  1.00  0.00     0.025 C 
ENDBRANCH  13  15
ENDBRANCH  10  11
ENDBRANCH   1  10
TORSDOF 3
ENDMDL
MODEL 4
REMARK VINA RESULT:      -5.7      1.480      1.994
REMARK  3 active torsions:
REMARK  status: ('A' for Active; 'I' for Inactive)
REMARK    1  A    between atoms: C_2  and  C_3 
REMARK       I    between atoms: C_2  and  N_13 
REMARK    2  A    between atoms: C_3  and  N_4 
REMARK    3  A    between atoms: N_13  and  C_14 
ROOT
HETATM    1  N   UNL     1     -41.493 -49.021  11.297  1.00  0.00    -0.277 N 
HETATM    2  C   UNL     1     -40.435 -48.166  11.237  1.00  0.00     0.203 A 
HETATM    3  N   UNL     1     -40.767 -47.096  10.548  1.00  0.00    -0.327 N 
ATOM      4  HN  UNL     1     -40.197 -46.278  10.335  1.00  0.00     0.169 HD
HETATM    5  C   UNL     1     -42.066 -47.348  10.186  1.00  0.00     0.204 A 
HETATM    6  C   UNL     1     -42.876 -46.402   9.465  1.00  0.00     0.138 C 
HETATM    7  N   UNL     1     -43.541 -45.632   8.892  1.00  0.00    -0.188 NA
HETATM    8  N   UNL     1     -42.556 -48.516  10.627  1.00  0.00    -0.273 N 
ATOM      9  HN  UNL     1     -43.483 -48.919  10.491  1.00  0.00     0.189 HD
ENDROOT
BRANCH   1  10
HETATM   10  C   UNL     1     -41.681 -50.225  12.085  1.00  0.00     0.252 C 
BRANCH  10  11
HETATM   11  C   UNL     1     -42.977 -50.291  12.865  1.00  0.00     0.237 C 
HETATM   12  O   UNL     1     -43.417 -49.326  13.480  1.00  0.00    -0.272 OA
HETATM   13  N   UNL     1     -43.603 -51.525  12.822  1.00  0.00    -0.355 N 
HETATM   14  H   UNL     1     -43.087 -52.294  12.411  1.00  0.00     0.162 HD
BRANCH  13  15
HETATM   15  C   UNL     1     -44.751 -51.908  13.652  1.00  0.00     0.084 C 
HETATM   16  C   UNL     1     -44.270 -52.246  15.072  1.00  0.00     0.025 C 
HETATM   17  C   UNL     1     -43.375 -53.487  15.090  1.00  0.00     0.002 C 
HETATM   18  C   UNL     1     -43.966 -54.692  14.357  1.00  0.00     0.000 C 
HETATM   19  C   UNL     1     -44.695 -54.370  13.052  1.00  0.00     0.002 C 
HETATM   20  C   UNL     1     -45.548 -53.109  13.131  1.00  0.00     0.025 C 
ENDBRANCH  13  15
ENDBRANCH  10  11
ENDBRANCH   1  10
TORSDOF 3
ENDMDL
MODEL 5
REMARK VINA RESULT:      -5.6      1.829      2.389
REMARK  3 active torsions:
REMARK  status: ('A' for Active; 'I' for Inactive)
REMARK    1  A    between atoms: C_2  and  C_3 
REMARK       I    between atoms: C_2  and  N_13 
REMARK    2  A    between atoms: C_3  and  N_4 
REMARK    3  A    between atoms: N_13  and  C_14 
ROOT
HETATM    1  N   UNL     1     -42.503 -48.425  12.208  1.00  0.00    -0.277 N 
HETATM    2  C   UNL     1     -43.039 -47.184  12.373  1.00  0.00     0.203 A 
HETATM    3  N   UNL     1     -43.392 -46.694  11.205  1.00  0.00    -0.327 N 
ATOM      4  HN  UNL     1     -43.826 -45.794  11.001  1.00  0.00     0.169 HD
HETATM    5  C   UNL     1     -43.035 -47.687  10.329  1.00  0.00     0.204 A 
HETATM    6  C   UNL     1     -43.301 -47.618   8.916  1.00  0.00     0.138 C 
HETATM    7  N   UNL     1     -43.527 -47.572   7.771  1.00  0.00    -0.188 NA
HETATM    8  N   UNL     1     -42.488 -48.771  10.899  1.00  0.00    -0.273 N 
ATOM      9  HN  UNL     1     -42.150 -49.628  10.462  1.00  0.00     0.189 HD
ENDROOT
BRANCH   1  10
HETATM   10  C   UNL     1     -42.145 -49.429  13.192  1.00  0.00     0.252 C 
BRANCH  10  11
HETATM   11  C   UNL     1     -41.803 -50.793  12.629  1.00  0.00     0.237 C 
HETATM   12  O   UNL     1     -40.850 -50.968  11.878  1.00  0.00    -0.272 OA
HETATM   13  N   UNL     1     -42.658 -51.804  13.033  1.00  0.00    -0.355 N 
HETATM   14  H   UNL     1     -43.497 -51.532  13.533  1.00  0.00     0.162 HD
BRANCH  13  15
HETATM   15  C   UNL     1     -42.670 -53.161  12.473  1.00  0.00     0.084 C 
HETATM   16  C   UNL     1     -44.086 -53.748  12.576  1.00  0.00     0.025 C 
HETATM   17  C   UNL     1     -44.516 -53.949  14.031  1.00  0.00     0.002 C 
HETATM   18  C   UNL     1     -43.493 -54.701  14.884  1.00  0.00     0.000 C 
HETATM   19  C   UNL     1     -42.031 -54.335  14.627  1.00  0.00     0.002 C 
HETATM   20  C   UNL     1     -41.706 -54.143  13.150  1.00  0.00     0.025 C 
ENDBRANCH  13  15
ENDBRANCH  10  11
ENDBRANCH   1  10
TORSDOF 3
ENDMDL
MODEL 6
REMARK VINA RESULT:      -5.5      2.775      4.064
REMARK  3 active torsions:
REMARK  status: ('A' for Active; 'I' for Inactive)
REMARK    1  A    between atoms: C_2  and  C_3 
REMARK       I    between atoms: C_2  and  N_13 
REMARK    2  A    between atoms: C_3  and  N_4 
REMARK    3  A    between atoms: N_13  and  C_14 
ROOT
HETATM    1  N   UNL     1     -41.389 -53.291  13.969  1.00  0.00    -0.277 N 
HETATM    2  C   UNL     1     -41.066 -54.032  12.874  1.00  0.00     0.203 A 
HETATM    3  N   UNL     1     -40.737 -53.237  11.880  1.00  0.00    -0.327 N 
ATOM      4  HN  UNL     1     -40.442 -53.489  10.937  1.00  0.00     0.169 HD
HETATM    5  C   UNL     1     -40.886 -51.984  12.420  1.00  0.00     0.204 A 
HETATM    6  C   UNL     1     -40.563 -50.779  11.703  1.00  0.00     0.138 C 
HETATM    7  N   UNL     1     -40.289 -49.799  11.130  1.00  0.00    -0.188 NA
HETATM    8  N   UNL     1     -41.282 -51.968  13.701  1.00  0.00    -0.273 N 
ATOM      9  HN  UNL     1     -41.456 -51.170  14.312  1.00  0.00     0.189 HD
ENDROOT
BRANCH   1  10
HETATM   10  C   UNL     1     -41.632 -53.701  15.340  1.00  0.00     0.252 C 
BRANCH  10  11
HETATM   11  C   UNL     1     -43.027 -54.218  15.622  1.00  0.00     0.237 C 
HETATM   12  O   UNL     1     -43.223 -55.283  16.198  1.00  0.00    -0.272 OA
HETATM   13  N   UNL     1     -44.041 -53.392  15.169  1.00  0.00    -0.355 N 
HETATM   14  H   UNL     1     -43.777 -52.612  14.579  1.00  0.00     0.162 HD
BRANCH  13  15
HETATM   15  C   UNL     1     -45.463 -53.757  15.134  1.00  0.00     0.084 C 
HETATM   16  C   UNL     1     -45.886 -54.038  13.684  1.00  0.00     0.025 C 
HETATM   17  C   UNL     1     -45.810 -52.781  12.814  1.00  0.00     0.002 C 
HETATM   18  C   UNL     1     -46.512 -51.564  13.417  1.00  0.00     0.000 C 
HETATM   19  C   UNL     1     -46.334 -51.387  14.925  1.00  0.00     0.002 C 
HETATM   20  C   UNL     1     -46.413 -52.696  15.701  1.00  0.00     0.025 C 
ENDBRANCH  13  15
ENDBRANCH  10  11
ENDBRANCH   1  10
TORSDOF 3
ENDMDL
MODEL 7
REMARK VINA RESULT:      -5.4      4.244      5.677
REMARK  3 active torsions:
REMARK  status: ('A' for Active; 'I' for Inactive)
REMARK    1  A    between atoms: C_2  and  C_3 
REMARK       I    between atoms: C_2  and  N_13 
REMARK    2  A    between atoms: C_3  and  N_4 
REMARK    3  A    between atoms: N_13  and  C_14 
ROOT
HETATM    1  N   UNL     1     -43.139 -46.726   9.793  1.00  0.00    -0.277 N 
HETATM    2  C   UNL     1     -43.816 -45.627   9.360  1.00  0.00     0.203 A 
HETATM    3  N   UNL     1     -44.928 -45.996   8.763  1.00  0.00    -0.327 N 
ATOM      4  HN  UNL     1     -45.646 -45.408   8.341  1.00  0.00     0.169 HD
HETATM    5  C   UNL     1     -44.886 -47.365   8.844  1.00  0.00     0.204 A 
HETATM    6  C   UNL     1     -45.952 -48.210   8.374  1.00  0.00     0.138 C 
HETATM    7  N   UNL     1     -46.820 -48.899   8.006  1.00  0.00    -0.188 NA
HETATM    8  N   UNL     1     -43.809 -47.858   9.472  1.00  0.00    -0.273 N 
ATOM      9  HN  UNL     1     -43.559 -48.830   9.657  1.00  0.00     0.189 HD
ENDROOT
BRANCH   1  10
HETATM   10  C   UNL     1     -41.977 -46.831  10.656  1.00  0.00     0.252 C 
BRANCH  10  11
HETATM   11  C   UNL     1     -41.969 -48.025  11.586  1.00  0.00     0.237 C 
HETATM   12  O   UNL     1     -42.976 -48.395  12.180  1.00  0.00    -0.272 OA
HETATM   13  N   UNL     1     -40.737 -48.644  11.704  1.00  0.00    -0.355 N 
HETATM   14  H   UNL     1     -39.940 -48.176  11.290  1.00  0.00     0.162 HD
BRANCH  13  15
HETATM   15  C   UNL     1     -40.416 -49.684  12.690  1.00  0.00     0.084 C 
HETATM   16  C   UNL     1     -39.812 -49.036  13.945  1.00  0.00     0.025 C 
HETATM   17  C   UNL     1     -38.461 -48.378  13.653  1.00  0.00     0.002 C 
HETATM   18  C   UNL     1     -37.474 -49.284  12.915  1.00  0.00     0.000 C 
HETATM   19  C   UNL     1     -38.083 -50.157  11.817  1.00  0.00     0.002 C 
HETATM   20  C   UNL     1     -39.434 -50.754  12.198  1.00  0.00     0.025 C 
ENDBRANCH  13  15
ENDBRANCH  10  11
ENDBRANCH   1  10
TORSDOF 3
ENDMDL
MODEL 8
REMARK VINA RESULT:      -5.4      2.797      3.521
REMARK  3 active torsions:
REMARK  status: ('A' for Active; 'I' for Inactive)
REMARK    1  A    between atoms: C_2  and  C_3 
REMARK       I    between atoms: C_2  and  N_13 
REMARK    2  A    between atoms: C_3  and  N_4 
REMARK    3  A    between atoms: N_13  and  C_14 
ROOT
HETATM    1  N   UNL     1     -40.960 -51.720  13.417  1.00  0.00    -0.277 N 
HETATM    2  C   UNL     1     -41.528 -51.574  12.189  1.00  0.00     0.203 A 
HETATM    3  N   UNL     1     -40.679 -50.989  11.373  1.00  0.00    -0.327 N 
ATOM      4  HN  UNL     1     -40.808 -50.750  10.390  1.00  0.00     0.169 HD
HETATM    5  C   UNL     1     -39.579 -50.778  12.165  1.00  0.00     0.204 A 
HETATM    6  C   UNL     1     -38.353 -50.214  11.668  1.00  0.00     0.138 C 
HETATM    7  N   UNL     1     -37.350 -49.768  11.265  1.00  0.00    -0.188 NA
HETATM    8  N   UNL     1     -39.704 -51.214  13.427  1.00  0.00    -0.273 N 
ATOM      9  HN  UNL     1     -39.030 -51.174  14.193  1.00  0.00     0.189 HD
ENDROOT
BRANCH   1  10
HETATM   10  C   UNL     1     -41.415 -52.461  14.579  1.00  0.00     0.252 C 
BRANCH  10  11
HETATM   11  C   UNL     1     -42.526 -53.455  14.316  1.00  0.00     0.237 C 
HETATM   12  O   UNL     1     -42.313 -54.552  13.810  1.00  0.00    -0.272 OA
HETATM   13  N   UNL     1     -43.783 -53.014  14.691  1.00  0.00    -0.355 N 
HETATM   14  H   UNL     1     -43.873 -52.042  14.962  1.00  0.00     0.162 HD
BRANCH  13  15
HETATM   15  C   UNL     1     -45.041 -53.695  14.359  1.00  0.00     0.084 C 
HETATM   16  C   UNL     1     -45.552 -53.198  12.998  1.00  0.00     0.025 C 
HETATM   17  C   UNL     1     -45.937 -51.717  13.040  1.00  0.00     0.002 C 
HETATM   18  C   UNL     1     -46.866 -51.348  14.198  1.00  0.00     0.000 C 
HETATM   19  C   UNL     1     -46.553 -52.031  15.529  1.00  0.00     0.002 C 
HETATM   20  C   UNL     1     -46.167 -53.498  15.381  1.00  0.00     0.025 C 
ENDBRANCH  13  15
ENDBRANCH  10  11
ENDBRANCH   1  10
TORSDOF 3
ENDMDL
MODEL 9
REMARK VINA RESULT:      -5.3      2.092      2.782
REMARK  3 active torsions:
REMARK  status: ('A' for Active; 'I' for Inactive)
REMARK    1  A    between atoms: C_2  and  C_3 
REMARK       I    between atoms: C_2  and  N_13 
REMARK    2  A    between atoms: C_3  and  N_4 
REMARK    3  A    between atoms: N_13  and  C_14 
ROOT
HETATM    1  N   UNL     1     -42.050 -48.084  11.061  1.00  0.00    -0.277 N 
HETATM    2  C   UNL     1     -42.555 -47.802   9.828  1.00  0.00     0.203 A 
HETATM    3  N   UNL     1     -42.191 -46.592   9.465  1.00  0.00    -0.327 N 
ATOM      4  HN  UNL     1     -42.404 -46.100   8.598  1.00  0.00     0.169 HD
HETATM    5  C   UNL     1     -41.456 -46.152  10.536  1.00  0.00     0.204 A 
HETATM    6  C   UNL     1     -40.786 -44.879  10.556  1.00  0.00     0.138 C 
HETATM    7  N   UNL     1     -40.229 -43.852  10.572  1.00  0.00    -0.188 NA
HETATM    8  N   UNL     1     -41.339 -47.035  11.538  1.00  0.00    -0.273 N 
ATOM      9  HN  UNL     1     -40.845 -46.942  12.426  1.00  0.00     0.189 HD
ENDROOT
BRANCH   1  10
HETATM   10  C   UNL     1     -42.017 -49.334  11.796  1.00  0.00     0.252 C 
BRANCH  10  11
HETATM   11  C   UNL     1     -42.989 -49.430  12.952  1.00  0.00     0.237 C 
HETATM   12  O   UNL     1     -43.016 -48.598  13.852  1.00  0.00    -0.272 OA
HETATM   13  N   UNL     1     -43.827 -50.531  12.899  1.00  0.00    -0.355 N 
HETATM   14  H   UNL     1     -43.627 -51.234  12.197  1.00  0.00     0.162 HD
BRANCH  13  15
HETATM   15  C   UNL     1     -44.709 -50.962  13.990  1.00  0.00     0.084 C 
HETATM   16  C   UNL     1     -44.063 -52.137  14.741  1.00  0.00     0.025 C 
HETATM   17  C   UNL     1     -43.941 -53.380  13.856  1.00  0.00     0.002 C 
HETATM   18  C   UNL     1     -45.237 -53.767  13.143  1.00  0.00     0.000 C 
HETATM   19  C   UNL     1     -46.059 -52.597  12.602  1.00  0.00     0.002 C 
HETATM   20  C   UNL     1     -46.109 -51.403  13.548  1.00  0.00     0.025 C 
ENDBRANCH  13  15
ENDBRANCH  10  11
ENDBRANCH   1  10
TORSDOF 3
ENDMDL
