MODEL 1
REMARK VINA RESULT:      -6.1      0.000      0.000
REMARK  4 active torsions:
REMARK  status: ('A' for Active; 'I' for Inactive)
REMARK    1  A    between atoms: C_5  and  N_6 
REMARK       I    between atoms: N_6  and  C_7 
REMARK       I    between atoms: C_7  and  N_9 
REMARK    2  A    between atoms: N_9  and  C_10 
REMARK    3  A    between atoms: C_10  and  C_11 
REMARK    4  A    between atoms: C_11  and  C_14 
ROOT
HETATM    1  N   UNL     1     -40.404 -50.982  11.295  1.00  0.00    -0.295 N 
HETATM    2  C   UNL     1     -40.958 -51.902  12.139  1.00  0.00     0.321 C 
HETATM    3  O   UNL     1     -40.609 -53.079  12.062  1.00  0.00    -0.247 OA
HETATM    4  N   UNL     1     -41.893 -51.449  13.006  1.00  0.00    -0.342 N 
HETATM    5  H   UNL     1     -39.742 -51.391  10.653  1.00  0.00     0.172 HD
HETATM    6  H   UNL     1     -42.002 -50.439  13.049  1.00  0.00     0.164 HD
ENDROOT
BRANCH   1   7
HETATM    7  C   UNL     1     -40.661 -49.610  11.208  1.00  0.00     0.108 A 
HETATM    8  C   UNL     1     -39.731 -48.734  11.766  1.00  0.00     0.052 A 
HETATM    9  C   UNL     1     -39.951 -47.359  11.665  1.00  0.00     0.047 A 
HETATM   10  C   UNL     1     -41.091 -46.907  11.021  1.00  0.00     0.131 A 
HETATM   11  F   UNL     1     -41.328 -45.596  10.897  1.00  0.00    -0.205 F 
HETATM   12  C   UNL     1     -41.974 -47.835  10.504  1.00  0.00     0.132 A 
HETATM   13  N   UNL     1     -41.784 -49.173  10.590  1.00  0.00    -0.349 N 
ATOM     14  HN  UNL     1     -42.462 -49.829  10.204  1.00  0.00     0.167 HD
ENDBRANCH   1   7
BRANCH   4  15
HETATM   15  C   UNL     1     -42.555 -52.261  13.991  1.00  0.00     0.134 C 
BRANCH  15  16
HETATM   16  C   UNL     1     -43.939 -52.657  13.489  1.00  0.00    -0.021 A 
HETATM   17  C   UNL     1     -44.427 -54.068  13.797  1.00  0.00     0.012 A 
HETATM   18  C   UNL     1     -43.972 -53.734  12.413  1.00  0.00     0.012 A 
BRANCH  16  19
HETATM   19  C   UNL     1     -44.915 -51.464  13.394  1.00  0.00    -0.004 A 
HETATM   20  C   UNL     1     -46.099 -51.353  14.329  1.00  0.00     0.006 A 
HETATM   21  C   UNL     1     -46.327 -51.508  12.859  1.00  0.00     0.006 A 
ENDBRANCH  16  19
ENDBRANCH  15  16
ENDBRANCH   4  15
TORSDOF 4
ENDMDL
MODEL 2
REMARK VINA RESULT:      -5.8      3.181      4.209
REMARK  4 active torsions:
REMARK  status: ('A' for Active; 'I' for Inactive)
REMARK    1  A    between atoms: C_5  and  N_6 
REMARK       I    between atoms: N_6  and  C_7 
REMARK       I    between atoms: C_7  and  N_9 
REMARK    2  A    between atoms: N_9  and  C_10 
REMARK    3  A    between atoms: C_10  and  C_11 
REMARK    4  A    between atoms: C_11  and  C_14 
ROOT
HETATM    1  N   UNL     1     -42.386 -54.578  14.159  1.00  0.00    -0.295 N 
HETATM    2  C   UNL     1     -43.737 -54.653  14.341  1.00  0.00     0.321 C 
HETATM    3  O   UNL     1     -44.224 -55.665  14.842  1.00  0.00    -0.247 OA
HETATM    4  N   UNL     1     -44.469 -53.592  13.926  1.00  0.00    -0.342 N 
HETATM    5  H   UNL     1     -41.906 -55.413  14.457  1.00  0.00     0.172 HD
HETATM    6  H   UNL     1     -43.936 -52.774  13.641  1.00  0.00     0.164 HD
ENDROOT
BRANCH   1   7
HETATM    7  C   UNL     1     -41.636 -53.536  13.606  1.00  0.00     0.108 A 
HETATM    8  C   UNL     1     -40.876 -52.748  14.470  1.00  0.00     0.052 A 
HETATM    9  C   UNL     1     -40.095 -51.721  13.937  1.00  0.00     0.047 A 
HETATM   10  C   UNL     1     -40.106 -51.509  12.568  1.00  0.00     0.131 A 
HETATM   11  F   UNL     1     -39.361 -50.540  12.023  1.00  0.00    -0.205 F 
HETATM   12  C   UNL     1     -40.893 -52.322  11.777  1.00  0.00     0.132 A 
HETATM   13  N   UNL     1     -41.660 -53.324  12.269  1.00  0.00    -0.349 N 
ATOM     14  HN  UNL     1     -42.236 -53.899  11.654  1.00  0.00     0.167 HD
ENDBRANCH   1   7
BRANCH   4  15
HETATM   15  C   UNL     1     -45.895 -53.477  14.071  1.00  0.00     0.134 C 
BRANCH  15  16
HETATM   16  C   UNL     1     -46.320 -52.028  13.863  1.00  0.00    -0.021 A 
HETATM   17  C   UNL     1     -46.729 -51.606  12.457  1.00  0.00     0.012 A 
HETATM   18  C   UNL     1     -45.399 -51.185  12.992  1.00  0.00     0.012 A 
BRANCH  16  19
HETATM   19  C   UNL     1     -46.961 -51.397  15.118  1.00  0.00    -0.004 A 
HETATM   20  C   UNL     1     -46.105 -50.924  16.272  1.00  0.00     0.006 A 
HETATM   21  C   UNL     1     -47.078 -52.041  16.479  1.00  0.00     0.006 A 
ENDBRANCH  16  19
ENDBRANCH  15  16
ENDBRANCH   4  15
TORSDOF 4
ENDMDL
MODEL 3
REMARK VINA RESULT:      -5.7      2.478      3.581
REMARK  4 active torsions:
REMARK  status: ('A' for Active; 'I' for Inactive)
REMARK    1  A    between atoms: C_5  and  N_6 
REMARK       I    between atoms: N_6  and  C_7 
REMARK       I    between atoms: C_7  and  N_9 
REMARK    2  A    between atoms: N_9  and  C_10 
REMARK    3  A    between atoms: C_10  and  C_11 
REMARK    4  A    between atoms: C_11  and  C_14 
ROOT
HETATM    1  N   UNL     1     -42.366 -53.190  12.155  1.00  0.00    -0.295 N 
HETATM    2  C   UNL     1     -43.690 -52.978  12.414  1.00  0.00     0.321 C 
HETATM    3  O   UNL     1     -44.496 -53.887  12.220  1.00  0.00    -0.247 OA
HETATM    4  N   UNL     1     -44.037 -51.746  12.854  1.00  0.00    -0.342 N 
HETATM    5  H   UNL     1     -42.181 -54.115  11.799  1.00  0.00     0.172 HD
HETATM    6  H   UNL     1     -43.264 -51.127  13.085  1.00  0.00     0.164 HD
ENDROOT
BRANCH   1   7
HETATM    7  C   UNL     1     -41.296 -52.301  12.296  1.00  0.00     0.108 A 
HETATM    8  C   UNL     1     -40.483 -52.429  13.422  1.00  0.00     0.052 A 
HETATM    9  C   UNL     1     -39.391 -51.573  13.569  1.00  0.00     0.047 A 
HETATM   10  C   UNL     1     -39.152 -50.615  12.596  1.00  0.00     0.131 A 
HETATM   11  F   UNL     1     -38.108 -49.785  12.700  1.00  0.00    -0.205 F 
HETATM   12  C   UNL     1     -40.007 -50.540  11.515  1.00  0.00     0.132 A 
HETATM   13  N   UNL     1     -41.074 -51.358  11.350  1.00  0.00    -0.349 N 
ATOM     14  HN  UNL     1     -41.690 -51.266  10.543  1.00  0.00     0.167 HD
ENDBRANCH   1   7
BRANCH   4  15
HETATM   15  C   UNL     1     -45.373 -51.353  13.212  1.00  0.00     0.134 C 
BRANCH  15  16
HETATM   16  C   UNL     1     -45.605 -51.605  14.697  1.00  0.00    -0.021 A 
HETATM   17  C   UNL     1     -46.471 -52.799  15.085  1.00  0.00     0.012 A 
HETATM   18  C   UNL     1     -47.035 -51.418  15.186  1.00  0.00     0.012 A 
BRANCH  16  19
HETATM   19  C   UNL     1     -44.434 -51.130  15.585  1.00  0.00    -0.004 A 
HETATM   20  C   UNL     1     -44.647 -50.084  16.657  1.00  0.00     0.006 A 
HETATM   21  C   UNL     1     -43.741 -49.791  15.504  1.00  0.00     0.006 A 
ENDBRANCH  16  19
ENDBRANCH  15  16
ENDBRANCH   4  15
TORSDOF 4
ENDMDL
MODEL 4
REMARK VINA RESULT:      -5.7      2.364      5.558
REMARK  4 active torsions:
REMARK  status: ('A' for Active; 'I' for Inactive)
REMARK    1  A    between atoms: C_5  and  N_6 
REMARK       I    between atoms: N_6  and  C_7 
REMARK       I    between atoms: C_7  and  N_9 
REMARK    2  A    between atoms: N_9  and  C_10 
REMARK    3  A    between atoms: C_10  and  C_11 
REMARK    4  A    between atoms: C_11  and  C_14 
ROOT
HETATM    1  N   UNL     1     -42.215 -52.675  12.906  1.00  0.00    -0.295 N 
HETATM    2  C   UNL     1     -41.262 -51.994  12.205  1.00  0.00     0.321 C 
HETATM    3  O   UNL     1     -40.155 -52.503  12.039  1.00  0.00    -0.247 OA
HETATM    4  N   UNL     1     -41.600 -50.765  11.750  1.00  0.00    -0.342 N 
HETATM    5  H   UNL     1     -41.887 -53.567  13.245  1.00  0.00     0.172 HD
HETATM    6  H   UNL     1     -42.580 -50.512  11.851  1.00  0.00     0.164 HD
ENDROOT
BRANCH   1   7
HETATM    7  C   UNL     1     -43.520 -52.281  13.215  1.00  0.00     0.108 A 
HETATM    8  C   UNL     1     -43.716 -51.504  14.357  1.00  0.00     0.052 A 
HETATM    9  C   UNL     1     -45.006 -51.073  14.669  1.00  0.00     0.047 A 
HETATM   10  C   UNL     1     -46.055 -51.438  13.840  1.00  0.00     0.131 A 
HETATM   11  F   UNL     1     -47.303 -51.033  14.104  1.00  0.00    -0.205 F 
HETATM   12  C   UNL     1     -45.787 -52.219  12.734  1.00  0.00     0.132 A 
HETATM   13  N   UNL     1     -44.544 -52.651  12.410  1.00  0.00    -0.349 N 
ATOM     14  HN  UNL     1     -44.386 -53.234  11.589  1.00  0.00     0.167 HD
ENDBRANCH   1   7
BRANCH   4  15
HETATM   15  C   UNL     1     -40.742 -49.921  10.963  1.00  0.00     0.134 C 
BRANCH  15  16
HETATM   16  C   UNL     1     -40.662 -48.535  11.594  1.00  0.00    -0.021 A 
HETATM   17  C   UNL     1     -39.339 -48.122  12.228  1.00  0.00     0.012 A 
HETATM   18  C   UNL     1     -40.486 -48.504  13.106  1.00  0.00     0.012 A 
BRANCH  16  19
HETATM   19  C   UNL     1     -41.594 -47.505  10.920  1.00  0.00    -0.004 A 
HETATM   20  C   UNL     1     -43.074 -47.476  11.233  1.00  0.00     0.006 A 
HETATM   21  C   UNL     1     -42.615 -47.796   9.845  1.00  0.00     0.006 A 
ENDBRANCH  16  19
ENDBRANCH  15  16
ENDBRANCH   4  15
TORSDOF 4
ENDMDL
MODEL 5
REMARK VINA RESULT:      -5.6      3.633      5.438
REMARK  4 active torsions:
REMARK  status: ('A' for Active; 'I' for Inactive)
REMARK    1  A    between atoms: C_5  and  N_6 
REMARK       I    between atoms: N_6  and  C_7 
REMARK       I    between atoms: C_7  and  N_9 
REMARK    2  A    between atoms: N_9  and  C_10 
REMARK    3  A    between atoms: C_10  and  C_11 
REMARK    4  A    between atoms: C_11  and  C_14 
ROOT
HETATM    1  N   UNL     1     -43.056 -51.028  12.517  1.00  0.00    -0.295 N 
HETATM    2  C   UNL     1     -42.034 -51.920  12.362  1.00  0.00     0.321 C 
HETATM    3  O   UNL     1     -41.071 -51.620  11.659  1.00  0.00    -0.247 OA
HETATM    4  N   UNL     1     -42.166 -53.114  12.988  1.00  0.00    -0.342 N 
HETATM    5  H   UNL     1     -42.910 -50.175  11.999  1.00  0.00     0.172 HD
HETATM    6  H   UNL     1     -42.950 -53.189  13.631  1.00  0.00     0.164 HD
ENDROOT
BRANCH   1   7
HETATM    7  C   UNL     1     -44.235 -51.169  13.256  1.00  0.00     0.108 A 
HETATM    8  C   UNL     1     -44.170 -50.970  14.635  1.00  0.00     0.052 A 
HETATM    9  C   UNL     1     -45.340 -51.076  15.389  1.00  0.00     0.047 A 
HETATM   10  C   UNL     1     -46.528 -51.384  14.746  1.00  0.00     0.131 A 
HETATM   11  F   UNL     1     -47.670 -51.484  15.437  1.00  0.00    -0.205 F 
HETATM   12  C   UNL     1     -46.512 -51.580  13.380  1.00  0.00     0.132 A 
HETATM   13  N   UNL     1     -45.390 -51.485  12.626  1.00  0.00    -0.349 N 
ATOM     14  HN  UNL     1     -45.416 -51.645  11.619  1.00  0.00     0.167 HD
ENDBRANCH   1   7
BRANCH   4  15
HETATM   15  C   UNL     1     -41.179 -54.158  12.969  1.00  0.00     0.134 C 
BRANCH  15  16
HETATM   16  C   UNL     1     -40.475 -54.229  14.320  1.00  0.00    -0.021 A 
HETATM   17  C   UNL     1     -39.167 -53.462  14.476  1.00  0.00     0.012 A 
HETATM   18  C   UNL     1     -39.133 -54.949  14.331  1.00  0.00     0.012 A 
BRANCH  16  19
HETATM   19  C   UNL     1     -41.448 -54.424  15.502  1.00  0.00    -0.004 A 
HETATM   20  C   UNL     1     -41.440 -55.702  16.312  1.00  0.00     0.006 A 
HETATM   21  C   UNL     1     -42.656 -55.331  15.523  1.00  0.00     0.006 A 
ENDBRANCH  16  19
ENDBRANCH  15  16
ENDBRANCH   4  15
TORSDOF 4
ENDMDL
MODEL 6
REMARK VINA RESULT:      -5.5      1.061      2.165
REMARK  4 active torsions:
REMARK  status: ('A' for Active; 'I' for Inactive)
REMARK    1  A    between atoms: C_5  and  N_6 
REMARK       I    between atoms: N_6  and  C_7 
REMARK       I    between atoms: C_7  and  N_9 
REMARK    2  A    between atoms: N_9  and  C_10 
REMARK    3  A    between atoms: C_10  and  C_11 
REMARK    4  A    between atoms: C_11  and  C_14 
ROOT
HETATM    1  N   UNL     1     -40.455 -50.873  11.521  1.00  0.00    -0.295 N 
HETATM    2  C   UNL     1     -41.220 -51.962  11.824  1.00  0.00     0.321 C 
HETATM    3  O   UNL     1     -40.706 -53.080  11.829  1.00  0.00    -0.247 OA
HETATM    4  N   UNL     1     -42.530 -51.736  12.081  1.00  0.00    -0.342 N 
HETATM    5  H   UNL     1     -39.499 -51.115  11.307  1.00  0.00     0.172 HD
HETATM    6  H   UNL     1     -42.800 -50.759  12.161  1.00  0.00     0.164 HD
ENDROOT
BRANCH   1   7
HETATM    7  C   UNL     1     -40.837 -49.530  11.450  1.00  0.00     0.108 A 
HETATM    8  C   UNL     1     -40.635 -48.733  12.576  1.00  0.00     0.052 A 
HETATM    9  C   UNL     1     -40.980 -47.381  12.519  1.00  0.00     0.047 A 
HETATM   10  C   UNL     1     -41.521 -46.875  11.348  1.00  0.00     0.131 A 
HETATM   11  F   UNL     1     -41.854 -45.582  11.255  1.00  0.00    -0.205 F 
HETATM   12  C   UNL     1     -41.704 -47.728  10.278  1.00  0.00     0.132 A 
HETATM   13  N   UNL     1     -41.378 -49.043  10.309  1.00  0.00    -0.349 N 
ATOM     14  HN  UNL     1     -41.535 -49.645   9.501  1.00  0.00     0.167 HD
ENDBRANCH   1   7
BRANCH   4  15
HETATM   15  C   UNL     1     -43.476 -52.752  12.453  1.00  0.00     0.134 C 
BRANCH  15  16
HETATM   16  C   UNL     1     -43.995 -52.484  13.862  1.00  0.00    -0.021 A 
HETATM   17  C   UNL     1     -45.379 -51.859  13.997  1.00  0.00     0.012 A 
HETATM   18  C   UNL     1     -44.168 -51.017  14.236  1.00  0.00     0.012 A 
BRANCH  16  19
HETATM   19  C   UNL     1     -43.445 -53.472  14.912  1.00  0.00    -0.004 A 
HETATM   20  C   UNL     1     -41.982 -53.459  15.299  1.00  0.00     0.006 A 
HETATM   21  C   UNL     1     -42.563 -54.667  14.635  1.00  0.00     0.006 A 
ENDBRANCH  16  19
ENDBRANCH  15  16
ENDBRANCH   4  15
TORSDOF 4
ENDMDL
MODEL 7
REMARK VINA RESULT:      -5.3      3.495      5.597
REMARK  4 active torsions:
REMARK  status: ('A' for Active; 'I' for Inactive)
REMARK    1  A    between atoms: C_5  and  N_6 
REMARK       I    between atoms: N_6  and  C_7 
REMARK       I    between atoms: C_7  and  N_9 
REMARK    2  A    between atoms: N_9  and  C_10 
REMARK    3  A    between atoms: C_10  and  C_11 
REMARK    4  A    between atoms: C_11  and  C_14 
ROOT
HETATM    1  N   UNL     1     -43.153 -50.395  12.563  1.00  0.00    -0.295 N 
HETATM    2  C   UNL     1     -41.989 -51.082  12.373  1.00  0.00     0.321 C 
HETATM    3  O   UNL     1     -41.103 -50.589  11.676  1.00  0.00    -0.247 OA
HETATM    4  N   UNL     1     -41.895 -52.299  12.958  1.00  0.00    -0.342 N 
HETATM    5  H   UNL     1     -43.170 -49.513  12.074  1.00  0.00     0.172 HD
HETATM    6  H   UNL     1     -42.645 -52.537  13.602  1.00  0.00     0.164 HD
ENDROOT
BRANCH   1   7
HETATM    7  C   UNL     1     -44.279 -50.772  13.302  1.00  0.00     0.108 A 
HETATM    8  C   UNL     1     -44.234 -50.615  14.687  1.00  0.00     0.052 A 
HETATM    9  C   UNL     1     -45.357 -50.956  15.443  1.00  0.00     0.047 A 
HETATM   10  C   UNL     1     -46.478 -51.449  14.795  1.00  0.00     0.131 A 
HETATM   11  F   UNL     1     -47.576 -51.776  15.488  1.00  0.00    -0.205 F 
HETATM   12  C   UNL     1     -46.444 -51.589  13.422  1.00  0.00     0.132 A 
HETATM   13  N   UNL     1     -45.367 -51.266  12.667  1.00  0.00    -0.349 N 
ATOM     14  HN  UNL     1     -45.375 -51.391  11.655  1.00  0.00     0.167 HD
ENDBRANCH   1   7
BRANCH   4  15
HETATM   15  C   UNL     1     -40.735 -53.146  12.898  1.00  0.00     0.134 C 
BRANCH  15  16
HETATM   16  C   UNL     1     -40.125 -53.285  14.289  1.00  0.00    -0.021 A 
HETATM   17  C   UNL     1     -40.293 -54.621  15.004  1.00  0.00     0.012 A 
HETATM   18  C   UNL     1     -41.115 -53.449  15.434  1.00  0.00     0.012 A 
BRANCH  16  19
HETATM   19  C   UNL     1     -38.871 -52.407  14.493  1.00  0.00    -0.004 A 
HETATM   20  C   UNL     1     -38.996 -50.918  14.730  1.00  0.00     0.006 A 
HETATM   21  C   UNL     1     -38.304 -51.419  13.501  1.00  0.00     0.006 A 
ENDBRANCH  16  19
ENDBRANCH  15  16
ENDBRANCH   4  15
TORSDOF 4
ENDMDL
MODEL 8
REMARK VINA RESULT:      -5.3      2.503      5.971
REMARK  4 active torsions:
REMARK  status: ('A' for Active; 'I' for Inactive)
REMARK    1  A    between atoms: C_5  and  N_6 
REMARK       I    between atoms: N_6  and  C_7 
REMARK       I    between atoms: C_7  and  N_9 
REMARK    2  A    between atoms: N_9  and  C_10 
REMARK    3  A    between atoms: C_10  and  C_11 
REMARK    4  A    between atoms: C_11  and  C_14 
ROOT
HETATM    1  N   UNL     1     -42.368 -52.865  12.833  1.00  0.00    -0.295 N 
HETATM    2  C   UNL     1     -41.356 -52.182  12.221  1.00  0.00     0.321 C 
HETATM    3  O   UNL     1     -40.292 -52.754  11.994  1.00  0.00    -0.247 OA
HETATM    4  N   UNL     1     -41.591 -50.882  11.923  1.00  0.00    -0.342 N 
HETATM    5  H   UNL     1     -42.116 -53.816  13.059  1.00  0.00     0.172 HD
HETATM    6  H   UNL     1     -42.548 -50.566  12.054  1.00  0.00     0.164 HD
ENDROOT
BRANCH   1   7
HETATM    7  C   UNL     1     -43.641 -52.408  13.188  1.00  0.00     0.108 A 
HETATM    8  C   UNL     1     -43.778 -51.737  14.403  1.00  0.00     0.052 A 
HETATM    9  C   UNL     1     -45.034 -51.245  14.765  1.00  0.00     0.047 A 
HETATM   10  C   UNL     1     -46.106 -51.445  13.911  1.00  0.00     0.131 A 
HETATM   11  F   UNL     1     -47.321 -50.978  14.223  1.00  0.00    -0.205 F 
HETATM   12  C   UNL     1     -45.896 -52.130  12.731  1.00  0.00     0.132 A 
HETATM   13  N   UNL     1     -44.689 -52.618  12.357  1.00  0.00    -0.349 N 
ATOM     14  HN  UNL     1     -44.573 -53.126  11.481  1.00  0.00     0.167 HD
ENDBRANCH   1   7
BRANCH   4  15
HETATM   15  C   UNL     1     -40.660 -50.020  11.247  1.00  0.00     0.134 C 
BRANCH  15  16
HETATM   16  C   UNL     1     -40.228 -48.894  12.180  1.00  0.00    -0.021 A 
HETATM   17  C   UNL     1     -41.206 -47.745  12.401  1.00  0.00     0.012 A 
HETATM   18  C   UNL     1     -40.013 -47.535  11.525  1.00  0.00     0.012 A 
BRANCH  16  19
HETATM   19  C   UNL     1     -39.261 -49.359  13.289  1.00  0.00    -0.004 A 
HETATM   20  C   UNL     1     -37.838 -48.848  13.343  1.00  0.00     0.006 A 
HETATM   21  C   UNL     1     -38.095 -50.304  13.115  1.00  0.00     0.006 A 
ENDBRANCH  16  19
ENDBRANCH  15  16
ENDBRANCH   4  15
TORSDOF 4
ENDMDL
MODEL 9
REMARK VINA RESULT:      -5.2      3.293      4.274
REMARK  4 active torsions:
REMARK  status: ('A' for Active; 'I' for Inactive)
REMARK    1  A    between atoms: C_5  and  N_6 
REMARK       I    between atoms: N_6  and  C_7 
REMARK       I    between atoms: C_7  and  N_9 
REMARK    2  A    between atoms: N_9  and  C_10 
REMARK    3  A    between atoms: C_10  and  C_11 
REMARK    4  A    between atoms: C_11  and  C_14 
ROOT
HETATM    1  N   UNL     1     -41.984 -54.568  14.281  1.00  0.00    -0.295 N 
HETATM    2  C   UNL     1     -43.251 -54.634  14.783  1.00  0.00     0.321 C 
HETATM    3  O   UNL     1     -43.709 -55.723  15.126  1.00  0.00    -0.247 OA
HETATM    4  N   UNL     1     -43.943 -53.472  14.848  1.00  0.00    -0.342 N 
HETATM    5  H   UNL     1     -41.537 -55.472  14.229  1.00  0.00     0.172 HD
HETATM    6  H   UNL     1     -43.410 -52.630  14.646  1.00  0.00     0.164 HD
ENDROOT
BRANCH   1   7
HETATM    7  C   UNL     1     -41.280 -53.448  13.829  1.00  0.00     0.108 A 
HETATM    8  C   UNL     1     -41.572 -52.965  12.553  1.00  0.00     0.052 A 
HETATM    9  C   UNL     1     -40.904 -51.829  12.091  1.00  0.00     0.047 A 
HETATM   10  C   UNL     1     -39.966 -51.221  12.911  1.00  0.00     0.131 A 
HETATM   11  F   UNL     1     -39.315 -50.125  12.504  1.00  0.00    -0.205 F 
HETATM   12  C   UNL     1     -39.722 -51.764  14.156  1.00  0.00     0.132 A 
HETATM   13  N   UNL     1     -40.355 -52.865  14.627  1.00  0.00    -0.349 N 
ATOM     14  HN  UNL     1     -40.142 -53.243  15.550  1.00  0.00     0.167 HD
ENDBRANCH   1   7
BRANCH   4  15
HETATM   15  C   UNL     1     -45.272 -53.343  15.381  1.00  0.00     0.134 C 
BRANCH  15  16
HETATM   16  C   UNL     1     -45.844 -51.977  15.017  1.00  0.00    -0.021 A 
HETATM   17  C   UNL     1     -45.912 -50.923  16.117  1.00  0.00     0.012 A 
HETATM   18  C   UNL     1     -47.165 -51.612  15.683  1.00  0.00     0.012 A 
BRANCH  16  19
HETATM   19  C   UNL     1     -45.611 -51.593  13.540  1.00  0.00    -0.004 A 
HETATM   20  C   UNL     1     -46.755 -51.582  12.550  1.00  0.00     0.006 A 
HETATM   21  C   UNL     1     -45.619 -52.538  12.362  1.00  0.00     0.006 A 
ENDBRANCH  16  19
ENDBRANCH  15  16
ENDBRANCH   4  15
TORSDOF 4
ENDMDL
