MODEL 1
REMARK VINA RESULT:      -7.0      0.000      0.000
REMARK  4 active torsions:
REMARK  status: ('A' for Active; 'I' for Inactive)
REMARK    1  A    between atoms: C_2  and  N_3 
REMARK    2  A    between atoms: N_4  and  C_16 
REMARK    3  A    between atoms: C_16  and  C_18 
REMARK    4  A    between atoms: C_18  and  O_22 
ROOT
HETATM    1  C   UNL     1     -41.436 -49.792  12.606  1.00  0.00     0.122 A 
HETATM    2  C   UNL     1     -41.564 -50.722  13.673  1.00  0.00     0.136 A 
HETATM    3  N   UNL     1     -40.738 -47.923  11.690  1.00  0.00    -0.324 N 
HETATM    4  C   UNL     1     -40.741 -48.617  12.863  1.00  0.00     0.140 A 
HETATM    5  N   UNL     1     -41.858 -49.798  11.283  1.00  0.00    -0.346 N 
ATOM      6  HN  UNL     1     -42.397 -50.524  10.810  1.00  0.00     0.167 HD
HETATM    7  C   UNL     1     -41.415 -48.669  10.767  1.00  0.00     0.185 A 
HETATM    8  N   UNL     1     -40.970 -50.358  14.850  1.00  0.00    -0.337 N 
ATOM      9  HN  UNL     1     -41.007 -50.988  15.651  1.00  0.00     0.168 HD
HETATM   10  N   UNL     1     -40.181 -48.231  14.019  1.00  0.00    -0.336 N 
ATOM     11  HN  UNL     1     -39.704 -47.341  14.164  1.00  0.00     0.168 HD
HETATM   12  C   UNL     1     -40.336 -49.176  14.961  1.00  0.00     0.183 A 
ENDROOT
BRANCH   2  13
HETATM   13  N   UNL     1     -42.288 -51.899  13.656  1.00  0.00    -0.356 N 
HETATM   14  C   UNL     1     -41.657 -53.218  13.896  1.00  0.00     0.082 C 
HETATM   15  C   UNL     1     -42.857 -54.177  14.140  1.00  0.00     0.031 C 
HETATM   16  C   UNL     1     -40.841 -53.673  12.692  1.00  0.00     0.032 C 
HETATM   17  C   UNL     1     -44.059 -53.370  13.674  1.00  0.00     0.010 C 
HETATM   18  C   UNL     1     -43.679 -51.952  14.118  1.00  0.00     0.090 C 
HETATM   19  C   UNL     1     -45.425 -53.780  14.203  1.00  0.00     0.007 C 
HETATM   20  C   UNL     1     -44.698 -50.962  13.570  1.00  0.00     0.026 C 
HETATM   21  C   UNL     1     -46.109 -51.340  14.047  1.00  0.00     0.002 C 
HETATM   22  C   UNL     1     -46.480 -52.786  13.708  1.00  0.00     0.001 C 
ENDBRANCH   2  13
BRANCH   3  23
HETATM   23  C   UNL     1     -40.005 -46.699  11.432  1.00  0.00     0.171 C 
BRANCH  23  24
HETATM   24  C   UNL     1     -40.853 -45.505  10.967  1.00  0.00     0.097 C 
HETATM   25  C   UNL     1     -40.231 -44.136  11.161  1.00  0.00     0.068 C 
HETATM   26  C   UNL     1     -41.436 -43.222  11.320  1.00  0.00     0.170 C 
HETATM   27  O   UNL     1     -42.529 -44.014  11.795  1.00  0.00    -0.388 OA
HETATM   28  C   UNL     1     -42.109 -45.386  11.835  1.00  0.00     0.207 C 
BRANCH  24  29
HETATM   29  O   UNL     1     -41.263 -45.644   9.600  1.00  0.00    -0.386 OA
HETATM   30  H   UNL     1     -40.575 -45.283   9.010  1.00  0.00     0.210 HD
ENDBRANCH  24  29
ENDBRANCH  23  24
ENDBRANCH   3  23
TORSDOF 4
ENDMDL
MODEL 2
REMARK VINA RESULT:      -6.9      3.492      7.416
REMARK  4 active torsions:
REMARK  status: ('A' for Active; 'I' for Inactive)
REMARK    1  A    between atoms: C_2  and  N_3 
REMARK    2  A    between atoms: N_4  and  C_16 
REMARK    3  A    between atoms: C_16  and  C_18 
REMARK    4  A    between atoms: C_18  and  O_22 
ROOT
HETATM    1  C   UNL     1     -42.270 -49.535  12.627  1.00  0.00     0.122 A 
HETATM    2  C   UNL     1     -41.584 -48.840  11.594  1.00  0.00     0.136 A 
HETATM    3  N   UNL     1     -42.680 -51.278  13.898  1.00  0.00    -0.324 N 
HETATM    4  C   UNL     1     -41.905 -50.856  12.859  1.00  0.00     0.140 A 
HETATM    5  N   UNL     1     -43.270 -49.170  13.518  1.00  0.00    -0.346 N 
ATOM      6  HN  UNL     1     -43.742 -48.267  13.581  1.00  0.00     0.167 HD
HETATM    7  C   UNL     1     -43.482 -50.234  14.265  1.00  0.00     0.185 A 
HETATM    8  N   UNL     1     -40.616 -49.554  10.942  1.00  0.00    -0.337 N 
ATOM      9  HN  UNL     1     -40.072 -49.108  10.204  1.00  0.00     0.168 HD
HETATM   10  N   UNL     1     -40.982 -51.579  12.207  1.00  0.00    -0.336 N 
ATOM     11  HN  UNL     1     -40.771 -52.558  12.399  1.00  0.00     0.168 HD
HETATM   12  C   UNL     1     -40.375 -50.837  11.266  1.00  0.00     0.183 A 
ENDROOT
BRANCH   2  13
HETATM   13  N   UNL     1     -41.854 -47.561  11.144  1.00  0.00    -0.356 N 
HETATM   14  C   UNL     1     -40.814 -46.507  11.092  1.00  0.00     0.082 C 
HETATM   15  C   UNL     1     -41.446 -45.391  10.211  1.00  0.00     0.031 C 
HETATM   16  C   UNL     1     -40.488 -45.975  12.481  1.00  0.00     0.032 C 
HETATM   17  C   UNL     1     -42.914 -45.783  10.139  1.00  0.00     0.010 C 
HETATM   18  C   UNL     1     -42.831 -47.313  10.079  1.00  0.00     0.090 C 
HETATM   19  C   UNL     1     -43.733 -45.217   8.989  1.00  0.00     0.007 C 
HETATM   20  C   UNL     1     -44.232 -47.899  10.184  1.00  0.00     0.026 C 
HETATM   21  C   UNL     1     -45.122 -47.341   9.063  1.00  0.00     0.002 C 
HETATM   22  C   UNL     1     -45.145 -45.811   9.032  1.00  0.00     0.001 C 
ENDBRANCH   2  13
BRANCH   3  23
HETATM   23  C   UNL     1     -42.553 -52.546  14.588  1.00  0.00     0.171 C 
BRANCH  23  24
HETATM   24  C   UNL     1     -43.274 -53.733  13.931  1.00  0.00     0.097 C 
HETATM   25  C   UNL     1     -44.744 -53.528  13.623  1.00  0.00     0.068 C 
HETATM   26  C   UNL     1     -45.318 -54.933  13.692  1.00  0.00     0.170 C 
HETATM   27  O   UNL     1     -44.468 -55.715  14.537  1.00  0.00    -0.388 OA
HETATM   28  C   UNL     1     -43.338 -54.911  14.909  1.00  0.00     0.207 C 
BRANCH  24  29
HETATM   29  O   UNL     1     -42.602 -54.172  12.743  1.00  0.00    -0.386 OA
HETATM   30  H   UNL     1     -42.211 -55.053  12.890  1.00  0.00     0.210 HD
ENDBRANCH  24  29
ENDBRANCH  23  24
ENDBRANCH   3  23
TORSDOF 4
ENDMDL
MODEL 3
REMARK VINA RESULT:      -6.8      3.209      7.771
REMARK  4 active torsions:
REMARK  status: ('A' for Active; 'I' for Inactive)
REMARK    1  A    between atoms: C_2  and  N_3 
REMARK    2  A    between atoms: N_4  and  C_16 
REMARK    3  A    between atoms: C_16  and  C_18 
REMARK    4  A    between atoms: C_18  and  O_22 
ROOT
HETATM    1  C   UNL     1     -42.305 -49.438  12.474  1.00  0.00     0.122 A 
HETATM    2  C   UNL     1     -41.586 -48.757  11.455  1.00  0.00     0.136 A 
HETATM    3  N   UNL     1     -42.752 -51.161  13.759  1.00  0.00    -0.324 N 
HETATM    4  C   UNL     1     -41.941 -50.753  12.743  1.00  0.00     0.140 A 
HETATM    5  N   UNL     1     -43.339 -49.064  13.322  1.00  0.00    -0.346 N 
ATOM      6  HN  UNL     1     -43.818 -48.163  13.352  1.00  0.00     0.167 HD
HETATM    7  C   UNL     1     -43.572 -50.117  14.079  1.00  0.00     0.185 A 
HETATM    8  N   UNL     1     -40.591 -49.475  10.852  1.00  0.00    -0.337 N 
ATOM      9  HN  UNL     1     -40.022 -49.039  10.126  1.00  0.00     0.168 HD
HETATM   10  N   UNL     1     -40.991 -51.480  12.138  1.00  0.00    -0.336 N 
ATOM     11  HN  UNL     1     -40.782 -52.455  12.354  1.00  0.00     0.168 HD
HETATM   12  C   UNL     1     -40.354 -50.752  11.206  1.00  0.00     0.183 A 
ENDROOT
BRANCH   2  13
HETATM   13  N   UNL     1     -41.846 -47.487  10.973  1.00  0.00    -0.356 N 
HETATM   14  C   UNL     1     -43.098 -47.158  10.254  1.00  0.00     0.082 C 
HETATM   15  C   UNL     1     -43.124 -45.602  10.226  1.00  0.00     0.031 C 
HETATM   16  C   UNL     1     -43.094 -47.721   8.838  1.00  0.00     0.032 C 
HETATM   17  C   UNL     1     -41.711 -45.215  10.633  1.00  0.00     0.010 C 
HETATM   18  C   UNL     1     -41.376 -46.289  11.675  1.00  0.00     0.090 C 
HETATM   19  C   UNL     1     -41.500 -43.812  11.180  1.00  0.00     0.007 C 
HETATM   20  C   UNL     1     -39.911 -46.167  12.072  1.00  0.00     0.026 C 
HETATM   21  C   UNL     1     -39.626 -44.756  12.608  1.00  0.00     0.002 C 
HETATM   22  C   UNL     1     -40.044 -43.657  11.629  1.00  0.00     0.001 C 
ENDBRANCH   2  13
BRANCH   3  23
HETATM   23  C   UNL     1     -42.642 -52.417  14.476  1.00  0.00     0.171 C 
BRANCH  23  24
HETATM   24  C   UNL     1     -43.381 -53.606  13.845  1.00  0.00     0.097 C 
HETATM   25  C   UNL     1     -44.875 -53.431  13.649  1.00  0.00     0.068 C 
HETATM   26  C   UNL     1     -45.409 -54.852  13.725  1.00  0.00     0.170 C 
HETATM   27  O   UNL     1     -44.481 -55.631  14.487  1.00  0.00    -0.388 OA
HETATM   28  C   UNL     1     -43.346 -54.808  14.795  1.00  0.00     0.207 C 
BRANCH  24  29
HETATM   29  O   UNL     1     -42.789 -54.001  12.600  1.00  0.00    -0.386 OA
HETATM   30  H   UNL     1     -43.478 -54.333  11.996  1.00  0.00     0.210 HD
ENDBRANCH  24  29
ENDBRANCH  23  24
ENDBRANCH   3  23
TORSDOF 4
ENDMDL
MODEL 4
REMARK VINA RESULT:      -6.7      1.531      2.477
REMARK  4 active torsions:
REMARK  status: ('A' for Active; 'I' for Inactive)
REMARK    1  A    between atoms: C_2  and  N_3 
REMARK    2  A    between atoms: N_4  and  C_16 
REMARK    3  A    between atoms: C_16  and  C_18 
REMARK    4  A    between atoms: C_18  and  O_22 
ROOT
HETATM    1  C   UNL     1     -41.367 -49.994  13.363  1.00  0.00     0.122 A 
HETATM    2  C   UNL     1     -41.118 -51.309  12.885  1.00  0.00     0.136 A 
HETATM    3  N   UNL     1     -41.253 -47.804  13.267  1.00  0.00    -0.324 N 
HETATM    4  C   UNL     1     -40.858 -48.936  12.620  1.00  0.00     0.140 A 
HETATM    5  N   UNL     1     -42.057 -49.496  14.461  1.00  0.00    -0.346 N 
ATOM      6  HN  UNL     1     -42.530 -50.032  15.189  1.00  0.00     0.167 HD
HETATM    7  C   UNL     1     -41.973 -48.185  14.364  1.00  0.00     0.185 A 
HETATM    8  N   UNL     1     -40.405 -51.389  11.721  1.00  0.00    -0.337 N 
ATOM      9  HN  UNL     1     -40.207 -52.302  11.311  1.00  0.00     0.168 HD
HETATM   10  N   UNL     1     -40.130 -49.000  11.495  1.00  0.00    -0.336 N 
ATOM     11  HN  UNL     1     -39.755 -48.190  11.001  1.00  0.00     0.168 HD
HETATM   12  C   UNL     1     -39.961 -50.275  11.110  1.00  0.00     0.183 A 
ENDROOT
BRANCH   2  13
HETATM   13  N   UNL     1     -41.453 -52.492  13.517  1.00  0.00    -0.356 N 
HETATM   14  C   UNL     1     -40.630 -53.066  14.606  1.00  0.00     0.082 C 
HETATM   15  C   UNL     1     -41.543 -54.153  15.243  1.00  0.00     0.031 C 
HETATM   16  C   UNL     1     -39.347 -53.689  14.068  1.00  0.00     0.032 C 
HETATM   17  C   UNL     1     -42.663 -54.317  14.227  1.00  0.00     0.010 C 
HETATM   18  C   UNL     1     -42.852 -52.878  13.729  1.00  0.00     0.090 C 
HETATM   19  C   UNL     1     -43.970 -54.920  14.718  1.00  0.00     0.007 C 
HETATM   20  C   UNL     1     -43.826 -52.873  12.559  1.00  0.00     0.026 C 
HETATM   21  C   UNL     1     -45.163 -53.500  12.985  1.00  0.00     0.002 C 
HETATM   22  C   UNL     1     -44.996 -54.899  13.581  1.00  0.00     0.001 C 
ENDBRANCH   2  13
BRANCH   3  23
HETATM   23  C   UNL     1     -41.080 -46.448  12.783  1.00  0.00     0.171 C 
BRANCH  23  24
HETATM   24  C   UNL     1     -42.141 -45.961  11.785  1.00  0.00     0.097 C 
HETATM   25  C   UNL     1     -43.066 -47.026  11.228  1.00  0.00     0.068 C 
HETATM   26  C   UNL     1     -43.451 -46.479   9.863  1.00  0.00     0.170 C 
HETATM   27  O   UNL     1     -42.416 -45.585   9.439  1.00  0.00    -0.388 OA
HETATM   28  C   UNL     1     -41.464 -45.457  10.507  1.00  0.00     0.207 C 
BRANCH  24  29
HETATM   29  O   UNL     1     -42.929 -44.892  12.327  1.00  0.00    -0.386 OA
HETATM   30  H   UNL     1     -42.396 -44.077  12.371  1.00  0.00     0.210 HD
ENDBRANCH  24  29
ENDBRANCH  23  24
ENDBRANCH   3  23
TORSDOF 4
ENDMDL
MODEL 5
REMARK VINA RESULT:      -6.7      1.673      2.291
REMARK  4 active torsions:
REMARK  status: ('A' for Active; 'I' for Inactive)
REMARK    1  A    between atoms: C_2  and  N_3 
REMARK    2  A    between atoms: N_4  and  C_16 
REMARK    3  A    between atoms: C_16  and  C_18 
REMARK    4  A    between atoms: C_18  and  O_22 
ROOT
HETATM    1  C   UNL     1     -42.041 -49.712  12.761  1.00  0.00     0.122 A 
HETATM    2  C   UNL     1     -41.577 -51.044  12.587  1.00  0.00     0.136 A 
HETATM    3  N   UNL     1     -42.241 -47.601  12.191  1.00  0.00    -0.324 N 
HETATM    4  C   UNL     1     -41.652 -48.771  11.815  1.00  0.00     0.140 A 
HETATM    5  N   UNL     1     -42.855 -49.104  13.709  1.00  0.00    -0.346 N 
ATOM      6  HN  UNL     1     -43.283 -49.540  14.526  1.00  0.00     0.167 HD
HETATM    7  C   UNL     1     -42.957 -47.847  13.329  1.00  0.00     0.185 A 
HETATM    8  N   UNL     1     -40.798 -51.259  11.484  1.00  0.00    -0.337 N 
ATOM      9  HN  UNL     1     -40.448 -52.197  11.287  1.00  0.00     0.168 HD
HETATM   10  N   UNL     1     -40.862 -48.959  10.748  1.00  0.00    -0.336 N 
ATOM     11  HN  UNL     1     -40.583 -48.225  10.097  1.00  0.00     0.168 HD
HETATM   12  C   UNL     1     -40.488 -50.246  10.654  1.00  0.00     0.183 A 
ENDROOT
BRANCH   2  13
HETATM   13  N   UNL     1     -41.771 -52.103  13.454  1.00  0.00    -0.356 N 
HETATM   14  C   UNL     1     -40.958 -52.277  14.681  1.00  0.00     0.082 C 
HETATM   15  C   UNL     1     -41.736 -53.343  15.506  1.00  0.00     0.031 C 
HETATM   16  C   UNL     1     -39.554 -52.769  14.355  1.00  0.00     0.032 C 
HETATM   17  C   UNL     1     -42.729 -53.913  14.505  1.00  0.00     0.010 C 
HETATM   18  C   UNL     1     -43.102 -52.670  13.687  1.00  0.00     0.090 C 
HETATM   19  C   UNL     1     -43.959 -54.613  15.061  1.00  0.00     0.007 C 
HETATM   20  C   UNL     1     -43.966 -53.086  12.504  1.00  0.00     0.026 C 
HETATM   21  C   UNL     1     -45.217 -53.828  13.001  1.00  0.00     0.002 C 
HETATM   22  C   UNL     1     -44.879 -55.016  13.905  1.00  0.00     0.001 C 
ENDBRANCH   2  13
BRANCH   3  23
HETATM   23  C   UNL     1     -42.241 -46.370  11.427  1.00  0.00     0.171 C 
BRANCH  23  24
HETATM   24  C   UNL     1     -40.895 -45.634  11.355  1.00  0.00     0.097 C 
HETATM   25  C   UNL     1     -40.066 -45.644  12.625  1.00  0.00     0.068 C 
HETATM   26  C   UNL     1     -39.260 -44.358  12.530  1.00  0.00     0.170 C 
HETATM   27  O   UNL     1     -39.979 -43.449  11.689  1.00  0.00    -0.388 OA
HETATM   28  C   UNL     1     -41.129 -44.132  11.166  1.00  0.00     0.207 C 
BRANCH  24  29
HETATM   29  O   UNL     1     -40.089 -46.104  10.266  1.00  0.00    -0.386 OA
HETATM   30  H   UNL     1     -39.192 -45.726  10.331  1.00  0.00     0.210 HD
ENDBRANCH  24  29
ENDBRANCH  23  24
ENDBRANCH   3  23
TORSDOF 4
ENDMDL
MODEL 6
REMARK VINA RESULT:      -6.6      2.906      4.344
REMARK  4 active torsions:
REMARK  status: ('A' for Active; 'I' for Inactive)
REMARK    1  A    between atoms: C_2  and  N_3 
REMARK    2  A    between atoms: N_4  and  C_16 
REMARK    3  A    between atoms: C_16  and  C_18 
REMARK    4  A    between atoms: C_18  and  O_22 
ROOT
HETATM    1  C   UNL     1     -42.921 -51.002  12.779  1.00  0.00     0.122 A 
HETATM    2  C   UNL     1     -43.690 -52.025  13.398  1.00  0.00     0.136 A 
HETATM    3  N   UNL     1     -41.143 -50.211  11.762  1.00  0.00    -0.324 N 
HETATM    4  C   UNL     1     -41.651 -51.342  12.328  1.00  0.00     0.140 A 
HETATM    5  N   UNL     1     -43.169 -49.666  12.494  1.00  0.00    -0.346 N 
ATOM      6  HN  UNL     1     -44.011 -49.133  12.714  1.00  0.00     0.167 HD
HETATM    7  C   UNL     1     -42.088 -49.231  11.879  1.00  0.00     0.185 A 
HETATM    8  N   UNL     1     -43.092 -53.253  13.469  1.00  0.00    -0.337 N 
ATOM      9  HN  UNL     1     -43.597 -54.037  13.883  1.00  0.00     0.168 HD
HETATM   10  N   UNL     1     -41.040 -52.532  12.420  1.00  0.00    -0.336 N 
ATOM     11  HN  UNL     1     -40.092 -52.723  12.096  1.00  0.00     0.168 HD
HETATM   12  C   UNL     1     -41.845 -53.438  12.999  1.00  0.00     0.183 A 
ENDROOT
BRANCH   2  13
HETATM   13  N   UNL     1     -44.929 -51.876  13.993  1.00  0.00    -0.356 N 
HETATM   14  C   UNL     1     -46.123 -52.619  13.527  1.00  0.00     0.082 C 
HETATM   15  C   UNL     1     -47.161 -52.430  14.671  1.00  0.00     0.031 C 
HETATM   16  C   UNL     1     -46.657 -52.051  12.217  1.00  0.00     0.032 C 
HETATM   17  C   UNL     1     -46.563 -51.313  15.513  1.00  0.00     0.010 C 
HETATM   18  C   UNL     1     -45.064 -51.623  15.431  1.00  0.00     0.090 C 
HETATM   19  C   UNL     1     -47.038 -51.193  16.953  1.00  0.00     0.007 C 
HETATM   20  C   UNL     1     -44.279 -50.489  16.078  1.00  0.00     0.026 C 
HETATM   21  C   UNL     1     -44.734 -50.297  17.533  1.00  0.00     0.002 C 
HETATM   22  C   UNL     1     -46.245 -50.087  17.657  1.00  0.00     0.001 C 
ENDBRANCH   2  13
BRANCH   3  23
HETATM   23  C   UNL     1     -39.899 -50.119  11.024  1.00  0.00     0.171 C 
BRANCH  23  24
HETATM   24  C   UNL     1     -38.679 -49.660  11.837  1.00  0.00     0.097 C 
HETATM   25  C   UNL     1     -38.285 -50.549  13.001  1.00  0.00     0.068 C 
HETATM   26  C   UNL     1     -37.626 -49.585  13.974  1.00  0.00     0.170 C 
HETATM   27  O   UNL     1     -38.141 -48.275  13.712  1.00  0.00    -0.388 OA
HETATM   28  C   UNL     1     -38.997 -48.348  12.561  1.00  0.00     0.207 C 
BRANCH  24  29
HETATM   29  O   UNL     1     -37.533 -49.446  11.002  1.00  0.00    -0.386 OA
HETATM   30  H   UNL     1     -36.770 -49.182  11.549  1.00  0.00     0.210 HD
ENDBRANCH  24  29
ENDBRANCH  23  24
ENDBRANCH   3  23
TORSDOF 4
ENDMDL
MODEL 7
REMARK VINA RESULT:      -6.6      2.456      4.077
REMARK  4 active torsions:
REMARK  status: ('A' for Active; 'I' for Inactive)
REMARK    1  A    between atoms: C_2  and  N_3 
REMARK    2  A    between atoms: N_4  and  C_16 
REMARK    3  A    between atoms: C_16  and  C_18 
REMARK    4  A    between atoms: C_18  and  O_22 
ROOT
HETATM    1  C   UNL     1     -40.719 -50.582  12.564  1.00  0.00     0.122 A 
HETATM    2  C   UNL     1     -39.590 -51.349  12.959  1.00  0.00     0.136 A 
HETATM    3  N   UNL     1     -41.745 -49.047  11.376  1.00  0.00    -0.324 N 
HETATM    4  C   UNL     1     -40.523 -49.610  11.590  1.00  0.00     0.140 A 
HETATM    5  N   UNL     1     -42.056 -50.594  12.940  1.00  0.00    -0.346 N 
ATOM      6  HN  UNL     1     -42.496 -51.193  13.640  1.00  0.00     0.167 HD
HETATM    7  C   UNL     1     -42.637 -49.670  12.203  1.00  0.00     0.185 A 
HETATM    8  N   UNL     1     -38.419 -51.050  12.319  1.00  0.00    -0.337 N 
ATOM      9  HN  UNL     1     -37.573 -51.576  12.540  1.00  0.00     0.168 HD
HETATM   10  N   UNL     1     -39.376 -49.284  10.977  1.00  0.00    -0.336 N 
ATOM     11  HN  UNL     1     -39.279 -48.540  10.286  1.00  0.00     0.168 HD
HETATM   12  C   UNL     1     -38.371 -50.069  11.399  1.00  0.00     0.183 A 
ENDROOT
BRANCH   2  13
HETATM   13  N   UNL     1     -39.549 -52.294  13.968  1.00  0.00    -0.356 N 
HETATM   14  C   UNL     1     -39.686 -53.743  13.697  1.00  0.00     0.082 C 
HETATM   15  C   UNL     1     -39.227 -54.424  15.018  1.00  0.00     0.031 C 
HETATM   16  C   UNL     1     -41.128 -54.116  13.372  1.00  0.00     0.032 C 
HETATM   17  C   UNL     1     -39.202 -53.279  16.019  1.00  0.00     0.010 C 
HETATM   18  C   UNL     1     -38.705 -52.114  15.154  1.00  0.00     0.090 C 
HETATM   19  C   UNL     1     -38.350 -53.459  17.266  1.00  0.00     0.007 C 
HETATM   20  C   UNL     1     -38.787 -50.821  15.954  1.00  0.00     0.026 C 
HETATM   21  C   UNL     1     -37.968 -50.949  17.247  1.00  0.00     0.002 C 
HETATM   22  C   UNL     1     -38.372 -52.164  18.085  1.00  0.00     0.001 C 
ENDBRANCH   2  13
BRANCH   3  23
HETATM   23  C   UNL     1     -42.064 -48.084  10.340  1.00  0.00     0.171 C 
BRANCH  23  24
HETATM   24  C   UNL     1     -41.655 -46.633  10.637  1.00  0.00     0.097 C 
HETATM   25  C   UNL     1     -41.881 -46.158  12.059  1.00  0.00     0.068 C 
HETATM   26  C   UNL     1     -42.094 -44.661  11.900  1.00  0.00     0.170 C 
HETATM   27  O   UNL     1     -42.565 -44.422  10.569  1.00  0.00    -0.388 OA
HETATM   28  C   UNL     1     -42.551 -45.668   9.855  1.00  0.00     0.207 C 
BRANCH  24  29
HETATM   29  O   UNL     1     -40.293 -46.379  10.268  1.00  0.00    -0.386 OA
HETATM   30  H   UNL     1     -39.937 -45.646  10.804  1.00  0.00     0.210 HD
ENDBRANCH  24  29
ENDBRANCH  23  24
ENDBRANCH   3  23
TORSDOF 4
ENDMDL
MODEL 8
REMARK VINA RESULT:      -6.5      2.841      7.427
REMARK  4 active torsions:
REMARK  status: ('A' for Active; 'I' for Inactive)
REMARK    1  A    between atoms: C_2  and  N_3 
REMARK    2  A    between atoms: N_4  and  C_16 
REMARK    3  A    between atoms: C_16  and  C_18 
REMARK    4  A    between atoms: C_18  and  O_22 
ROOT
HETATM    1  C   UNL     1     -41.112 -48.903  13.382  1.00  0.00     0.122 A 
HETATM    2  C   UNL     1     -40.415 -47.969  12.568  1.00  0.00     0.136 A 
HETATM    3  N   UNL     1     -41.969 -50.873  13.835  1.00  0.00    -0.324 N 
HETATM    4  C   UNL     1     -41.312 -50.177  12.864  1.00  0.00     0.140 A 
HETATM    5  N   UNL     1     -41.659 -48.832  14.657  1.00  0.00    -0.346 N 
ATOM      6  HN  UNL     1     -41.674 -48.023  15.278  1.00  0.00     0.167 HD
HETATM    7  C   UNL     1     -42.153 -50.030  14.894  1.00  0.00     0.185 A 
HETATM    8  N   UNL     1     -39.999 -48.439  11.353  1.00  0.00    -0.337 N 
ATOM      9  HN  UNL     1     -39.475 -47.827  10.727  1.00  0.00     0.168 HD
HETATM   10  N   UNL     1     -40.940 -50.642  11.663  1.00  0.00    -0.336 N 
ATOM     11  HN  UNL     1     -41.136 -51.582  11.319  1.00  0.00     0.168 HD
HETATM   12  C   UNL     1     -40.274 -49.701  10.974  1.00  0.00     0.183 A 
ENDROOT
BRANCH   2  13
HETATM   13  N   UNL     1     -40.193 -46.635  12.852  1.00  0.00    -0.356 N 
HETATM   14  C   UNL     1     -38.926 -46.157  13.453  1.00  0.00     0.082 C 
HETATM   15  C   UNL     1     -38.971 -44.613  13.260  1.00  0.00     0.031 C 
HETATM   16  C   UNL     1     -38.840 -46.511  14.932  1.00  0.00     0.032 C 
HETATM   17  C   UNL     1     -40.418 -44.345  12.876  1.00  0.00     0.010 C 
HETATM   18  C   UNL     1     -40.749 -45.569  12.014  1.00  0.00     0.090 C 
HETATM   19  C   UNL     1     -40.719 -43.043  12.148  1.00  0.00     0.007 C 
HETATM   20  C   UNL     1     -42.235 -45.564  11.680  1.00  0.00     0.026 C 
HETATM   21  C   UNL     1     -42.610 -44.256  10.966  1.00  0.00     0.002 C 
HETATM   22  C   UNL     1     -42.200 -43.012  11.757  1.00  0.00     0.001 C 
ENDBRANCH   2  13
BRANCH   3  23
HETATM   23  C   UNL     1     -42.264 -52.292  13.806  1.00  0.00     0.171 C 
BRANCH  23  24
HETATM   24  C   UNL     1     -43.443 -52.706  12.912  1.00  0.00     0.097 C 
HETATM   25  C   UNL     1     -44.689 -51.847  13.019  1.00  0.00     0.068 C 
HETATM   26  C   UNL     1     -45.811 -52.810  12.665  1.00  0.00     0.170 C 
HETATM   27  O   UNL     1     -45.359 -54.137  12.951  1.00  0.00    -0.388 OA
HETATM   28  C   UNL     1     -43.984 -54.068  13.357  1.00  0.00     0.207 C 
BRANCH  24  29
HETATM   29  O   UNL     1     -43.058 -52.803  11.535  1.00  0.00    -0.386 OA
HETATM   30  H   UNL     1     -43.438 -52.059  11.031  1.00  0.00     0.210 HD
ENDBRANCH  24  29
ENDBRANCH  23  24
ENDBRANCH   3  23
TORSDOF 4
ENDMDL
MODEL 9
REMARK VINA RESULT:      -6.4      3.564      7.504
REMARK  4 active torsions:
REMARK  status: ('A' for Active; 'I' for Inactive)
REMARK    1  A    between atoms: C_2  and  N_3 
REMARK    2  A    between atoms: N_4  and  C_16 
REMARK    3  A    between atoms: C_16  and  C_18 
REMARK    4  A    between atoms: C_18  and  O_22 
ROOT
HETATM    1  C   UNL     1     -42.671 -50.958  12.948  1.00  0.00     0.122 A 
HETATM    2  C   UNL     1     -41.315 -50.601  12.714  1.00  0.00     0.136 A 
HETATM    3  N   UNL     1     -44.383 -52.332  12.921  1.00  0.00    -0.324 N 
HETATM    4  C   UNL     1     -43.069 -52.235  12.570  1.00  0.00     0.140 A 
HETATM    5  N   UNL     1     -43.747 -50.288  13.516  1.00  0.00    -0.346 N 
ATOM      6  HN  UNL     1     -43.759 -49.334  13.878  1.00  0.00     0.167 HD
HETATM    7  C   UNL     1     -44.748 -51.145  13.489  1.00  0.00     0.185 A 
HETATM    8  N   UNL     1     -40.537 -51.572  12.146  1.00  0.00    -0.337 N 
ATOM      9  HN  UNL     1     -39.550 -51.388  11.969  1.00  0.00     0.168 HD
HETATM   10  N   UNL     1     -42.328 -53.185  11.982  1.00  0.00    -0.336 N 
ATOM     11  HN  UNL     1     -42.677 -54.100  11.698  1.00  0.00     0.168 HD
HETATM   12  C   UNL     1     -41.062 -52.767  11.818  1.00  0.00     0.183 A 
ENDROOT
BRANCH   2  13
HETATM   13  N   UNL     1     -40.742 -49.361  12.930  1.00  0.00    -0.356 N 
HETATM   14  C   UNL     1     -39.542 -49.184  13.780  1.00  0.00     0.082 C 
HETATM   15  C   UNL     1     -39.051 -47.744  13.451  1.00  0.00     0.031 C 
HETATM   16  C   UNL     1     -39.882 -49.311  15.260  1.00  0.00     0.032 C 
HETATM   17  C   UNL     1     -40.224 -47.130  12.702  1.00  0.00     0.010 C 
HETATM   18  C   UNL     1     -40.742 -48.325  11.892  1.00  0.00     0.090 C 
HETATM   19  C   UNL     1     -39.935 -45.929  11.814  1.00  0.00     0.007 C 
HETATM   20  C   UNL     1     -42.045 -47.941  11.205  1.00  0.00     0.026 C 
HETATM   21  C   UNL     1     -41.826 -46.710  10.312  1.00  0.00     0.002 C 
HETATM   22  C   UNL     1     -41.213 -45.531  11.070  1.00  0.00     0.001 C 
ENDBRANCH   2  13
BRANCH   3  23
HETATM   23  C   UNL     1     -45.189 -53.535  12.854  1.00  0.00     0.171 C 
BRANCH  23  24
HETATM   24  C   UNL     1     -45.471 -54.219  14.201  1.00  0.00     0.097 C 
HETATM   25  C   UNL     1     -46.245 -53.397  15.212  1.00  0.00     0.068 C 
HETATM   26  C   UNL     1     -45.768 -53.942  16.549  1.00  0.00     0.170 C 
HETATM   27  O   UNL     1     -44.470 -54.512  16.353  1.00  0.00    -0.388 OA
HETATM   28  C   UNL     1     -44.157 -54.454  14.953  1.00  0.00     0.207 C 
BRANCH  24  29
HETATM   29  O   UNL     1     -46.122 -55.485  14.028  1.00  0.00    -0.386 OA
HETATM   30  H   UNL     1     -45.840 -55.890  13.187  1.00  0.00     0.210 HD
ENDBRANCH  24  29
ENDBRANCH  23  24
ENDBRANCH   3  23
TORSDOF 4
ENDMDL
