MODEL 1
REMARK VINA RESULT:      -4.8      0.000      0.000
REMARK  3 active torsions:
REMARK  status: ('A' for Active; 'I' for Inactive)
REMARK    1  A    between atoms: N_1  and  C_2 
REMARK    2  A    between atoms: C_2  and  C_3 
REMARK    3  A    between atoms: C_3  and  C_4 
ROOT
HETATM    1  C   UNL     1     -43.306 -47.281   9.285  1.00  0.00     0.019 A 
HETATM    2  C   UNL     1     -42.964 -45.980   9.586  1.00  0.00     0.078 A 
HETATM    3  S   UNL     1     -41.627 -45.958  10.645  1.00  0.00    -0.064 SA
HETATM    4  C   UNL     1     -41.553 -47.689  10.609  1.00  0.00     0.146 A 
HETATM    5  N   UNL     1     -42.496 -48.240   9.871  1.00  0.00    -0.340 N 
ATOM      6  HN  UNL     1     -42.615 -49.246   9.746  1.00  0.00     0.168 HD
HETATM    7  N   UNL     1     -40.590 -48.401  11.245  1.00  0.00    -0.361 N 
HETATM    8  C   UNL     1     -40.561 -49.851  11.181  1.00  0.00     0.125 C 
HETATM    9  C   UNL     1     -39.300 -50.242  11.959  1.00  0.00     0.021 C 
HETATM   10  C   UNL     1     -38.599 -48.928  12.288  1.00  0.00     0.021 C 
HETATM   11  C   UNL     1     -39.719 -47.897  12.284  1.00  0.00     0.125 C 
ENDROOT
BRANCH   1  12
HETATM   12  C   UNL     1     -44.440 -47.722   8.417  1.00  0.00     0.087 C 
BRANCH  12  13
HETATM   13  C   UNL     1     -45.779 -47.632   9.155  1.00  0.00     0.272 C 
BRANCH  13  14
HETATM   14  N   UNL     1     -46.525 -48.892   9.081  1.00  0.00     0.078 N 
HETATM   15  H   UNL     1     -46.284 -49.465   9.889  1.00  0.00     0.312 HD
HETATM   16  H   UNL     1     -46.214 -49.417   8.264  1.00  0.00     0.312 HD
ENDBRANCH  13  14
ENDBRANCH  12  13
ENDBRANCH   1  12
TORSDOF 3
ENDMDL
MODEL 2
REMARK VINA RESULT:      -4.6      1.838      2.184
REMARK  3 active torsions:
REMARK  status: ('A' for Active; 'I' for Inactive)
REMARK    1  A    between atoms: N_1  and  C_2 
REMARK    2  A    between atoms: C_2  and  C_3 
REMARK    3  A    between atoms: C_3  and  C_4 
ROOT
HETATM    1  C   UNL     1     -42.508 -47.701  10.303  1.00  0.00     0.019 A 
HETATM    2  C   UNL     1     -41.569 -46.717  10.527  1.00  0.00     0.078 A 
HETATM    3  S   UNL     1     -40.322 -47.315  11.524  1.00  0.00    -0.064 SA
HETATM    4  C   UNL     1     -41.086 -48.870  11.568  1.00  0.00     0.146 A 
HETATM    5  N   UNL     1     -42.221 -48.917  10.898  1.00  0.00    -0.340 N 
ATOM      6  HN  UNL     1     -42.812 -49.745  10.827  1.00  0.00     0.168 HD
HETATM    7  N   UNL     1     -40.543 -49.943  12.194  1.00  0.00    -0.361 N 
HETATM    8  C   UNL     1     -41.213 -51.230  12.198  1.00  0.00     0.125 C 
HETATM    9  C   UNL     1     -40.247 -52.161  12.939  1.00  0.00     0.021 C 
HETATM   10  C   UNL     1     -38.985 -51.337  13.174  1.00  0.00     0.021 C 
HETATM   11  C   UNL     1     -39.475 -49.896  13.169  1.00  0.00     0.125 C 
ENDROOT
BRANCH   1  12
HETATM   12  C   UNL     1     -43.766 -47.562   9.507  1.00  0.00     0.087 C 
BRANCH  12  13
HETATM   13  C   UNL     1     -43.472 -47.157   8.060  1.00  0.00     0.272 C 
BRANCH  13  14
HETATM   14  N   UNL     1     -42.988 -48.290   7.267  1.00  0.00     0.078 N 
HETATM   15  H   UNL     1     -43.073 -48.060   6.278  1.00  0.00     0.312 HD
HETATM   16  H   UNL     1     -43.599 -49.092   7.420  1.00  0.00     0.312 HD
ENDBRANCH  13  14
ENDBRANCH  12  13
ENDBRANCH   1  12
TORSDOF 3
ENDMDL
MODEL 3
REMARK VINA RESULT:      -4.5      2.745      3.734
REMARK  3 active torsions:
REMARK  status: ('A' for Active; 'I' for Inactive)
REMARK    1  A    between atoms: N_1  and  C_2 
REMARK    2  A    between atoms: C_2  and  C_3 
REMARK    3  A    between atoms: C_3  and  C_4 
ROOT
HETATM    1  C   UNL     1     -43.688 -46.525   9.681  1.00  0.00     0.019 A 
HETATM    2  C   UNL     1     -42.960 -47.673   9.910  1.00  0.00     0.078 A 
HETATM    3  S   UNL     1     -41.490 -47.287  10.684  1.00  0.00    -0.064 SA
HETATM    4  C   UNL     1     -41.928 -45.609  10.707  1.00  0.00     0.146 A 
HETATM    5  N   UNL     1     -43.092 -45.363  10.139  1.00  0.00    -0.340 N 
ATOM      6  HN  UNL     1     -43.502 -44.433  10.050  1.00  0.00     0.168 HD
HETATM    7  N   UNL     1     -41.165 -44.654  11.293  1.00  0.00    -0.361 N 
HETATM    8  C   UNL     1     -41.574 -43.262  11.297  1.00  0.00     0.125 C 
HETATM    9  C   UNL     1     -40.486 -42.546  12.104  1.00  0.00     0.021 C 
HETATM   10  C   UNL     1     -39.587 -43.652  12.648  1.00  0.00     0.021 C 
HETATM   11  C   UNL     1     -39.775 -44.801  11.668  1.00  0.00     0.125 C 
ENDROOT
BRANCH   1  12
HETATM   12  C   UNL     1     -45.015 -46.438   8.998  1.00  0.00     0.087 C 
BRANCH  12  13
HETATM   13  C   UNL     1     -45.839 -47.712   9.209  1.00  0.00     0.272 C 
BRANCH  13  14
HETATM   14  N   UNL     1     -45.916 -48.517   7.986  1.00  0.00     0.078 N 
HETATM   15  H   UNL     1     -45.215 -49.255   8.033  1.00  0.00     0.312 HD
HETATM   16  H   UNL     1     -45.658 -47.938   7.187  1.00  0.00     0.312 HD
ENDBRANCH  13  14
ENDBRANCH  12  13
ENDBRANCH   1  12
TORSDOF 3
ENDMDL
MODEL 4
REMARK VINA RESULT:      -4.5      5.520      7.328
REMARK  3 active torsions:
REMARK  status: ('A' for Active; 'I' for Inactive)
REMARK    1  A    between atoms: N_1  and  C_2 
REMARK    2  A    between atoms: C_2  and  C_3 
REMARK    3  A    between atoms: C_3  and  C_4 
ROOT
HETATM    1  C   UNL     1     -41.388 -52.520  12.985  1.00  0.00     0.019 A 
HETATM    2  C   UNL     1     -41.232 -53.819  13.418  1.00  0.00     0.078 A 
HETATM    3  S   UNL     1     -42.644 -54.343  14.217  1.00  0.00    -0.064 SA
HETATM    4  C   UNL     1     -43.404 -52.816  13.901  1.00  0.00     0.146 A 
HETATM    5  N   UNL     1     -42.626 -51.964  13.263  1.00  0.00    -0.340 N 
ATOM      6  HN  UNL     1     -42.901 -51.016  13.008  1.00  0.00     0.168 HD
HETATM    7  N   UNL     1     -44.689 -52.546  14.240  1.00  0.00    -0.361 N 
HETATM    8  C   UNL     1     -45.288 -51.257  13.948  1.00  0.00     0.125 C 
HETATM    9  C   UNL     1     -46.739 -51.394  14.424  1.00  0.00     0.021 C 
HETATM   10  C   UNL     1     -46.901 -52.857  14.824  1.00  0.00     0.021 C 
HETATM   11  C   UNL     1     -45.489 -53.306  15.175  1.00  0.00     0.125 C 
ENDROOT
BRANCH   1  12
HETATM   12  C   UNL     1     -40.367 -51.693  12.271  1.00  0.00     0.087 C 
BRANCH  12  13
HETATM   13  C   UNL     1     -40.965 -50.376  11.766  1.00  0.00     0.272 C 
BRANCH  13  14
HETATM   14  N   UNL     1     -40.451 -50.021  10.441  1.00  0.00     0.078 N 
HETATM   15  H   UNL     1     -39.664 -49.382  10.553  1.00  0.00     0.312 HD
HETATM   16  H   UNL     1     -41.164 -49.497   9.934  1.00  0.00     0.312 HD
ENDBRANCH  13  14
ENDBRANCH  12  13
ENDBRANCH   1  12
TORSDOF 3
ENDMDL
MODEL 5
REMARK VINA RESULT:      -4.5      3.033      3.759
REMARK  3 active torsions:
REMARK  status: ('A' for Active; 'I' for Inactive)
REMARK    1  A    between atoms: N_1  and  C_2 
REMARK    2  A    between atoms: C_2  and  C_3 
REMARK    3  A    between atoms: C_3  and  C_4 
ROOT
HETATM    1  C   UNL     1     -42.316 -48.606  11.376  1.00  0.00     0.019 A 
HETATM    2  C   UNL     1     -40.978 -48.446  11.090  1.00  0.00     0.078 A 
HETATM    3  S   UNL     1     -40.114 -49.849  11.530  1.00  0.00    -0.064 SA
HETATM    4  C   UNL     1     -41.586 -50.610  12.041  1.00  0.00     0.146 A 
HETATM    5  N   UNL     1     -42.647 -49.838  11.913  1.00  0.00    -0.340 N 
ATOM      6  HN  UNL     1     -43.593 -50.115  12.177  1.00  0.00     0.168 HD
HETATM    7  N   UNL     1     -41.641 -51.889  12.486  1.00  0.00    -0.361 N 
HETATM    8  C   UNL     1     -42.897 -52.490  12.896  1.00  0.00     0.125 C 
HETATM    9  C   UNL     1     -42.530 -53.934  13.255  1.00  0.00     0.021 C 
HETATM   10  C   UNL     1     -41.066 -54.094  12.861  1.00  0.00     0.021 C 
HETATM   11  C   UNL     1     -40.508 -52.679  12.918  1.00  0.00     0.125 C 
ENDROOT
BRANCH   1  12
HETATM   12  C   UNL     1     -43.396 -47.593  11.167  1.00  0.00     0.087 C 
BRANCH  12  13
HETATM   13  C   UNL     1     -43.783 -47.483   9.689  1.00  0.00     0.272 C 
BRANCH  13  14
HETATM   14  N   UNL     1     -45.151 -47.950   9.450  1.00  0.00     0.078 N 
HETATM   15  H   UNL     1     -45.672 -47.903  10.325  1.00  0.00     0.312 HD
HETATM   16  H   UNL     1     -45.128 -48.936   9.193  1.00  0.00     0.312 HD
ENDBRANCH  13  14
ENDBRANCH  12  13
ENDBRANCH   1  12
TORSDOF 3
ENDMDL
MODEL 6
REMARK VINA RESULT:      -4.5      6.469      8.292
REMARK  3 active torsions:
REMARK  status: ('A' for Active; 'I' for Inactive)
REMARK    1  A    between atoms: N_1  and  C_2 
REMARK    2  A    between atoms: C_2  and  C_3 
REMARK    3  A    between atoms: C_3  and  C_4 
ROOT
HETATM    1  C   UNL     1     -41.820 -54.010  14.212  1.00  0.00     0.019 A 
HETATM    2  C   UNL     1     -41.846 -54.778  15.357  1.00  0.00     0.078 A 
HETATM    3  S   UNL     1     -43.262 -54.449  16.249  1.00  0.00    -0.064 SA
HETATM    4  C   UNL     1     -43.783 -53.328  15.033  1.00  0.00     0.146 A 
HETATM    5  N   UNL     1     -42.925 -53.194  14.041  1.00  0.00    -0.340 N 
ATOM      6  HN  UNL     1     -43.060 -52.568  13.246  1.00  0.00     0.168 HD
HETATM    7  N   UNL     1     -44.977 -52.687  15.081  1.00  0.00    -0.361 N 
HETATM    8  C   UNL     1     -45.377 -51.763  14.037  1.00  0.00     0.125 C 
HETATM    9  C   UNL     1     -46.790 -51.325  14.435  1.00  0.00     0.021 C 
HETATM   10  C   UNL     1     -47.159 -52.183  15.640  1.00  0.00     0.021 C 
HETATM   11  C   UNL     1     -45.818 -52.564  16.252  1.00  0.00     0.125 C 
ENDROOT
BRANCH   1  12
HETATM   12  C   UNL     1     -40.734 -53.985  13.185  1.00  0.00     0.087 C 
BRANCH  12  13
HETATM   13  C   UNL     1     -40.683 -52.639  12.456  1.00  0.00     0.272 C 
BRANCH  13  14
HETATM   14  N   UNL     1     -41.189 -52.746  11.085  1.00  0.00     0.078 N 
HETATM   15  H   UNL     1     -40.403 -52.907  10.456  1.00  0.00     0.312 HD
HETATM   16  H   UNL     1     -41.591 -51.851  10.805  1.00  0.00     0.312 HD
ENDBRANCH  13  14
ENDBRANCH  12  13
ENDBRANCH   1  12
TORSDOF 3
ENDMDL
MODEL 7
REMARK VINA RESULT:      -4.4      5.215      7.244
REMARK  3 active torsions:
REMARK  status: ('A' for Active; 'I' for Inactive)
REMARK    1  A    between atoms: N_1  and  C_2 
REMARK    2  A    between atoms: C_2  and  C_3 
REMARK    3  A    between atoms: C_3  and  C_4 
ROOT
HETATM    1  C   UNL     1     -40.106 -52.086  13.148  1.00  0.00     0.019 A 
HETATM    2  C   UNL     1     -39.487 -53.046  13.919  1.00  0.00     0.078 A 
HETATM    3  S   UNL     1     -40.644 -54.135  14.537  1.00  0.00    -0.064 SA
HETATM    4  C   UNL     1     -41.906 -53.286  13.705  1.00  0.00     0.146 A 
HETATM    5  N   UNL     1     -41.478 -52.235  13.034  1.00  0.00    -0.340 N 
ATOM      6  HN  UNL     1     -42.081 -51.611  12.498  1.00  0.00     0.168 HD
HETATM    7  N   UNL     1     -43.199 -53.693  13.711  1.00  0.00    -0.361 N 
HETATM    8  C   UNL     1     -44.223 -52.956  12.993  1.00  0.00     0.125 C 
HETATM    9  C   UNL     1     -45.500 -53.777  13.200  1.00  0.00     0.021 C 
HETATM   10  C   UNL     1     -45.058 -55.047  13.920  1.00  0.00     0.021 C 
HETATM   11  C   UNL     1     -43.778 -54.642  14.637  1.00  0.00     0.125 C 
ENDROOT
BRANCH   1  12
HETATM   12  C   UNL     1     -39.442 -50.938  12.458  1.00  0.00     0.087 C 
BRANCH  12  13
HETATM   13  C   UNL     1     -40.469 -49.988  11.834  1.00  0.00     0.272 C 
BRANCH  13  14
HETATM   14  N   UNL     1     -40.383 -49.982  10.371  1.00  0.00     0.078 N 
HETATM   15  H   UNL     1     -41.180 -50.492   9.992  1.00  0.00     0.312 HD
HETATM   16  H   UNL     1     -39.556 -50.503  10.082  1.00  0.00     0.312 HD
ENDBRANCH  13  14
ENDBRANCH  12  13
ENDBRANCH   1  12
TORSDOF 3
ENDMDL
MODEL 8
REMARK VINA RESULT:      -4.3      3.842      4.939
REMARK  3 active torsions:
REMARK  status: ('A' for Active; 'I' for Inactive)
REMARK    1  A    between atoms: N_1  and  C_2 
REMARK    2  A    between atoms: C_2  and  C_3 
REMARK    3  A    between atoms: C_3  and  C_4 
ROOT
HETATM    1  C   UNL     1     -42.974 -52.869  12.553  1.00  0.00     0.019 A 
HETATM    2  C   UNL     1     -41.870 -53.525  13.055  1.00  0.00     0.078 A 
HETATM    3  S   UNL     1     -40.489 -52.533  12.918  1.00  0.00    -0.064 SA
HETATM    4  C   UNL     1     -41.452 -51.265  12.234  1.00  0.00     0.146 A 
HETATM    5  N   UNL     1     -42.723 -51.588  12.093  1.00  0.00    -0.340 N 
ATOM      6  HN  UNL     1     -43.431 -50.971  11.695  1.00  0.00     0.168 HD
HETATM    7  N   UNL     1     -40.951 -50.045  11.918  1.00  0.00    -0.361 N 
HETATM    8  C   UNL     1     -41.796 -49.008  11.355  1.00  0.00     0.125 C 
HETATM    9  C   UNL     1     -40.870 -47.795  11.215  1.00  0.00     0.021 C 
HETATM   10  C   UNL     1     -39.558 -48.204  11.876  1.00  0.00     0.021 C 
HETATM   11  C   UNL     1     -39.548 -49.723  11.776  1.00  0.00     0.125 C 
ENDROOT
BRANCH   1  12
HETATM   12  C   UNL     1     -44.364 -53.412  12.465  1.00  0.00     0.087 C 
BRANCH  12  13
HETATM   13  C   UNL     1     -45.405 -52.348  12.826  1.00  0.00     0.272 C 
BRANCH  13  14
HETATM   14  N   UNL     1     -46.488 -52.294  11.840  1.00  0.00     0.078 N 
HETATM   15  H   UNL     1     -46.670 -53.237  11.498  1.00  0.00     0.312 HD
HETATM   16  H   UNL     1     -46.177 -51.758  11.030  1.00  0.00     0.312 HD
ENDBRANCH  13  14
ENDBRANCH  12  13
ENDBRANCH   1  12
TORSDOF 3
ENDMDL
MODEL 9
REMARK VINA RESULT:      -4.2      4.795      5.992
REMARK  3 active torsions:
REMARK  status: ('A' for Active; 'I' for Inactive)
REMARK    1  A    between atoms: N_1  and  C_2 
REMARK    2  A    between atoms: C_2  and  C_3 
REMARK    3  A    between atoms: C_3  and  C_4 
ROOT
HETATM    1  C   UNL     1     -42.245 -50.058  12.181  1.00  0.00     0.019 A 
HETATM    2  C   UNL     1     -41.160 -50.871  11.934  1.00  0.00     0.078 A 
HETATM    3  S   UNL     1     -41.507 -52.471  12.411  1.00  0.00    -0.064 SA
HETATM    4  C   UNL     1     -43.106 -51.996  12.884  1.00  0.00     0.146 A 
HETATM    5  N   UNL     1     -43.343 -50.710  12.718  1.00  0.00    -0.340 N 
ATOM      6  HN  UNL     1     -44.223 -50.252  12.955  1.00  0.00     0.168 HD
HETATM    7  N   UNL     1     -44.034 -52.874  13.337  1.00  0.00    -0.361 N 
HETATM    8  C   UNL     1     -45.365 -52.435  13.713  1.00  0.00     0.125 C 
HETATM    9  C   UNL     1     -46.100 -53.725  14.094  1.00  0.00     0.021 C 
HETATM   10  C   UNL     1     -45.142 -54.859  13.745  1.00  0.00     0.021 C 
HETATM   11  C   UNL     1     -43.764 -54.215  13.809  1.00  0.00     0.125 C 
ENDROOT
BRANCH   1  12
HETATM   12  C   UNL     1     -42.327 -48.586  11.932  1.00  0.00     0.087 C 
BRANCH  12  13
HETATM   13  C   UNL     1     -41.535 -48.184  10.684  1.00  0.00     0.272 C 
BRANCH  13  14
HETATM   14  N   UNL     1     -42.368 -48.219   9.479  1.00  0.00     0.078 N 
HETATM   15  H   UNL     1     -42.095 -47.450   8.868  1.00  0.00     0.312 HD
HETATM   16  H   UNL     1     -43.338 -48.039   9.736  1.00  0.00     0.312 HD
ENDBRANCH  13  14
ENDBRANCH  12  13
ENDBRANCH   1  12
TORSDOF 3
ENDMDL
