MODEL 1
REMARK VINA RESULT:      -6.5      0.000      0.000
REMARK  5 active torsions:
REMARK  status: ('A' for Active; 'I' for Inactive)
REMARK    1  A    between atoms: S_2  and  C_3 
REMARK    2  A    between atoms: C_8  and  N_9 
REMARK       I    between atoms: N_9  and  C_10 
REMARK       I    between atoms: C_10  and  N_12 
REMARK    3  A    between atoms: N_12  and  C_13 
REMARK    4  A    between atoms: C_13  and  C_14 
REMARK    5  A    between atoms: C_14  and  C_15 
ROOT
HETATM    1  N   UNL     1     -43.791 -50.632  12.556  1.00  0.00    -0.337 N 
HETATM    2  C   UNL     1     -43.039 -49.485  12.559  1.00  0.00     0.316 C 
HETATM    3  O   UNL     1     -42.871 -48.767  13.533  1.00  0.00    -0.247 OA
HETATM    4  N   UNL     1     -42.469 -49.240  11.335  1.00  0.00    -0.343 N 
HETATM    5  H   UNL     1     -44.164 -50.936  11.666  1.00  0.00     0.164 HD
HETATM    6  H   UNL     1     -42.291 -50.069  10.780  1.00  0.00     0.164 HD
ENDROOT
BRANCH   1   7
HETATM    7  C   UNL     1     -44.526 -51.026  13.753  1.00  0.00     0.099 C 
HETATM    8  C   UNL     1     -43.878 -52.211  14.517  1.00  0.00     0.069 C 
HETATM    9  C   UNL     1     -44.665 -52.404  15.826  1.00  0.00     0.017 C 
HETATM   10  C   UNL     1     -46.156 -52.652  15.593  1.00  0.00     0.001 C 
HETATM   11  C   UNL     1     -46.792 -51.549  14.747  1.00  0.00     0.002 C 
HETATM   12  C   UNL     1     -46.017 -51.269  13.459  1.00  0.00     0.026 C 
BRANCH   8  13
HETATM   13  S   UNL     1     -43.797 -53.755  13.496  1.00  0.00    -0.167 SA
HETATM   14  C   UNL     1     -42.000 -53.919  13.291  1.00  0.00     0.090 C 
ENDBRANCH   8  13
ENDBRANCH   1   7
BRANCH   4  15
HETATM   15  C   UNL     1     -41.525 -48.142  11.167  1.00  0.00     0.132 C 
BRANCH  15  16
HETATM   16  C   UNL     1     -42.163 -46.875  10.588  1.00  0.00     0.106 C 
BRANCH  16  17
HETATM   17  C   UNL     1     -43.409 -47.195   9.851  1.00  0.00     0.149 A 
HETATM   18  N   UNL     1     -44.657 -46.943  10.178  1.00  0.00    -0.327 N 
HETATM   19  C   UNL     1     -45.342 -47.472   9.117  1.00  0.00     0.100 A 
ATOM     20  HN  UNL     1     -45.022 -46.476  11.008  1.00  0.00     0.169 HD
HETATM   21  C   UNL     1     -46.814 -47.453   9.039  1.00  0.00     0.091 C 
HETATM   22  N   UNL     1     -44.575 -48.007   8.156  1.00  0.00    -0.248 N 
HETATM   23  O   UNL     1     -43.279 -47.824   8.646  1.00  0.00    -0.223 OA
ATOM     24  HN  UNL     1     -44.867 -48.442   7.280  1.00  0.00     0.196 HD
ENDBRANCH  16  17
ENDBRANCH  15  16
ENDBRANCH   4  15
TORSDOF 5
ENDMDL
MODEL 2
REMARK VINA RESULT:      -6.4      1.718      1.875
REMARK  5 active torsions:
REMARK  status: ('A' for Active; 'I' for Inactive)
REMARK    1  A    between atoms: S_2  and  C_3 
REMARK    2  A    between atoms: C_8  and  N_9 
REMARK       I    between atoms: N_9  and  C_10 
REMARK       I    between atoms: C_10  and  N_12 
REMARK    3  A    between atoms: N_12  and  C_13 
REMARK    4  A    between atoms: C_13  and  C_14 
REMARK    5  A    between atoms: C_14  and  C_15 
ROOT
HETATM    1  N   UNL     1     -42.749 -51.493  12.164  1.00  0.00    -0.337 N 
HETATM    2  C   UNL     1     -42.620 -50.169  12.498  1.00  0.00     0.316 C 
HETATM    3  O   UNL     1     -42.828 -49.709  13.611  1.00  0.00    -0.247 OA
HETATM    4  N   UNL     1     -42.203 -49.407  11.436  1.00  0.00    -0.343 N 
HETATM    5  H   UNL     1     -42.917 -51.707  11.190  1.00  0.00     0.164 HD
HETATM    6  H   UNL     1     -41.646 -49.908  10.752  1.00  0.00     0.164 HD
ENDROOT
BRANCH   1   7
HETATM    7  C   UNL     1     -43.241 -52.449  13.149  1.00  0.00     0.099 C 
HETATM    8  C   UNL     1     -42.119 -53.084  14.013  1.00  0.00     0.069 C 
HETATM    9  C   UNL     1     -42.797 -53.938  15.099  1.00  0.00     0.017 C 
HETATM   10  C   UNL     1     -43.719 -55.013  14.523  1.00  0.00     0.001 C 
HETATM   11  C   UNL     1     -44.767 -54.420  13.581  1.00  0.00     0.002 C 
HETATM   12  C   UNL     1     -44.157 -53.511  12.513  1.00  0.00     0.026 C 
BRANCH   8  13
HETATM   13  S   UNL     1     -40.903 -54.049  12.999  1.00  0.00    -0.167 SA
HETATM   14  C   UNL     1     -39.516 -54.156  14.166  1.00  0.00     0.090 C 
ENDBRANCH   8  13
ENDBRANCH   1   7
BRANCH   4  15
HETATM   15  C   UNL     1     -41.877 -47.999  11.619  1.00  0.00     0.132 C 
BRANCH  15  16
HETATM   16  C   UNL     1     -41.989 -47.176  10.333  1.00  0.00     0.106 C 
BRANCH  16  17
HETATM   17  C   UNL     1     -43.310 -47.373   9.687  1.00  0.00     0.149 A 
HETATM   18  N   UNL     1     -44.509 -47.082  10.140  1.00  0.00    -0.327 N 
HETATM   19  C   UNL     1     -45.311 -47.491   9.108  1.00  0.00     0.100 A 
ATOM     20  HN  UNL     1     -44.774 -46.662  11.031  1.00  0.00     0.169 HD
HETATM   21  C   UNL     1     -46.780 -47.391   9.162  1.00  0.00     0.091 C 
HETATM   22  N   UNL     1     -44.659 -47.990   8.047  1.00  0.00    -0.248 N 
HETATM   23  O   UNL     1     -43.319 -47.913   8.433  1.00  0.00    -0.223 OA
ATOM     24  HN  UNL     1     -45.049 -48.341   7.172  1.00  0.00     0.196 HD
ENDBRANCH  16  17
ENDBRANCH  15  16
ENDBRANCH   4  15
TORSDOF 5
ENDMDL
MODEL 3
REMARK VINA RESULT:      -5.9      2.821      6.568
REMARK  5 active torsions:
REMARK  status: ('A' for Active; 'I' for Inactive)
REMARK    1  A    between atoms: S_2  and  C_3 
REMARK    2  A    between atoms: C_8  and  N_9 
REMARK       I    between atoms: N_9  and  C_10 
REMARK       I    between atoms: C_10  and  N_12 
REMARK    3  A    between atoms: N_12  and  C_13 
REMARK    4  A    between atoms: C_13  and  C_14 
REMARK    5  A    between atoms: C_14  and  C_15 
ROOT
HETATM    1  N   UNL     1     -42.345 -49.581  11.491  1.00  0.00    -0.337 N 
HETATM    2  C   UNL     1     -41.820 -50.534  12.327  1.00  0.00     0.316 C 
HETATM    3  O   UNL     1     -41.061 -50.301  13.256  1.00  0.00    -0.247 OA
HETATM    4  N   UNL     1     -42.263 -51.794  12.015  1.00  0.00    -0.343 N 
HETATM    5  H   UNL     1     -42.639 -49.886  10.573  1.00  0.00     0.164 HD
HETATM    6  H   UNL     1     -43.176 -51.822  11.576  1.00  0.00     0.164 HD
ENDROOT
BRANCH   1   7
HETATM    7  C   UNL     1     -41.941 -48.187  11.630  1.00  0.00     0.099 C 
HETATM    8  C   UNL     1     -43.015 -47.178  11.142  1.00  0.00     0.069 C 
HETATM    9  C   UNL     1     -42.519 -45.765  11.496  1.00  0.00     0.017 C 
HETATM   10  C   UNL     1     -41.151 -45.445  10.891  1.00  0.00     0.001 C 
HETATM   11  C   UNL     1     -40.101 -46.488  11.270  1.00  0.00     0.002 C 
HETATM   12  C   UNL     1     -40.563 -47.920  10.997  1.00  0.00     0.026 C 
BRANCH   8  13
HETATM   13  S   UNL     1     -43.403 -47.370   9.340  1.00  0.00    -0.167 SA
HETATM   14  C   UNL     1     -45.217 -47.415   9.398  1.00  0.00     0.090 C 
ENDBRANCH   8  13
ENDBRANCH   1   7
BRANCH   4  15
HETATM   15  C   UNL     1     -41.926 -52.928  12.867  1.00  0.00     0.132 C 
BRANCH  15  16
HETATM   16  C   UNL     1     -43.067 -53.937  13.016  1.00  0.00     0.106 C 
BRANCH  16  17
HETATM   17  C   UNL     1     -44.363 -53.248  13.230  1.00  0.00     0.149 A 
HETATM   18  N   UNL     1     -44.787 -52.581  14.280  1.00  0.00    -0.327 N 
HETATM   19  C   UNL     1     -46.038 -52.189  13.883  1.00  0.00     0.100 A 
ATOM     20  HN  UNL     1     -44.309 -52.403  15.163  1.00  0.00     0.169 HD
HETATM   21  C   UNL     1     -46.937 -51.415  14.757  1.00  0.00     0.091 C 
HETATM   22  N   UNL     1     -46.382 -52.562  12.642  1.00  0.00    -0.248 N 
HETATM   23  O   UNL     1     -45.262 -53.273  12.202  1.00  0.00    -0.223 OA
ATOM     24  HN  UNL     1     -47.250 -52.373  12.140  1.00  0.00     0.196 HD
ENDBRANCH  16  17
ENDBRANCH  15  16
ENDBRANCH   4  15
TORSDOF 5
ENDMDL
MODEL 4
REMARK VINA RESULT:      -5.9      1.560      2.536
REMARK  5 active torsions:
REMARK  status: ('A' for Active; 'I' for Inactive)
REMARK    1  A    between atoms: S_2  and  C_3 
REMARK    2  A    between atoms: C_8  and  N_9 
REMARK       I    between atoms: N_9  and  C_10 
REMARK       I    between atoms: C_10  and  N_12 
REMARK    3  A    between atoms: N_12  and  C_13 
REMARK    4  A    between atoms: C_13  and  C_14 
REMARK    5  A    between atoms: C_14  and  C_15 
ROOT
HETATM    1  N   UNL     1     -43.197 -51.176  12.728  1.00  0.00    -0.337 N 
HETATM    2  C   UNL     1     -42.139 -50.605  12.069  1.00  0.00     0.316 C 
HETATM    3  O   UNL     1     -41.116 -51.195  11.752  1.00  0.00    -0.247 OA
HETATM    4  N   UNL     1     -42.365 -49.283  11.779  1.00  0.00    -0.343 N 
HETATM    5  H   UNL     1     -43.799 -50.558  13.254  1.00  0.00     0.164 HD
HETATM    6  H   UNL     1     -43.342 -49.039  11.664  1.00  0.00     0.164 HD
ENDROOT
BRANCH   1   7
HETATM    7  C   UNL     1     -43.116 -52.563  13.174  1.00  0.00     0.099 C 
HETATM    8  C   UNL     1     -44.501 -53.208  13.449  1.00  0.00     0.069 C 
HETATM    9  C   UNL     1     -44.265 -54.699  13.752  1.00  0.00     0.017 C 
HETATM   10  C   UNL     1     -43.312 -54.925  14.926  1.00  0.00     0.001 C 
HETATM   11  C   UNL     1     -41.979 -54.205  14.725  1.00  0.00     0.002 C 
HETATM   12  C   UNL     1     -42.150 -52.730  14.361  1.00  0.00     0.026 C 
BRANCH   8  13
HETATM   13  S   UNL     1     -45.432 -52.342  14.797  1.00  0.00    -0.167 SA
HETATM   14  C   UNL     1     -47.007 -53.244  14.738  1.00  0.00     0.090 C 
ENDBRANCH   8  13
ENDBRANCH   1   7
BRANCH   4  15
HETATM   15  C   UNL     1     -41.417 -48.533  10.964  1.00  0.00     0.132 C 
BRANCH  15  16
HETATM   16  C   UNL     1     -41.969 -47.194  10.467  1.00  0.00     0.106 C 
BRANCH  16  17
HETATM   17  C   UNL     1     -43.270 -47.376   9.780  1.00  0.00     0.149 A 
HETATM   18  N   UNL     1     -44.480 -47.068  10.193  1.00  0.00    -0.327 N 
HETATM   19  C   UNL     1     -45.253 -47.470   9.137  1.00  0.00     0.100 A 
ATOM     20  HN  UNL     1     -44.768 -46.640  11.074  1.00  0.00     0.169 HD
HETATM   21  C   UNL     1     -46.722 -47.350   9.143  1.00  0.00     0.091 C 
HETATM   22  N   UNL     1     -44.575 -47.982   8.099  1.00  0.00    -0.248 N 
HETATM   23  O   UNL     1     -43.246 -47.921   8.528  1.00  0.00    -0.223 OA
ATOM     24  HN  UNL     1     -44.940 -48.330   7.213  1.00  0.00     0.196 HD
ENDBRANCH  16  17
ENDBRANCH  15  16
ENDBRANCH   4  15
TORSDOF 5
ENDMDL
MODEL 5
REMARK VINA RESULT:      -5.7      3.197      4.588
REMARK  5 active torsions:
REMARK  status: ('A' for Active; 'I' for Inactive)
REMARK    1  A    between atoms: S_2  and  C_3 
REMARK    2  A    between atoms: C_8  and  N_9 
REMARK       I    between atoms: N_9  and  C_10 
REMARK       I    between atoms: C_10  and  N_12 
REMARK    3  A    between atoms: N_12  and  C_13 
REMARK    4  A    between atoms: C_13  and  C_14 
REMARK    5  A    between atoms: C_14  and  C_15 
ROOT
HETATM    1  N   UNL     1     -41.493 -52.168  13.851  1.00  0.00    -0.337 N 
HETATM    2  C   UNL     1     -40.183 -52.345  13.488  1.00  0.00     0.316 C 
HETATM    3  O   UNL     1     -39.733 -53.362  12.981  1.00  0.00    -0.247 OA
HETATM    4  N   UNL     1     -39.423 -51.230  13.740  1.00  0.00    -0.343 N 
HETATM    5  H   UNL     1     -41.683 -51.481  14.569  1.00  0.00     0.164 HD
HETATM    6  H   UNL     1     -39.937 -50.357  13.715  1.00  0.00     0.164 HD
ENDROOT
BRANCH   1   7
HETATM    7  C   UNL     1     -42.442 -53.267  13.716  1.00  0.00     0.099 C 
HETATM    8  C   UNL     1     -43.766 -52.861  13.014  1.00  0.00     0.069 C 
HETATM    9  C   UNL     1     -44.590 -54.144  12.801  1.00  0.00     0.017 C 
HETATM   10  C   UNL     1     -44.868 -54.896  14.104  1.00  0.00     0.001 C 
HETATM   11  C   UNL     1     -43.582 -55.210  14.866  1.00  0.00     0.002 C 
HETATM   12  C   UNL     1     -42.690 -53.983  15.056  1.00  0.00     0.026 C 
BRANCH   8  13
HETATM   13  S   UNL     1     -44.696 -51.560  13.951  1.00  0.00    -0.167 SA
HETATM   14  C   UNL     1     -46.280 -51.587  13.064  1.00  0.00     0.090 C 
ENDBRANCH   8  13
ENDBRANCH   1   7
BRANCH   4  15
HETATM   15  C   UNL     1     -38.034 -51.169  13.302  1.00  0.00     0.132 C 
BRANCH  15  16
HETATM   16  C   UNL     1     -37.845 -50.416  11.982  1.00  0.00     0.106 C 
BRANCH  16  17
HETATM   17  C   UNL     1     -38.990 -49.513  11.714  1.00  0.00     0.149 A 
HETATM   18  N   UNL     1     -39.934 -49.613  10.805  1.00  0.00    -0.327 N 
HETATM   19  C   UNL     1     -40.689 -48.498  11.053  1.00  0.00     0.100 A 
ATOM     20  HN  UNL     1     -40.069 -50.335  10.097  1.00  0.00     0.169 HD
HETATM   21  C   UNL     1     -41.877 -48.154  10.252  1.00  0.00     0.091 C 
HETATM   22  N   UNL     1     -40.266 -47.743  12.078  1.00  0.00    -0.248 N 
HETATM   23  O   UNL     1     -39.127 -48.421  12.522  1.00  0.00    -0.223 OA
ATOM     24  HN  UNL     1     -40.676 -46.884  12.444  1.00  0.00     0.196 HD
ENDBRANCH  16  17
ENDBRANCH  15  16
ENDBRANCH   4  15
TORSDOF 5
ENDMDL
MODEL 6
REMARK VINA RESULT:      -5.6      2.684      3.871
REMARK  5 active torsions:
REMARK  status: ('A' for Active; 'I' for Inactive)
REMARK    1  A    between atoms: S_2  and  C_3 
REMARK    2  A    between atoms: C_8  and  N_9 
REMARK       I    between atoms: N_9  and  C_10 
REMARK       I    between atoms: C_10  and  N_12 
REMARK    3  A    between atoms: N_12  and  C_13 
REMARK    4  A    between atoms: C_13  and  C_14 
REMARK    5  A    between atoms: C_14  and  C_15 
ROOT
HETATM    1  N   UNL     1     -43.433 -51.434  12.722  1.00  0.00    -0.337 N 
HETATM    2  C   UNL     1     -43.401 -50.149  13.200  1.00  0.00     0.316 C 
HETATM    3  O   UNL     1     -43.448 -49.846  14.383  1.00  0.00    -0.247 OA
HETATM    4  N   UNL     1     -43.286 -49.226  12.191  1.00  0.00    -0.343 N 
HETATM    5  H   UNL     1     -43.756 -51.564  11.773  1.00  0.00     0.164 HD
HETATM    6  H   UNL     1     -42.813 -49.567  11.362  1.00  0.00     0.164 HD
ENDROOT
BRANCH   1   7
HETATM    7  C   UNL     1     -43.613 -52.551  13.643  1.00  0.00     0.099 C 
HETATM    8  C   UNL     1     -42.284 -53.078  14.247  1.00  0.00     0.069 C 
HETATM    9  C   UNL     1     -42.644 -54.134  15.307  1.00  0.00     0.017 C 
HETATM   10  C   UNL     1     -43.484 -55.281  14.744  1.00  0.00     0.001 C 
HETATM   11  C   UNL     1     -44.746 -54.776  14.048  1.00  0.00     0.002 C 
HETATM   12  C   UNL     1     -44.458 -53.678  13.023  1.00  0.00     0.026 C 
BRANCH   8  13
HETATM   13  S   UNL     1     -41.125 -53.727  12.955  1.00  0.00    -0.167 SA
HETATM   14  C   UNL     1     -39.725 -54.232  13.994  1.00  0.00     0.090 C 
ENDBRANCH   8  13
ENDBRANCH   1   7
BRANCH   4  15
HETATM   15  C   UNL     1     -43.101 -47.814  12.500  1.00  0.00     0.132 C 
BRANCH  15  16
HETATM   16  C   UNL     1     -41.855 -47.207  11.848  1.00  0.00     0.106 C 
BRANCH  16  17
HETATM   17  C   UNL     1     -40.841 -48.251  11.564  1.00  0.00     0.149 A 
HETATM   18  N   UNL     1     -39.732 -48.532  12.212  1.00  0.00    -0.327 N 
HETATM   19  C   UNL     1     -39.231 -49.576  11.481  1.00  0.00     0.100 A 
ATOM     20  HN  UNL     1     -39.345 -48.087  13.044  1.00  0.00     0.169 HD
HETATM   21  C   UNL     1     -37.954 -50.232  11.813  1.00  0.00     0.091 C 
HETATM   22  N   UNL     1     -39.989 -49.956  10.441  1.00  0.00    -0.248 N 
HETATM   23  O   UNL     1     -41.067 -49.068  10.494  1.00  0.00    -0.223 OA
ATOM     24  HN  UNL     1     -39.819 -50.709   9.774  1.00  0.00     0.196 HD
ENDBRANCH  16  17
ENDBRANCH  15  16
ENDBRANCH   4  15
TORSDOF 5
ENDMDL
MODEL 7
REMARK VINA RESULT:      -5.3      2.301      3.308
REMARK  5 active torsions:
REMARK  status: ('A' for Active; 'I' for Inactive)
REMARK    1  A    between atoms: S_2  and  C_3 
REMARK    2  A    between atoms: C_8  and  N_9 
REMARK       I    between atoms: N_9  and  C_10 
REMARK       I    between atoms: C_10  and  N_12 
REMARK    3  A    between atoms: N_12  and  C_13 
REMARK    4  A    between atoms: C_13  and  C_14 
REMARK    5  A    between atoms: C_14  and  C_15 
ROOT
HETATM    1  N   UNL     1     -43.718 -51.033  12.863  1.00  0.00    -0.337 N 
HETATM    2  C   UNL     1     -42.885 -49.945  12.788  1.00  0.00     0.316 C 
HETATM    3  O   UNL     1     -42.742 -49.117  13.675  1.00  0.00    -0.247 OA
HETATM    4  N   UNL     1     -42.203 -49.899  11.598  1.00  0.00    -0.343 N 
HETATM    5  H   UNL     1     -44.040 -51.426  11.989  1.00  0.00     0.164 HD
HETATM    6  H   UNL     1     -42.044 -50.803  11.169  1.00  0.00     0.164 HD
ENDROOT
BRANCH   1   7
HETATM    7  C   UNL     1     -44.572 -51.219  14.030  1.00  0.00     0.099 C 
HETATM    8  C   UNL     1     -44.103 -52.364  14.967  1.00  0.00     0.069 C 
HETATM    9  C   UNL     1     -44.997 -52.334  16.219  1.00  0.00     0.017 C 
HETATM   10  C   UNL     1     -46.485 -52.468  15.892  1.00  0.00     0.001 C 
HETATM   11  C   UNL     1     -46.945 -51.415  14.885  1.00  0.00     0.002 C 
HETATM   12  C   UNL     1     -46.055 -51.355  13.642  1.00  0.00     0.026 C 
BRANCH   8  13
HETATM   13  S   UNL     1     -44.105 -54.015  14.125  1.00  0.00    -0.167 SA
HETATM   14  C   UNL     1     -42.417 -54.573  14.494  1.00  0.00     0.090 C 
ENDBRANCH   8  13
ENDBRANCH   1   7
BRANCH   4  15
HETATM   15  C   UNL     1     -41.170 -48.895  11.378  1.00  0.00     0.132 C 
BRANCH  15  16
HETATM   16  C   UNL     1     -41.650 -47.700  10.549  1.00  0.00     0.106 C 
BRANCH  16  17
HETATM   17  C   UNL     1     -40.946 -46.457  10.948  1.00  0.00     0.149 A 
HETATM   18  N   UNL     1     -40.222 -46.218  12.019  1.00  0.00    -0.327 N 
HETATM   19  C   UNL     1     -39.846 -44.916  11.824  1.00  0.00     0.100 A 
ATOM     20  HN  UNL     1     -39.998 -46.842  12.795  1.00  0.00     0.169 HD
HETATM   21  C   UNL     1     -39.023 -44.178  12.798  1.00  0.00     0.091 C 
HETATM   22  N   UNL     1     -40.283 -44.363  10.683  1.00  0.00    -0.248 N 
HETATM   23  O   UNL     1     -41.022 -45.394  10.095  1.00  0.00    -0.223 OA
ATOM     24  HN  UNL     1     -40.117 -43.421  10.331  1.00  0.00     0.196 HD
ENDBRANCH  16  17
ENDBRANCH  15  16
ENDBRANCH   4  15
TORSDOF 5
ENDMDL
MODEL 8
REMARK VINA RESULT:      -5.2      3.380      6.405
REMARK  5 active torsions:
REMARK  status: ('A' for Active; 'I' for Inactive)
REMARK    1  A    between atoms: S_2  and  C_3 
REMARK    2  A    between atoms: C_8  and  N_9 
REMARK       I    between atoms: N_9  and  C_10 
REMARK       I    between atoms: C_10  and  N_12 
REMARK    3  A    between atoms: N_12  and  C_13 
REMARK    4  A    between atoms: C_13  and  C_14 
REMARK    5  A    between atoms: C_14  and  C_15 
ROOT
HETATM    1  N   UNL     1     -41.576 -49.309  11.720  1.00  0.00    -0.337 N 
HETATM    2  C   UNL     1     -40.976 -50.518  11.962  1.00  0.00     0.316 C 
HETATM    3  O   UNL     1     -39.819 -50.659  12.330  1.00  0.00    -0.247 OA
HETATM    4  N   UNL     1     -41.835 -51.569  11.762  1.00  0.00    -0.343 N 
HETATM    5  H   UNL     1     -42.367 -49.305  11.090  1.00  0.00     0.164 HD
HETATM    6  H   UNL     1     -42.813 -51.347  11.912  1.00  0.00     0.164 HD
ENDROOT
BRANCH   1   7
HETATM    7  C   UNL     1     -40.801 -48.077  11.821  1.00  0.00     0.099 C 
HETATM    8  C   UNL     1     -40.854 -47.424  13.229  1.00  0.00     0.069 C 
HETATM    9  C   UNL     1     -39.873 -46.238  13.226  1.00  0.00     0.017 C 
HETATM   10  C   UNL     1     -40.181 -45.213  12.135  1.00  0.00     0.001 C 
HETATM   11  C   UNL     1     -40.243 -45.855  10.750  1.00  0.00     0.002 C 
HETATM   12  C   UNL     1     -41.158 -47.080  10.704  1.00  0.00     0.026 C 
BRANCH   8  13
HETATM   13  S   UNL     1     -42.571 -46.932  13.720  1.00  0.00    -0.167 SA
HETATM   14  C   UNL     1     -42.821 -48.007  15.162  1.00  0.00     0.090 C 
ENDBRANCH   8  13
ENDBRANCH   1   7
BRANCH   4  15
HETATM   15  C   UNL     1     -41.429 -52.929  12.094  1.00  0.00     0.132 C 
BRANCH  15  16
HETATM   16  C   UNL     1     -42.293 -53.574  13.182  1.00  0.00     0.106 C 
BRANCH  16  17
HETATM   17  C   UNL     1     -43.675 -53.037  13.152  1.00  0.00     0.149 A 
HETATM   18  N   UNL     1     -44.326 -52.364  14.074  1.00  0.00    -0.327 N 
HETATM   19  C   UNL     1     -45.538 -52.153  13.471  1.00  0.00     0.100 A 
ATOM     20  HN  UNL     1     -44.011 -52.075  15.000  1.00  0.00     0.169 HD
HETATM   21  C   UNL     1     -46.641 -51.443  14.142  1.00  0.00     0.091 C 
HETATM   22  N   UNL     1     -45.645 -52.640  12.226  1.00  0.00    -0.248 N 
HETATM   23  O   UNL     1     -44.398 -53.234  12.010  1.00  0.00    -0.223 OA
ATOM     24  HN  UNL     1     -46.442 -52.589  11.592  1.00  0.00     0.196 HD
ENDBRANCH  16  17
ENDBRANCH  15  16
ENDBRANCH   4  15
TORSDOF 5
ENDMDL
MODEL 9
REMARK VINA RESULT:      -5.2      2.788      3.746
REMARK  5 active torsions:
REMARK  status: ('A' for Active; 'I' for Inactive)
REMARK    1  A    between atoms: S_2  and  C_3 
REMARK    2  A    between atoms: C_8  and  N_9 
REMARK       I    between atoms: N_9  and  C_10 
REMARK       I    between atoms: C_10  and  N_12 
REMARK    3  A    between atoms: N_12  and  C_13 
REMARK    4  A    between atoms: C_13  and  C_14 
REMARK    5  A    between atoms: C_14  and  C_15 
ROOT
HETATM    1  N   UNL     1     -42.766 -52.053  13.545  1.00  0.00    -0.337 N 
HETATM    2  C   UNL     1     -41.663 -51.275  13.787  1.00  0.00     0.316 C 
HETATM    3  O   UNL     1     -41.681 -50.209  14.384  1.00  0.00    -0.247 OA
HETATM    4  N   UNL     1     -40.514 -51.843  13.296  1.00  0.00    -0.343 N 
HETATM    5  H   UNL     1     -42.718 -52.689  12.760  1.00  0.00     0.164 HD
HETATM    6  H   UNL     1     -40.532 -52.856  13.250  1.00  0.00     0.164 HD
ENDROOT
BRANCH   1   7
HETATM    7  C   UNL     1     -44.090 -51.585  13.939  1.00  0.00     0.099 C 
HETATM    8  C   UNL     1     -44.435 -51.877  15.424  1.00  0.00     0.069 C 
HETATM    9  C   UNL     1     -45.777 -51.191  15.732  1.00  0.00     0.017 C 
HETATM   10  C   UNL     1     -46.906 -51.648  14.807  1.00  0.00     0.001 C 
HETATM   11  C   UNL     1     -46.543 -51.470  13.333  1.00  0.00     0.002 C 
HETATM   12  C   UNL     1     -45.186 -52.080  12.979  1.00  0.00     0.026 C 
BRANCH   8  13
HETATM   13  S   UNL     1     -44.454 -53.691  15.805  1.00  0.00    -0.167 SA
HETATM   14  C   UNL     1     -45.257 -53.676  17.432  1.00  0.00     0.090 C 
ENDBRANCH   8  13
ENDBRANCH   1   7
BRANCH   4  15
HETATM   15  C   UNL     1     -39.216 -51.238  13.568  1.00  0.00     0.132 C 
BRANCH  15  16
HETATM   16  C   UNL     1     -38.583 -50.580  12.339  1.00  0.00     0.106 C 
BRANCH  16  17
HETATM   17  C   UNL     1     -39.489 -49.562  11.753  1.00  0.00     0.149 A 
HETATM   18  N   UNL     1     -39.545 -48.269  11.981  1.00  0.00    -0.327 N 
HETATM   19  C   UNL     1     -40.567 -47.879  11.157  1.00  0.00     0.100 A 
ATOM     20  HN  UNL     1     -38.975 -47.702  12.609  1.00  0.00     0.169 HD
HETATM   21  C   UNL     1     -41.031 -46.482  11.081  1.00  0.00     0.091 C 
HETATM   22  N   UNL     1     -41.115 -48.862  10.427  1.00  0.00    -0.248 N 
HETATM   23  O   UNL     1     -40.394 -49.991  10.826  1.00  0.00    -0.223 OA
ATOM     24  HN  UNL     1     -41.872 -48.800   9.747  1.00  0.00     0.196 HD
ENDBRANCH  16  17
ENDBRANCH  15  16
ENDBRANCH   4  15
TORSDOF 5
ENDMDL
