MODEL 1
REMARK VINA RESULT:      -6.5      0.000      0.000
REMARK  6 active torsions:
REMARK  status: ('A' for Active; 'I' for Inactive)
REMARK    1  A    between atoms: C_2  and  C_3 
REMARK       I    between atoms: C_2  and  N_13 
REMARK    2  A    between atoms: C_3  and  N_4 
REMARK    3  A    between atoms: N_4  and  C_5 
REMARK    4  A    between atoms: C_5  and  C_6 
REMARK    5  A    between atoms: C_6  and  N_7 
REMARK    6  A    between atoms: N_13  and  C_14 
ROOT
HETATM    1  O   UNL     1     -42.703 -52.441  14.051  1.00  0.00    -0.272 OA
HETATM    2  C   UNL     1     -42.697 -52.747  12.861  1.00  0.00     0.246 C 
HETATM    3  N   UNL     1     -43.848 -52.985  12.137  1.00  0.00    -0.346 N 
HETATM    4  H   UNL     1     -43.802 -52.894  11.126  1.00  0.00     0.163 HD
ENDROOT
BRANCH   2   5
HETATM    5  C   UNL     1     -41.401 -52.904  12.059  1.00  0.00     0.371 C 
BRANCH   5   6
HETATM    6  N   UNL     1     -41.080 -51.695  11.270  1.00  0.00     0.093 N 
HETATM    7  H   UNL     1     -41.974 -51.331  10.922  1.00  0.00     0.316 HD
BRANCH   6   8
HETATM    8  C   UNL     1     -40.457 -50.618  12.065  1.00  0.00     0.291 C 
BRANCH   8   9
HETATM    9  C   UNL     1     -40.227 -49.309  11.307  1.00  0.00     0.178 C 
BRANCH   9  10
HETATM   10  N   UNL     1     -41.483 -48.658  10.984  1.00  0.00    -0.302 N 
HETATM   11  C   UNL     1     -42.508 -48.380  11.840  1.00  0.00     0.111 A 
HETATM   12  C   UNL     1     -43.481 -47.772  11.082  1.00  0.00     0.037 A 
HETATM   13  C   UNL     1     -42.949 -47.737   9.780  1.00  0.00     0.108 A 
HETATM   14  N   UNL     1     -41.731 -48.281   9.713  1.00  0.00    -0.310 N 
ATOM     15  HN  UNL     1     -41.131 -48.386   8.896  1.00  0.00     0.186 HD
ENDBRANCH   9  10
ENDBRANCH   8   9
ENDBRANCH   6   8
ENDBRANCH   5   6
ENDBRANCH   2   5
BRANCH   3  16
HETATM   16  C   UNL     1     -45.184 -52.813  12.727  1.00  0.00     0.176 C 
HETATM   17  C   UNL     1     -45.278 -51.512  13.526  1.00  0.00     0.035 C 
HETATM   18  C   UNL     1     -46.713 -51.227  13.957  1.00  0.00     0.004 C 
HETATM   19  C   UNL     1     -47.086 -51.859  15.291  1.00  0.00     0.020 C 
HETATM   20  C   UNL     1     -46.405 -53.183  15.594  1.00  0.00     0.122 C 
HETATM   21  N   UNL     1     -46.425 -54.140  14.508  1.00  0.00    -0.359 N 
HETATM   22  C   UNL     1     -45.520 -54.123  13.480  1.00  0.00     0.240 C 
HETATM   23  H   UNL     1     -46.574 -55.099  14.806  1.00  0.00     0.162 HD
HETATM   24  O   UNL     1     -45.073 -55.206  13.089  1.00  0.00    -0.271 OA
ENDBRANCH   3  16
TORSDOF 6
ENDMDL
MODEL 2
REMARK VINA RESULT:      -6.4      2.813      4.120
REMARK  6 active torsions:
REMARK  status: ('A' for Active; 'I' for Inactive)
REMARK    1  A    between atoms: C_2  and  C_3 
REMARK       I    between atoms: C_2  and  N_13 
REMARK    2  A    between atoms: C_3  and  N_4 
REMARK    3  A    between atoms: N_4  and  C_5 
REMARK    4  A    between atoms: C_5  and  C_6 
REMARK    5  A    between atoms: C_6  and  N_7 
REMARK    6  A    between atoms: N_13  and  C_14 
ROOT
HETATM    1  O   UNL     1     -41.875 -50.102  13.084  1.00  0.00    -0.272 OA
HETATM    2  C   UNL     1     -41.319 -50.222  11.995  1.00  0.00     0.246 C 
HETATM    3  N   UNL     1     -41.088 -51.443  11.395  1.00  0.00    -0.346 N 
HETATM    4  H   UNL     1     -40.949 -51.461  10.388  1.00  0.00     0.163 HD
ENDROOT
BRANCH   2   5
HETATM    5  C   UNL     1     -40.813 -49.018  11.192  1.00  0.00     0.371 C 
BRANCH   5   6
HETATM    6  N   UNL     1     -41.667 -48.728  10.019  1.00  0.00     0.093 N 
HETATM    7  H   UNL     1     -42.226 -49.572   9.852  1.00  0.00     0.316 HD
BRANCH   6   8
HETATM    8  C   UNL     1     -42.617 -47.620  10.238  1.00  0.00     0.291 C 
BRANCH   8   9
HETATM    9  C   UNL     1     -43.243 -47.047   8.965  1.00  0.00     0.178 C 
BRANCH   9  10
HETATM   10  N   UNL     1     -44.560 -47.607   8.726  1.00  0.00    -0.302 N 
HETATM   11  C   UNL     1     -45.664 -47.473   9.516  1.00  0.00     0.111 A 
HETATM   12  C   UNL     1     -46.665 -48.180   8.892  1.00  0.00     0.037 A 
HETATM   13  C   UNL     1     -46.060 -48.708   7.736  1.00  0.00     0.108 A 
HETATM   14  N   UNL     1     -44.774 -48.366   7.633  1.00  0.00    -0.310 N 
ATOM     15  HN  UNL     1     -44.111 -48.618   6.900  1.00  0.00     0.186 HD
ENDBRANCH   9  10
ENDBRANCH   8   9
ENDBRANCH   6   8
ENDBRANCH   5   6
ENDBRANCH   2   5
BRANCH   3  16
HETATM   16  C   UNL     1     -41.566 -52.701  11.989  1.00  0.00     0.176 C 
HETATM   17  C   UNL     1     -43.037 -52.601  12.396  1.00  0.00     0.035 C 
HETATM   18  C   UNL     1     -43.592 -53.960  12.812  1.00  0.00     0.004 C 
HETATM   19  C   UNL     1     -43.393 -54.274  14.289  1.00  0.00     0.020 C 
HETATM   20  C   UNL     1     -42.131 -53.698  14.910  1.00  0.00     0.122 C 
HETATM   21  N   UNL     1     -40.925 -53.902  14.138  1.00  0.00    -0.359 N 
HETATM   22  C   UNL     1     -40.558 -53.093  13.096  1.00  0.00     0.240 C 
HETATM   23  H   UNL     1     -40.107 -54.114  14.700  1.00  0.00     0.162 HD
HETATM   24  O   UNL     1     -39.365 -52.786  12.998  1.00  0.00    -0.271 OA
ENDBRANCH   3  16
TORSDOF 6
ENDMDL
MODEL 3
REMARK VINA RESULT:      -6.3      1.610      2.667
REMARK  6 active torsions:
REMARK  status: ('A' for Active; 'I' for Inactive)
REMARK    1  A    between atoms: C_2  and  C_3 
REMARK       I    between atoms: C_2  and  N_13 
REMARK    2  A    between atoms: C_3  and  N_4 
REMARK    3  A    between atoms: N_4  and  C_5 
REMARK    4  A    between atoms: C_5  and  C_6 
REMARK    5  A    between atoms: C_6  and  N_7 
REMARK    6  A    between atoms: N_13  and  C_14 
ROOT
HETATM    1  O   UNL     1     -42.788 -52.704  14.260  1.00  0.00    -0.272 OA
HETATM    2  C   UNL     1     -42.789 -52.688  13.032  1.00  0.00     0.246 C 
HETATM    3  N   UNL     1     -43.944 -52.685  12.277  1.00  0.00    -0.346 N 
HETATM    4  H   UNL     1     -43.890 -52.334  11.324  1.00  0.00     0.163 HD
ENDROOT
BRANCH   2   5
HETATM    5  C   UNL     1     -41.495 -52.678  12.209  1.00  0.00     0.371 C 
BRANCH   5   6
HETATM    6  N   UNL     1     -41.400 -51.493  11.329  1.00  0.00     0.093 N 
HETATM    7  H   UNL     1     -42.205 -51.538  10.694  1.00  0.00     0.316 HD
BRANCH   6   8
HETATM    8  C   UNL     1     -41.495 -50.210  12.052  1.00  0.00     0.291 C 
BRANCH   8   9
HETATM    9  C   UNL     1     -40.363 -49.222  11.762  1.00  0.00     0.178 C 
BRANCH   9  10
HETATM   10  N   UNL     1     -39.063 -49.856  11.891  1.00  0.00    -0.302 N 
HETATM   11  C   UNL     1     -38.526 -50.407  13.017  1.00  0.00     0.111 A 
HETATM   12  C   UNL     1     -37.284 -50.873  12.656  1.00  0.00     0.037 A 
HETATM   13  C   UNL     1     -37.164 -50.548  11.292  1.00  0.00     0.108 A 
HETATM   14  N   UNL     1     -38.246 -49.923  10.821  1.00  0.00    -0.310 N 
ATOM     15  HN  UNL     1     -38.413 -49.578   9.876  1.00  0.00     0.186 HD
ENDBRANCH   9  10
ENDBRANCH   8   9
ENDBRANCH   6   8
ENDBRANCH   5   6
ENDBRANCH   2   5
BRANCH   3  16
HETATM   16  C   UNL     1     -45.275 -52.623  12.898  1.00  0.00     0.176 C 
HETATM   17  C   UNL     1     -45.388 -51.439  13.860  1.00  0.00     0.035 C 
HETATM   18  C   UNL     1     -46.823 -51.247  14.339  1.00  0.00     0.004 C 
HETATM   19  C   UNL     1     -47.164 -52.056  15.584  1.00  0.00     0.020 C 
HETATM   20  C   UNL     1     -46.448 -53.391  15.705  1.00  0.00     0.122 C 
HETATM   21  N   UNL     1     -46.461 -54.200  14.505  1.00  0.00    -0.359 N 
HETATM   22  C   UNL     1     -45.571 -54.027  13.479  1.00  0.00     0.240 C 
HETATM   23  H   UNL     1     -46.584 -55.192  14.678  1.00  0.00     0.162 HD
HETATM   24  O   UNL     1     -45.105 -55.040  12.945  1.00  0.00    -0.271 OA
ENDBRANCH   3  16
TORSDOF 6
ENDMDL
MODEL 4
REMARK VINA RESULT:      -6.2      1.691      2.263
REMARK  6 active torsions:
REMARK  status: ('A' for Active; 'I' for Inactive)
REMARK    1  A    between atoms: C_2  and  C_3 
REMARK       I    between atoms: C_2  and  N_13 
REMARK    2  A    between atoms: C_3  and  N_4 
REMARK    3  A    between atoms: N_4  and  C_5 
REMARK    4  A    between atoms: C_5  and  C_6 
REMARK    5  A    between atoms: C_6  and  N_7 
REMARK    6  A    between atoms: N_13  and  C_14 
ROOT
HETATM    1  O   UNL     1     -43.724 -49.145  12.926  1.00  0.00    -0.272 OA
HETATM    2  C   UNL     1     -43.045 -50.139  12.679  1.00  0.00     0.246 C 
HETATM    3  N   UNL     1     -43.508 -51.429  12.841  1.00  0.00    -0.346 N 
HETATM    4  H   UNL     1     -43.051 -52.169  12.316  1.00  0.00     0.163 HD
ENDROOT
BRANCH   2   5
HETATM    5  C   UNL     1     -41.602 -50.044  12.170  1.00  0.00     0.371 C 
BRANCH   5   6
HETATM    6  N   UNL     1     -41.519 -49.416  10.833  1.00  0.00     0.093 N 
HETATM    7  H   UNL     1     -42.485 -49.302  10.507  1.00  0.00     0.316 HD
BRANCH   6   8
HETATM    8  C   UNL     1     -40.909 -48.072  10.848  1.00  0.00     0.291 C 
BRANCH   8   9
HETATM    9  C   UNL     1     -41.906 -46.912  10.864  1.00  0.00     0.178 C 
BRANCH   9  10
HETATM   10  N   UNL     1     -43.076 -47.211  10.060  1.00  0.00    -0.302 N 
HETATM   11  C   UNL     1     -43.117 -47.409   8.711  1.00  0.00     0.111 A 
HETATM   12  C   UNL     1     -44.435 -47.652   8.403  1.00  0.00     0.037 A 
HETATM   13  C   UNL     1     -45.109 -47.572   9.635  1.00  0.00     0.108 A 
HETATM   14  N   UNL     1     -44.285 -47.298  10.649  1.00  0.00    -0.310 N 
ATOM     15  HN  UNL     1     -44.516 -47.183  11.636  1.00  0.00     0.186 HD
ENDBRANCH   9  10
ENDBRANCH   8   9
ENDBRANCH   6   8
ENDBRANCH   5   6
ENDBRANCH   2   5
BRANCH   3  16
HETATM   16  C   UNL     1     -44.891 -51.710  13.255  1.00  0.00     0.176 C 
HETATM   17  C   UNL     1     -45.165 -51.195  14.669  1.00  0.00     0.035 C 
HETATM   18  C   UNL     1     -46.647 -51.293  15.018  1.00  0.00     0.004 C 
HETATM   19  C   UNL     1     -47.045 -52.632  15.624  1.00  0.00     0.020 C 
HETATM   20  C   UNL     1     -46.258 -53.830  15.121  1.00  0.00     0.122 C 
HETATM   21  N   UNL     1     -46.111 -53.901  13.683  1.00  0.00    -0.359 N 
HETATM   22  C   UNL     1     -45.146 -53.215  12.996  1.00  0.00     0.240 C 
HETATM   23  H   UNL     1     -46.184 -54.841  13.307  1.00  0.00     0.162 HD
HETATM   24  O   UNL     1     -44.569 -53.801  12.073  1.00  0.00    -0.271 OA
ENDBRANCH   3  16
TORSDOF 6
ENDMDL
MODEL 5
REMARK VINA RESULT:      -6.1      2.023      2.164
REMARK  6 active torsions:
REMARK  status: ('A' for Active; 'I' for Inactive)
REMARK    1  A    between atoms: C_2  and  C_3 
REMARK       I    between atoms: C_2  and  N_13 
REMARK    2  A    between atoms: C_3  and  N_4 
REMARK    3  A    between atoms: N_4  and  C_5 
REMARK    4  A    between atoms: C_5  and  C_6 
REMARK    5  A    between atoms: C_6  and  N_7 
REMARK    6  A    between atoms: N_13  and  C_14 
ROOT
HETATM    1  O   UNL     1     -43.292 -49.684  12.803  1.00  0.00    -0.272 OA
HETATM    2  C   UNL     1     -42.685 -50.753  12.783  1.00  0.00     0.246 C 
HETATM    3  N   UNL     1     -43.286 -51.967  13.044  1.00  0.00    -0.346 N 
HETATM    4  H   UNL     1     -42.838 -52.807  12.687  1.00  0.00     0.163 HD
ENDROOT
BRANCH   2   5
HETATM    5  C   UNL     1     -41.186 -50.842  12.475  1.00  0.00     0.371 C 
BRANCH   5   6
HETATM    6  N   UNL     1     -40.867 -50.373  11.109  1.00  0.00     0.093 N 
HETATM    7  H   UNL     1     -41.733 -50.454  10.565  1.00  0.00     0.316 HD
BRANCH   6   8
HETATM    8  C   UNL     1     -40.455 -48.956  11.051  1.00  0.00     0.291 C 
BRANCH   8   9
HETATM    9  C   UNL     1     -41.514 -47.999  10.500  1.00  0.00     0.178 C 
BRANCH   9  10
HETATM   10  N   UNL     1     -41.103 -46.615  10.650  1.00  0.00    -0.302 N 
HETATM   11  C   UNL     1     -41.877 -45.569  11.058  1.00  0.00     0.111 A 
HETATM   12  C   UNL     1     -41.061 -44.463  11.036  1.00  0.00     0.037 A 
HETATM   13  C   UNL     1     -39.817 -44.946  10.592  1.00  0.00     0.108 A 
HETATM   14  N   UNL     1     -39.838 -46.259  10.351  1.00  0.00    -0.310 N 
ATOM     15  HN  UNL     1     -39.077 -46.852  10.019  1.00  0.00     0.186 HD
ENDBRANCH   9  10
ENDBRANCH   8   9
ENDBRANCH   6   8
ENDBRANCH   5   6
ENDBRANCH   2   5
BRANCH   3  16
HETATM   16  C   UNL     1     -44.731 -52.079  13.291  1.00  0.00     0.176 C 
HETATM   17  C   UNL     1     -45.122 -51.426  14.619  1.00  0.00     0.035 C 
HETATM   18  C   UNL     1     -46.638 -51.352  14.776  1.00  0.00     0.004 C 
HETATM   19  C   UNL     1     -47.246 -52.593  15.418  1.00  0.00     0.020 C 
HETATM   20  C   UNL     1     -46.534 -53.899  15.105  1.00  0.00     0.122 C 
HETATM   21  N   UNL     1     -46.219 -54.101  13.707  1.00  0.00    -0.359 N 
HETATM   22  C   UNL     1     -45.110 -53.569  13.106  1.00  0.00     0.240 C 
HETATM   23  H   UNL     1     -46.344 -55.057  13.391  1.00  0.00     0.162 HD
HETATM   24  O   UNL     1     -44.489 -54.282  12.310  1.00  0.00    -0.271 OA
ENDBRANCH   3  16
TORSDOF 6
ENDMDL
MODEL 6
REMARK VINA RESULT:      -6.1      2.080      3.192
REMARK  6 active torsions:
REMARK  status: ('A' for Active; 'I' for Inactive)
REMARK    1  A    between atoms: C_2  and  C_3 
REMARK       I    between atoms: C_2  and  N_13 
REMARK    2  A    between atoms: C_3  and  N_4 
REMARK    3  A    between atoms: N_4  and  C_5 
REMARK    4  A    between atoms: C_5  and  C_6 
REMARK    5  A    between atoms: C_6  and  N_7 
REMARK    6  A    between atoms: N_13  and  C_14 
ROOT
HETATM    1  O   UNL     1     -40.422 -50.538  13.475  1.00  0.00    -0.272 OA
HETATM    2  C   UNL     1     -40.840 -50.623  12.323  1.00  0.00     0.246 C 
HETATM    3  N   UNL     1     -41.962 -51.347  11.978  1.00  0.00    -0.346 N 
HETATM    4  H   UNL     1     -42.437 -51.107  11.112  1.00  0.00     0.163 HD
ENDROOT
BRANCH   2   5
HETATM    5  C   UNL     1     -40.145 -49.934  11.144  1.00  0.00     0.371 C 
BRANCH   5   6
HETATM    6  N   UNL     1     -41.063 -49.053  10.388  1.00  0.00     0.093 N 
HETATM    7  H   UNL     1     -42.007 -49.425  10.536  1.00  0.00     0.316 HD
BRANCH   6   8
HETATM    8  C   UNL     1     -41.071 -47.657  10.867  1.00  0.00     0.291 C 
BRANCH   8   9
HETATM    9  C   UNL     1     -42.385 -47.202  11.505  1.00  0.00     0.178 C 
BRANCH   9  10
HETATM   10  N   UNL     1     -43.424 -47.029  10.507  1.00  0.00    -0.302 N 
HETATM   11  C   UNL     1     -43.450 -46.109   9.500  1.00  0.00     0.111 A 
HETATM   12  C   UNL     1     -44.628 -46.321   8.823  1.00  0.00     0.037 A 
HETATM   13  C   UNL     1     -45.243 -47.387   9.504  1.00  0.00     0.108 A 
HETATM   14  N   UNL     1     -44.515 -47.820  10.536  1.00  0.00    -0.310 N 
ATOM     15  HN  UNL     1     -44.733 -48.571  11.191  1.00  0.00     0.186 HD
ENDBRANCH   9  10
ENDBRANCH   8   9
ENDBRANCH   6   8
ENDBRANCH   5   6
ENDBRANCH   2   5
BRANCH   3  16
HETATM   16  C   UNL     1     -42.794 -52.017  12.989  1.00  0.00     0.176 C 
HETATM   17  C   UNL     1     -42.990 -53.498  12.659  1.00  0.00     0.035 C 
HETATM   18  C   UNL     1     -43.667 -54.238  13.808  1.00  0.00     0.004 C 
HETATM   19  C   UNL     1     -45.188 -54.210  13.739  1.00  0.00     0.020 C 
HETATM   20  C   UNL     1     -45.786 -52.952  13.131  1.00  0.00     0.122 C 
HETATM   21  N   UNL     1     -45.236 -51.712  13.635  1.00  0.00    -0.359 N 
HETATM   22  C   UNL     1     -44.074 -51.163  13.162  1.00  0.00     0.240 C 
HETATM   23  H   UNL     1     -45.925 -50.977  13.762  1.00  0.00     0.162 HD
HETATM   24  O   UNL     1     -44.041 -49.939  12.997  1.00  0.00    -0.271 OA
ENDBRANCH   3  16
TORSDOF 6
ENDMDL
MODEL 7
REMARK VINA RESULT:      -5.9      2.355      3.144
REMARK  6 active torsions:
REMARK  status: ('A' for Active; 'I' for Inactive)
REMARK    1  A    between atoms: C_2  and  C_3 
REMARK       I    between atoms: C_2  and  N_13 
REMARK    2  A    between atoms: C_3  and  N_4 
REMARK    3  A    between atoms: N_4  and  C_5 
REMARK    4  A    between atoms: C_5  and  C_6 
REMARK    5  A    between atoms: C_6  and  N_7 
REMARK    6  A    between atoms: N_13  and  C_14 
ROOT
HETATM    1  O   UNL     1     -42.600 -52.915  14.433  1.00  0.00    -0.272 OA
HETATM    2  C   UNL     1     -42.456 -53.642  13.453  1.00  0.00     0.246 C 
HETATM    3  N   UNL     1     -43.497 -54.008  12.625  1.00  0.00    -0.346 N 
HETATM    4  H   UNL     1     -43.271 -54.307  11.679  1.00  0.00     0.163 HD
ENDROOT
BRANCH   2   5
HETATM    5  C   UNL     1     -41.096 -54.226  13.056  1.00  0.00     0.371 C 
BRANCH   5   6
HETATM    6  N   UNL     1     -40.190 -54.377  14.216  1.00  0.00     0.093 N 
HETATM    7  H   UNL     1     -39.889 -55.358  14.222  1.00  0.00     0.316 HD
BRANCH   6   8
HETATM    8  C   UNL     1     -38.969 -53.553  14.125  1.00  0.00     0.291 C 
BRANCH   8   9
HETATM    9  C   UNL     1     -39.173 -52.065  14.413  1.00  0.00     0.178 C 
BRANCH   9  10
HETATM   10  N   UNL     1     -38.740 -51.247  13.295  1.00  0.00    -0.302 N 
HETATM   11  C   UNL     1     -37.458 -51.042  12.876  1.00  0.00     0.111 A 
HETATM   12  C   UNL     1     -37.543 -50.194  11.796  1.00  0.00     0.037 A 
HETATM   13  C   UNL     1     -38.919 -49.942  11.649  1.00  0.00     0.108 A 
HETATM   14  N   UNL     1     -39.654 -50.578  12.565  1.00  0.00    -0.310 N 
ATOM     15  HN  UNL     1     -40.667 -50.561  12.683  1.00  0.00     0.186 HD
ENDBRANCH   9  10
ENDBRANCH   8   9
ENDBRANCH   6   8
ENDBRANCH   5   6
ENDBRANCH   2   5
BRANCH   3  16
HETATM   16  C   UNL     1     -44.858 -53.486  12.813  1.00  0.00     0.176 C 
HETATM   17  C   UNL     1     -44.844 -51.985  13.109  1.00  0.00     0.035 C 
HETATM   18  C   UNL     1     -46.254 -51.402  13.093  1.00  0.00     0.004 C 
HETATM   19  C   UNL     1     -46.959 -51.476  14.442  1.00  0.00     0.020 C 
HETATM   20  C   UNL     1     -46.596 -52.677  15.298  1.00  0.00     0.122 C 
HETATM   21  N   UNL     1     -46.608 -53.947  14.603  1.00  0.00    -0.359 N 
HETATM   22  C   UNL     1     -45.554 -54.398  13.853  1.00  0.00     0.240 C 
HETATM   23  H   UNL     1     -46.980 -54.714  15.152  1.00  0.00     0.162 HD
HETATM   24  O   UNL     1     -45.256 -55.594  13.942  1.00  0.00    -0.271 OA
ENDBRANCH   3  16
TORSDOF 6
ENDMDL
MODEL 8
REMARK VINA RESULT:      -5.9      1.902      6.380
REMARK  6 active torsions:
REMARK  status: ('A' for Active; 'I' for Inactive)
REMARK    1  A    between atoms: C_2  and  C_3 
REMARK       I    between atoms: C_2  and  N_13 
REMARK    2  A    between atoms: C_3  and  N_4 
REMARK    3  A    between atoms: N_4  and  C_5 
REMARK    4  A    between atoms: C_5  and  C_6 
REMARK    5  A    between atoms: C_6  and  N_7 
REMARK    6  A    between atoms: N_13  and  C_14 
ROOT
HETATM    1  O   UNL     1     -42.110 -51.114  14.082  1.00  0.00    -0.272 OA
HETATM    2  C   UNL     1     -42.203 -51.383  12.887  1.00  0.00     0.246 C 
HETATM    3  N   UNL     1     -42.132 -50.431  11.890  1.00  0.00    -0.346 N 
HETATM    4  H   UNL     1     -41.876 -50.738  10.956  1.00  0.00     0.163 HD
ENDROOT
BRANCH   2   5
HETATM    5  C   UNL     1     -42.420 -52.814  12.381  1.00  0.00     0.371 C 
BRANCH   5   6
HETATM    6  N   UNL     1     -43.832 -53.076  12.028  1.00  0.00     0.093 N 
HETATM    7  H   UNL     1     -43.840 -53.331  11.034  1.00  0.00     0.316 HD
BRANCH   6   8
HETATM    8  C   UNL     1     -44.427 -54.207  12.767  1.00  0.00     0.291 C 
BRANCH   8   9
HETATM    9  C   UNL     1     -44.443 -54.044  14.289  1.00  0.00     0.178 C 
BRANCH   9  10
HETATM   10  N   UNL     1     -45.245 -52.903  14.688  1.00  0.00    -0.302 N 
HETATM   11  C   UNL     1     -46.548 -52.660  14.364  1.00  0.00     0.111 A 
HETATM   12  C   UNL     1     -46.870 -51.464  14.959  1.00  0.00     0.037 A 
HETATM   13  C   UNL     1     -45.691 -51.062  15.613  1.00  0.00     0.108 A 
HETATM   14  N   UNL     1     -44.695 -51.934  15.447  1.00  0.00    -0.310 N 
ATOM     15  HN  UNL     1     -43.743 -51.881  15.809  1.00  0.00     0.186 HD
ENDBRANCH   9  10
ENDBRANCH   8   9
ENDBRANCH   6   8
ENDBRANCH   5   6
ENDBRANCH   2   5
BRANCH   3  16
HETATM   16  C   UNL     1     -41.859 -49.018  12.187  1.00  0.00     0.176 C 
HETATM   17  C   UNL     1     -43.076 -48.140  11.889  1.00  0.00     0.035 C 
HETATM   18  C   UNL     1     -42.870 -46.715  12.394  1.00  0.00     0.004 C 
HETATM   19  C   UNL     1     -42.191 -45.801  11.381  1.00  0.00     0.020 C 
HETATM   20  C   UNL     1     -41.188 -46.481  10.465  1.00  0.00     0.122 C 
HETATM   21  N   UNL     1     -40.247 -47.354  11.135  1.00  0.00    -0.359 N 
HETATM   22  C   UNL     1     -40.537 -48.649  11.470  1.00  0.00     0.240 C 
HETATM   23  H   UNL     1     -39.305 -47.309  10.760  1.00  0.00     0.162 HD
HETATM   24  O   UNL     1     -39.658 -49.500  11.295  1.00  0.00    -0.271 OA
ENDBRANCH   3  16
TORSDOF 6
ENDMDL
MODEL 9
REMARK VINA RESULT:      -5.7      1.689      3.847
REMARK  6 active torsions:
REMARK  status: ('A' for Active; 'I' for Inactive)
REMARK    1  A    between atoms: C_2  and  C_3 
REMARK       I    between atoms: C_2  and  N_13 
REMARK    2  A    between atoms: C_3  and  N_4 
REMARK    3  A    between atoms: N_4  and  C_5 
REMARK    4  A    between atoms: C_5  and  C_6 
REMARK    5  A    between atoms: C_6  and  N_7 
REMARK    6  A    between atoms: N_13  and  C_14 
ROOT
HETATM    1  O   UNL     1     -43.296 -51.062  14.392  1.00  0.00    -0.272 OA
HETATM    2  C   UNL     1     -43.699 -50.474  13.392  1.00  0.00     0.246 C 
HETATM    3  N   UNL     1     -44.970 -50.641  12.879  1.00  0.00    -0.346 N 
HETATM    4  H   UNL     1     -45.346 -49.904  12.288  1.00  0.00     0.163 HD
ENDROOT
BRANCH   2   5
HETATM    5  C   UNL     1     -42.821 -49.497  12.602  1.00  0.00     0.371 C 
BRANCH   5   6
HETATM    6  N   UNL     1     -42.023 -50.179  11.559  1.00  0.00     0.093 N 
HETATM    7  H   UNL     1     -41.626 -49.439  10.969  1.00  0.00     0.316 HD
BRANCH   6   8
HETATM    8  C   UNL     1     -40.890 -50.957  12.096  1.00  0.00     0.291 C 
BRANCH   8   9
HETATM    9  C   UNL     1     -40.921 -52.451  11.767  1.00  0.00     0.178 C 
BRANCH   9  10
HETATM   10  N   UNL     1     -41.225 -53.244  12.944  1.00  0.00    -0.302 N 
HETATM   11  C   UNL     1     -40.416 -53.458  14.021  1.00  0.00     0.111 A 
HETATM   12  C   UNL     1     -41.125 -54.273  14.872  1.00  0.00     0.037 A 
HETATM   13  C   UNL     1     -42.347 -54.498  14.213  1.00  0.00     0.108 A 
HETATM   14  N   UNL     1     -42.412 -53.877  13.033  1.00  0.00    -0.310 N 
ATOM     15  HN  UNL     1     -43.177 -53.880  12.359  1.00  0.00     0.186 HD
ENDBRANCH   9  10
ENDBRANCH   8   9
ENDBRANCH   6   8
ENDBRANCH   5   6
ENDBRANCH   2   5
BRANCH   3  16
HETATM   16  C   UNL     1     -45.970 -51.486  13.547  1.00  0.00     0.176 C 
HETATM   17  C   UNL     1     -46.020 -51.209  15.051  1.00  0.00     0.035 C 
HETATM   18  C   UNL     1     -47.196 -51.925  15.709  1.00  0.00     0.004 C 
HETATM   19  C   UNL     1     -46.870 -53.341  16.165  1.00  0.00     0.020 C 
HETATM   20  C   UNL     1     -45.858 -54.082  15.307  1.00  0.00     0.122 C 
HETATM   21  N   UNL     1     -46.096 -54.005  13.882  1.00  0.00    -0.359 N 
HETATM   22  C   UNL     1     -45.694 -52.946  13.113  1.00  0.00     0.240 C 
HETATM   23  H   UNL     1     -45.906 -54.870  13.385  1.00  0.00     0.162 HD
HETATM   24  O   UNL     1     -45.215 -53.192  12.000  1.00  0.00    -0.271 OA
ENDBRANCH   3  16
TORSDOF 6
ENDMDL
