MODEL 1
REMARK VINA RESULT:      -6.5      0.000      0.000
REMARK  8 active torsions:
REMARK  status: ('A' for Active; 'I' for Inactive)
REMARK    1  A    between atoms: O_2  and  C_3 
REMARK    2  A    between atoms: C_8  and  C_9 
REMARK    3  A    between atoms: C_9  and  O_10 
REMARK    4  A    between atoms: O_10  and  C_11 
REMARK    5  A    between atoms: C_11  and  C_12 
REMARK    6  A    between atoms: C_12  and  O_13 
REMARK    7  A    between atoms: C_12  and  C_14 
REMARK    8  A    between atoms: C_14  and  N_15 
ROOT
HETATM    1  C   UNL     1     -42.325 -53.068  12.856  1.00  0.00     0.160 C 
ENDROOT
BRANCH   1   2
HETATM    2  C   UNL     1     -43.066 -54.179  13.642  1.00  0.00     0.201 C 
BRANCH   2   3
HETATM    3  O   UNL     1     -44.204 -54.587  12.878  1.00  0.00    -0.384 OA
BRANCH   3   4
HETATM    4  C   UNL     1     -45.365 -54.925  13.650  1.00  0.00     0.209 C 
BRANCH   4   5
HETATM    5  C   UNL     1     -45.939 -53.652  14.246  1.00  0.00    -0.001 A 
HETATM    6  C   UNL     1     -46.317 -52.542  13.464  1.00  0.00     0.076 A 
HETATM    7  C   UNL     1     -46.781 -51.377  14.096  1.00  0.00     0.037 A 
HETATM    8  C   UNL     1     -46.932 -51.323  15.482  1.00  0.00     0.003 A 
HETATM    9  C   UNL     1     -46.632 -52.437  16.253  1.00  0.00     0.001 A 
HETATM   10  C   UNL     1     -46.145 -53.590  15.640  1.00  0.00     0.012 A 
BRANCH   6  11
HETATM   11  O   UNL     1     -46.186 -52.654  12.101  1.00  0.00    -0.355 OA
HETATM   12  C   UNL     1     -47.091 -51.870  11.322  1.00  0.00     0.210 C 
ENDBRANCH   6  11
ENDBRANCH   4   5
ENDBRANCH   3   4
ENDBRANCH   2   3
ENDBRANCH   1   2
BRANCH   1  13
HETATM   13  O   UNL     1     -43.099 -52.720  11.695  1.00  0.00    -0.392 OA
HETATM   14  H   UNL     1     -42.712 -51.924  11.291  1.00  0.00     0.210 HD
ENDBRANCH   1  13
BRANCH   1  15
HETATM   15  C   UNL     1     -42.055 -51.825  13.730  1.00  0.00     0.168 C 
BRANCH  15  16
HETATM   16  N   UNL     1     -41.358 -50.762  13.034  1.00  0.00    -0.295 N 
HETATM   17  C   UNL     1     -42.005 -49.695  12.367  1.00  0.00     0.329 A 
HETATM   18  O   UNL     1     -43.208 -49.482  12.339  1.00  0.00    -0.246 OA
HETATM   19  N   UNL     1     -40.987 -48.919  11.772  1.00  0.00    -0.302 N 
HETATM   20  C   UNL     1     -41.181 -47.733  10.993  1.00  0.00     0.161 C 
HETATM   21  C   UNL     1     -39.747 -49.509  12.045  1.00  0.00     0.065 A 
HETATM   22  C   UNL     1     -38.480 -49.117  11.659  1.00  0.00     0.032 A 
HETATM   23  C   UNL     1     -39.973 -50.650  12.827  1.00  0.00     0.066 A 
HETATM   24  C   UNL     1     -37.410 -49.905  12.089  1.00  0.00     0.002 A 
HETATM   25  C   UNL     1     -37.629 -51.050  12.882  1.00  0.00     0.002 A 
HETATM   26  C   UNL     1     -38.926 -51.430  13.263  1.00  0.00     0.032 A 
ENDBRANCH  15  16
ENDBRANCH   1  15
TORSDOF 8
ENDMDL
MODEL 2
REMARK VINA RESULT:      -6.4      1.479      3.159
REMARK  8 active torsions:
REMARK  status: ('A' for Active; 'I' for Inactive)
REMARK    1  A    between atoms: O_2  and  C_3 
REMARK    2  A    between atoms: C_8  and  C_9 
REMARK    3  A    between atoms: C_9  and  O_10 
REMARK    4  A    between atoms: O_10  and  C_11 
REMARK    5  A    between atoms: C_11  and  C_12 
REMARK    6  A    between atoms: C_12  and  O_13 
REMARK    7  A    between atoms: C_12  and  C_14 
REMARK    8  A    between atoms: C_14  and  N_15 
ROOT
HETATM    1  C   UNL     1     -42.367 -53.319  12.940  1.00  0.00     0.160 C 
ENDROOT
BRANCH   1   2
HETATM    2  C   UNL     1     -43.216 -54.298  13.788  1.00  0.00     0.201 C 
BRANCH   2   3
HETATM    3  O   UNL     1     -44.414 -54.596  13.067  1.00  0.00    -0.384 OA
BRANCH   3   4
HETATM    4  C   UNL     1     -45.552 -54.912  13.881  1.00  0.00     0.209 C 
BRANCH   4   5
HETATM    5  C   UNL     1     -46.041 -53.638  14.548  1.00  0.00    -0.001 A 
HETATM    6  C   UNL     1     -46.125 -53.488  15.946  1.00  0.00     0.076 A 
HETATM    7  C   UNL     1     -46.647 -52.301  16.484  1.00  0.00     0.037 A 
HETATM    8  C   UNL     1     -47.027 -51.243  15.657  1.00  0.00     0.003 A 
HETATM    9  C   UNL     1     -46.878 -51.355  14.282  1.00  0.00     0.001 A 
HETATM   10  C   UNL     1     -46.386 -52.538  13.734  1.00  0.00     0.012 A 
BRANCH   6  11
HETATM   11  O   UNL     1     -45.704 -54.542  16.722  1.00  0.00    -0.355 OA
HETATM   12  C   UNL     1     -44.685 -54.244  17.677  1.00  0.00     0.210 C 
ENDBRANCH   6  11
ENDBRANCH   4   5
ENDBRANCH   3   4
ENDBRANCH   2   3
ENDBRANCH   1   2
BRANCH   1  13
HETATM   13  O   UNL     1     -43.113 -52.948  11.767  1.00  0.00    -0.392 OA
HETATM   14  H   UNL     1     -44.048 -53.177  11.908  1.00  0.00     0.210 HD
ENDBRANCH   1  13
BRANCH   1  15
HETATM   15  C   UNL     1     -41.950 -52.070  13.745  1.00  0.00     0.168 C 
BRANCH  15  16
HETATM   16  N   UNL     1     -41.198 -51.102  12.973  1.00  0.00    -0.295 N 
HETATM   17  C   UNL     1     -39.813 -51.210  12.701  1.00  0.00     0.329 A 
HETATM   18  O   UNL     1     -39.085 -52.142  13.010  1.00  0.00    -0.246 OA
HETATM   19  N   UNL     1     -39.454 -50.048  11.984  1.00  0.00    -0.302 N 
HETATM   20  C   UNL     1     -38.144 -49.731  11.498  1.00  0.00     0.161 C 
HETATM   21  C   UNL     1     -40.585 -49.235  11.841  1.00  0.00     0.065 A 
HETATM   22  C   UNL     1     -40.713 -48.002  11.230  1.00  0.00     0.032 A 
HETATM   23  C   UNL     1     -41.666 -49.885  12.451  1.00  0.00     0.066 A 
HETATM   24  C   UNL     1     -41.981 -47.419  11.233  1.00  0.00     0.002 A 
HETATM   25  C   UNL     1     -43.075 -48.070  11.838  1.00  0.00     0.002 A 
HETATM   26  C   UNL     1     -42.923 -49.322  12.454  1.00  0.00     0.032 A 
ENDBRANCH  15  16
ENDBRANCH   1  15
TORSDOF 8
ENDMDL
MODEL 3
REMARK VINA RESULT:      -6.4      1.917      2.856
REMARK  8 active torsions:
REMARK  status: ('A' for Active; 'I' for Inactive)
REMARK    1  A    between atoms: O_2  and  C_3 
REMARK    2  A    between atoms: C_8  and  C_9 
REMARK    3  A    between atoms: C_9  and  O_10 
REMARK    4  A    between atoms: O_10  and  C_11 
REMARK    5  A    between atoms: C_11  and  C_12 
REMARK    6  A    between atoms: C_12  and  O_13 
REMARK    7  A    between atoms: C_12  and  C_14 
REMARK    8  A    between atoms: C_14  and  N_15 
ROOT
HETATM    1  C   UNL     1     -40.452 -54.211  14.087  1.00  0.00     0.160 C 
ENDROOT
BRANCH   1   2
HETATM    2  C   UNL     1     -41.704 -54.139  13.177  1.00  0.00     0.201 C 
BRANCH   2   3
HETATM    3  O   UNL     1     -42.867 -54.184  14.007  1.00  0.00    -0.384 OA
BRANCH   3   4
HETATM    4  C   UNL     1     -44.117 -54.178  13.303  1.00  0.00     0.209 C 
BRANCH   4   5
HETATM    5  C   UNL     1     -45.054 -53.198  13.986  1.00  0.00    -0.001 A 
HETATM    6  C   UNL     1     -46.014 -52.440  13.285  1.00  0.00     0.076 A 
HETATM    7  C   UNL     1     -46.800 -51.508  13.982  1.00  0.00     0.037 A 
HETATM    8  C   UNL     1     -46.689 -51.364  15.365  1.00  0.00     0.003 A 
HETATM    9  C   UNL     1     -45.798 -52.158  16.071  1.00  0.00     0.001 A 
HETATM   10  C   UNL     1     -44.993 -53.069  15.389  1.00  0.00     0.012 A 
BRANCH   6  11
HETATM   11  O   UNL     1     -46.114 -52.642  11.930  1.00  0.00    -0.355 OA
HETATM   12  C   UNL     1     -47.134 -51.898  11.263  1.00  0.00     0.210 C 
ENDBRANCH   6  11
ENDBRANCH   4   5
ENDBRANCH   3   4
ENDBRANCH   2   3
ENDBRANCH   1   2
BRANCH   1  13
HETATM   13  O   UNL     1     -39.307 -54.543  13.283  1.00  0.00    -0.392 OA
HETATM   14  H   UNL     1     -38.818 -53.725  13.086  1.00  0.00     0.210 HD
ENDBRANCH   1  13
BRANCH   1  15
HETATM   15  C   UNL     1     -40.221 -52.893  14.856  1.00  0.00     0.168 C 
BRANCH  15  16
HETATM   16  N   UNL     1     -40.229 -51.715  14.012  1.00  0.00    -0.295 N 
HETATM   17  C   UNL     1     -39.132 -51.302  13.219  1.00  0.00     0.329 A 
HETATM   18  O   UNL     1     -38.075 -51.897  13.079  1.00  0.00    -0.246 OA
HETATM   19  N   UNL     1     -39.517 -50.090  12.605  1.00  0.00    -0.302 N 
HETATM   20  C   UNL     1     -38.716 -49.310  11.711  1.00  0.00     0.161 C 
HETATM   21  C   UNL     1     -40.808 -49.754  13.032  1.00  0.00     0.065 A 
HETATM   22  C   UNL     1     -41.584 -48.657  12.712  1.00  0.00     0.032 A 
HETATM   23  C   UNL     1     -41.252 -50.758  13.902  1.00  0.00     0.066 A 
HETATM   24  C   UNL     1     -42.853 -48.585  13.289  1.00  0.00     0.002 A 
HETATM   25  C   UNL     1     -43.310 -49.595  14.160  1.00  0.00     0.002 A 
HETATM   26  C   UNL     1     -42.504 -50.702  14.471  1.00  0.00     0.032 A 
ENDBRANCH  15  16
ENDBRANCH   1  15
TORSDOF 8
ENDMDL
MODEL 4
REMARK VINA RESULT:      -6.3      1.974      3.516
REMARK  8 active torsions:
REMARK  status: ('A' for Active; 'I' for Inactive)
REMARK    1  A    between atoms: O_2  and  C_3 
REMARK    2  A    between atoms: C_8  and  C_9 
REMARK    3  A    between atoms: C_9  and  O_10 
REMARK    4  A    between atoms: O_10  and  C_11 
REMARK    5  A    between atoms: C_11  and  C_12 
REMARK    6  A    between atoms: C_12  and  O_13 
REMARK    7  A    between atoms: C_12  and  C_14 
REMARK    8  A    between atoms: C_14  and  N_15 
ROOT
HETATM    1  C   UNL     1     -40.266 -53.630  12.921  1.00  0.00     0.160 C 
ENDROOT
BRANCH   1   2
HETATM    2  C   UNL     1     -41.364 -54.408  13.688  1.00  0.00     0.201 C 
BRANCH   2   3
HETATM    3  O   UNL     1     -42.632 -54.074  13.120  1.00  0.00    -0.384 OA
BRANCH   3   4
HETATM    4  C   UNL     1     -43.769 -54.603  13.816  1.00  0.00     0.209 C 
BRANCH   4   5
HETATM    5  C   UNL     1     -44.798 -53.498  13.977  1.00  0.00    -0.001 A 
HETATM    6  C   UNL     1     -45.676 -53.422  15.077  1.00  0.00     0.076 A 
HETATM    7  C   UNL     1     -46.642 -52.403  15.120  1.00  0.00     0.037 A 
HETATM    8  C   UNL     1     -46.706 -51.430  14.123  1.00  0.00     0.003 A 
HETATM    9  C   UNL     1     -45.797 -51.455  13.075  1.00  0.00     0.001 A 
HETATM   10  C   UNL     1     -44.850 -52.476  13.006  1.00  0.00     0.012 A 
BRANCH   6  11
HETATM   11  O   UNL     1     -45.552 -54.380  16.053  1.00  0.00    -0.355 OA
HETATM   12  C   UNL     1     -45.320 -53.895  17.376  1.00  0.00     0.210 C 
ENDBRANCH   6  11
ENDBRANCH   4   5
ENDBRANCH   3   4
ENDBRANCH   2   3
ENDBRANCH   1   2
BRANCH   1  13
HETATM   13  O   UNL     1     -40.730 -53.356  11.588  1.00  0.00    -0.392 OA
HETATM   14  H   UNL     1     -40.192 -52.636  11.213  1.00  0.00     0.210 HD
ENDBRANCH   1  13
BRANCH   1  15
HETATM   15  C   UNL     1     -39.871 -52.325  13.644  1.00  0.00     0.168 C 
BRANCH  15  16
HETATM   16  N   UNL     1     -40.884 -51.291  13.579  1.00  0.00    -0.295 N 
HETATM   17  C   UNL     1     -41.006 -50.369  12.512  1.00  0.00     0.329 A 
HETATM   18  O   UNL     1     -40.339 -50.354  11.488  1.00  0.00    -0.246 OA
HETATM   19  N   UNL     1     -42.063 -49.498  12.854  1.00  0.00    -0.302 N 
HETATM   20  C   UNL     1     -42.541 -48.404  12.063  1.00  0.00     0.161 C 
HETATM   21  C   UNL     1     -42.561 -49.861  14.112  1.00  0.00     0.065 A 
HETATM   22  C   UNL     1     -43.577 -49.291  14.856  1.00  0.00     0.032 A 
HETATM   23  C   UNL     1     -41.834 -50.970  14.563  1.00  0.00     0.066 A 
HETATM   24  C   UNL     1     -43.866 -49.875  16.091  1.00  0.00     0.002 A 
HETATM   25  C   UNL     1     -43.144 -50.996  16.548  1.00  0.00     0.002 A 
HETATM   26  C   UNL     1     -42.116 -51.558  15.775  1.00  0.00     0.032 A 
ENDBRANCH  15  16
ENDBRANCH   1  15
TORSDOF 8
ENDMDL
MODEL 5
REMARK VINA RESULT:      -6.3      1.097      2.056
REMARK  8 active torsions:
REMARK  status: ('A' for Active; 'I' for Inactive)
REMARK    1  A    between atoms: O_2  and  C_3 
REMARK    2  A    between atoms: C_8  and  C_9 
REMARK    3  A    between atoms: C_9  and  O_10 
REMARK    4  A    between atoms: O_10  and  C_11 
REMARK    5  A    between atoms: C_11  and  C_12 
REMARK    6  A    between atoms: C_12  and  O_13 
REMARK    7  A    between atoms: C_12  and  C_14 
REMARK    8  A    between atoms: C_14  and  N_15 
ROOT
HETATM    1  C   UNL     1     -41.663 -53.589  13.584  1.00  0.00     0.160 C 
ENDROOT
BRANCH   1   2
HETATM    2  C   UNL     1     -42.773 -54.487  14.186  1.00  0.00     0.201 C 
BRANCH   2   3
HETATM    3  O   UNL     1     -43.843 -54.573  13.243  1.00  0.00    -0.384 OA
BRANCH   3   4
HETATM    4  C   UNL     1     -45.118 -54.923  13.800  1.00  0.00     0.209 C 
BRANCH   4   5
HETATM    5  C   UNL     1     -45.772 -53.665  14.344  1.00  0.00    -0.001 A 
HETATM    6  C   UNL     1     -46.134 -53.513  15.697  1.00  0.00     0.076 A 
HETATM    7  C   UNL     1     -46.793 -52.343  16.109  1.00  0.00     0.037 A 
HETATM    8  C   UNL     1     -47.041 -51.303  15.212  1.00  0.00     0.003 A 
HETATM    9  C   UNL     1     -46.622 -51.415  13.894  1.00  0.00     0.001 A 
HETATM   10  C   UNL     1     -45.991 -52.582  13.466  1.00  0.00     0.012 A 
BRANCH   6  11
HETATM   11  O   UNL     1     -45.837 -54.547  16.552  1.00  0.00    -0.355 OA
HETATM   12  C   UNL     1     -45.844 -54.226  17.944  1.00  0.00     0.210 C 
ENDBRANCH   6  11
ENDBRANCH   4   5
ENDBRANCH   3   4
ENDBRANCH   2   3
ENDBRANCH   1   2
BRANCH   1  13
HETATM   13  O   UNL     1     -41.832 -53.530  12.156  1.00  0.00    -0.392 OA
HETATM   14  H   UNL     1     -41.936 -54.436  11.818  1.00  0.00     0.210 HD
ENDBRANCH   1  13
BRANCH   1  15
HETATM   15  C   UNL     1     -41.670 -52.174  14.197  1.00  0.00     0.168 C 
BRANCH  15  16
HETATM   16  N   UNL     1     -41.165 -51.148  13.307  1.00  0.00    -0.295 N 
HETATM   17  C   UNL     1     -41.989 -50.265  12.569  1.00  0.00     0.329 A 
HETATM   18  O   UNL     1     -43.208 -50.195  12.625  1.00  0.00    -0.246 OA
HETATM   19  N   UNL     1     -41.124 -49.471  11.785  1.00  0.00    -0.302 N 
HETATM   20  C   UNL     1     -41.523 -48.436  10.879  1.00  0.00     0.161 C 
HETATM   21  C   UNL     1     -39.803 -49.874  12.018  1.00  0.00     0.065 A 
HETATM   22  C   UNL     1     -38.627 -49.400  11.468  1.00  0.00     0.032 A 
HETATM   23  C   UNL     1     -39.825 -50.910  12.959  1.00  0.00     0.066 A 
HETATM   24  C   UNL     1     -37.439 -49.994  11.896  1.00  0.00     0.002 A 
HETATM   25  C   UNL     1     -37.452 -51.033  12.849  1.00  0.00     0.002 A 
HETATM   26  C   UNL     1     -38.659 -51.499  13.395  1.00  0.00     0.032 A 
ENDBRANCH  15  16
ENDBRANCH   1  15
TORSDOF 8
ENDMDL
MODEL 6
REMARK VINA RESULT:      -6.2      2.410      7.091
REMARK  8 active torsions:
REMARK  status: ('A' for Active; 'I' for Inactive)
REMARK    1  A    between atoms: O_2  and  C_3 
REMARK    2  A    between atoms: C_8  and  C_9 
REMARK    3  A    between atoms: C_9  and  O_10 
REMARK    4  A    between atoms: O_10  and  C_11 
REMARK    5  A    between atoms: C_11  and  C_12 
REMARK    6  A    between atoms: C_12  and  O_13 
REMARK    7  A    between atoms: C_12  and  C_14 
REMARK    8  A    between atoms: C_14  and  N_15 
ROOT
HETATM    1  C   UNL     1     -41.215 -53.572  13.052  1.00  0.00     0.160 C 
ENDROOT
BRANCH   1   2
HETATM    2  C   UNL     1     -40.068 -54.210  13.874  1.00  0.00     0.201 C 
BRANCH   2   3
HETATM    3  O   UNL     1     -38.882 -53.440  13.664  1.00  0.00    -0.384 OA
BRANCH   3   4
HETATM    4  C   UNL     1     -38.785 -52.246  14.454  1.00  0.00     0.209 C 
BRANCH   4   5
HETATM    5  C   UNL     1     -38.689 -51.052  13.520  1.00  0.00    -0.001 A 
HETATM    6  C   UNL     1     -39.607 -49.983  13.547  1.00  0.00     0.076 A 
HETATM    7  C   UNL     1     -39.487 -48.946  12.607  1.00  0.00     0.037 A 
HETATM    8  C   UNL     1     -38.438 -48.927  11.687  1.00  0.00     0.003 A 
HETATM    9  C   UNL     1     -37.489 -49.939  11.703  1.00  0.00     0.001 A 
HETATM   10  C   UNL     1     -37.611 -50.988  12.613  1.00  0.00     0.012 A 
BRANCH   6  11
HETATM   11  O   UNL     1     -40.601 -50.025  14.494  1.00  0.00    -0.355 OA
HETATM   12  C   UNL     1     -41.934 -50.143  13.993  1.00  0.00     0.210 C 
ENDBRANCH   6  11
ENDBRANCH   4   5
ENDBRANCH   3   4
ENDBRANCH   2   3
ENDBRANCH   1   2
BRANCH   1  13
HETATM   13  O   UNL     1     -40.790 -53.430  11.685  1.00  0.00    -0.392 OA
HETATM   14  H   UNL     1     -40.452 -52.526  11.557  1.00  0.00     0.210 HD
ENDBRANCH   1  13
BRANCH   1  15
HETATM   15  C   UNL     1     -42.516 -54.397  13.139  1.00  0.00     0.168 C 
BRANCH  15  16
HETATM   16  N   UNL     1     -43.440 -53.926  14.152  1.00  0.00    -0.295 N 
HETATM   17  C   UNL     1     -43.458 -54.396  15.487  1.00  0.00     0.329 A 
HETATM   18  O   UNL     1     -42.676 -55.192  15.985  1.00  0.00    -0.246 OA
HETATM   19  N   UNL     1     -44.532 -53.741  16.127  1.00  0.00    -0.302 N 
HETATM   20  C   UNL     1     -44.926 -53.911  17.494  1.00  0.00     0.161 C 
HETATM   21  C   UNL     1     -45.175 -52.910  15.201  1.00  0.00     0.065 A 
HETATM   22  C   UNL     1     -46.277 -52.093  15.365  1.00  0.00     0.032 A 
HETATM   23  C   UNL     1     -44.501 -53.021  13.978  1.00  0.00     0.066 A 
HETATM   24  C   UNL     1     -46.700 -51.362  14.254  1.00  0.00     0.002 A 
HETATM   25  C   UNL     1     -46.022 -51.464  13.022  1.00  0.00     0.002 A 
HETATM   26  C   UNL     1     -44.904 -52.300  12.877  1.00  0.00     0.032 A 
ENDBRANCH  15  16
ENDBRANCH   1  15
TORSDOF 8
ENDMDL
MODEL 7
REMARK VINA RESULT:      -6.0      2.337      3.505
REMARK  8 active torsions:
REMARK  status: ('A' for Active; 'I' for Inactive)
REMARK    1  A    between atoms: O_2  and  C_3 
REMARK    2  A    between atoms: C_8  and  C_9 
REMARK    3  A    between atoms: C_9  and  O_10 
REMARK    4  A    between atoms: O_10  and  C_11 
REMARK    5  A    between atoms: C_11  and  C_12 
REMARK    6  A    between atoms: C_12  and  O_13 
REMARK    7  A    between atoms: C_12  and  C_14 
REMARK    8  A    between atoms: C_14  and  N_15 
ROOT
HETATM    1  C   UNL     1     -40.028 -53.926  13.966  1.00  0.00     0.160 C 
ENDROOT
BRANCH   1   2
HETATM    2  C   UNL     1     -41.126 -53.828  12.877  1.00  0.00     0.201 C 
BRANCH   2   3
HETATM    3  O   UNL     1     -42.308 -54.461  13.372  1.00  0.00    -0.384 OA
BRANCH   3   4
HETATM    4  C   UNL     1     -42.878 -53.856  14.542  1.00  0.00     0.209 C 
BRANCH   4   5
HETATM    5  C   UNL     1     -44.084 -53.035  14.124  1.00  0.00    -0.001 A 
HETATM    6  C   UNL     1     -44.584 -51.963  14.891  1.00  0.00     0.076 A 
HETATM    7  C   UNL     1     -45.743 -51.293  14.467  1.00  0.00     0.037 A 
HETATM    8  C   UNL     1     -46.373 -51.631  13.270  1.00  0.00     0.003 A 
HETATM    9  C   UNL     1     -45.844 -52.636  12.473  1.00  0.00     0.001 A 
HETATM   10  C   UNL     1     -44.710 -53.327  12.895  1.00  0.00     0.012 A 
BRANCH   6  11
HETATM   11  O   UNL     1     -43.910 -51.641  16.044  1.00  0.00    -0.355 OA
HETATM   12  C   UNL     1     -44.594 -51.926  17.265  1.00  0.00     0.210 C 
ENDBRANCH   6  11
ENDBRANCH   4   5
ENDBRANCH   3   4
ENDBRANCH   2   3
ENDBRANCH   1   2
BRANCH   1  13
HETATM   13  O   UNL     1     -38.880 -54.595  13.414  1.00  0.00    -0.392 OA
HETATM   14  H   UNL     1     -38.480 -55.149  14.107  1.00  0.00     0.210 HD
ENDBRANCH   1  13
BRANCH   1  15
HETATM   15  C   UNL     1     -39.641 -52.540  14.523  1.00  0.00     0.168 C 
BRANCH  15  16
HETATM   16  N   UNL     1     -39.449 -51.532  13.501  1.00  0.00    -0.295 N 
HETATM   17  C   UNL     1     -38.242 -51.352  12.783  1.00  0.00     0.329 A 
HETATM   18  O   UNL     1     -37.239 -52.044  12.869  1.00  0.00    -0.246 OA
HETATM   19  N   UNL     1     -38.442 -50.240  11.936  1.00  0.00    -0.302 N 
HETATM   20  C   UNL     1     -37.482 -49.695  11.024  1.00  0.00     0.161 C 
HETATM   21  C   UNL     1     -39.731 -49.734  12.147  1.00  0.00     0.065 A 
HETATM   22  C   UNL     1     -40.360 -48.653  11.561  1.00  0.00     0.032 A 
HETATM   23  C   UNL     1     -40.357 -50.532  13.114  1.00  0.00     0.066 A 
HETATM   24  C   UNL     1     -41.668 -48.381  11.966  1.00  0.00     0.002 A 
HETATM   25  C   UNL     1     -42.307 -49.183  12.933  1.00  0.00     0.002 A 
HETATM   26  C   UNL     1     -41.649 -50.278  13.515  1.00  0.00     0.032 A 
ENDBRANCH  15  16
ENDBRANCH   1  15
TORSDOF 8
ENDMDL
MODEL 8
REMARK VINA RESULT:      -6.0      2.550      4.565
REMARK  8 active torsions:
REMARK  status: ('A' for Active; 'I' for Inactive)
REMARK    1  A    between atoms: O_2  and  C_3 
REMARK    2  A    between atoms: C_8  and  C_9 
REMARK    3  A    between atoms: C_9  and  O_10 
REMARK    4  A    between atoms: O_10  and  C_11 
REMARK    5  A    between atoms: C_11  and  C_12 
REMARK    6  A    between atoms: C_12  and  O_13 
REMARK    7  A    between atoms: C_12  and  C_14 
REMARK    8  A    between atoms: C_14  and  N_15 
ROOT
HETATM    1  C   UNL     1     -40.894 -50.394  11.712  1.00  0.00     0.160 C 
ENDROOT
BRANCH   1   2
HETATM    2  C   UNL     1     -41.366 -51.860  11.877  1.00  0.00     0.201 C 
BRANCH   2   3
HETATM    3  O   UNL     1     -41.580 -52.110  13.268  1.00  0.00    -0.384 OA
BRANCH   3   4
HETATM    4  C   UNL     1     -42.516 -53.158  13.561  1.00  0.00     0.209 C 
BRANCH   4   5
HETATM    5  C   UNL     1     -43.914 -52.568  13.585  1.00  0.00    -0.001 A 
HETATM    6  C   UNL     1     -44.359 -51.693  14.596  1.00  0.00     0.076 A 
HETATM    7  C   UNL     1     -45.688 -51.240  14.582  1.00  0.00     0.037 A 
HETATM    8  C   UNL     1     -46.558 -51.594  13.550  1.00  0.00     0.003 A 
HETATM    9  C   UNL     1     -46.106 -52.395  12.512  1.00  0.00     0.001 A 
HETATM   10  C   UNL     1     -44.796 -52.873  12.528  1.00  0.00     0.012 A 
BRANCH   6  11
HETATM   11  O   UNL     1     -43.458 -51.342  15.572  1.00  0.00    -0.355 OA
HETATM   12  C   UNL     1     -43.739 -51.831  16.884  1.00  0.00     0.210 C 
ENDBRANCH   6  11
ENDBRANCH   4   5
ENDBRANCH   3   4
ENDBRANCH   2   3
ENDBRANCH   1   2
BRANCH   1  13
HETATM   13  O   UNL     1     -40.419 -50.203  10.368  1.00  0.00    -0.392 OA
HETATM   14  H   UNL     1     -39.489 -50.488  10.324  1.00  0.00     0.210 HD
ENDBRANCH   1  13
BRANCH   1  15
HETATM   15  C   UNL     1     -42.012 -49.386  12.048  1.00  0.00     0.168 C 
BRANCH  15  16
HETATM   16  N   UNL     1     -41.912 -48.137  11.321  1.00  0.00    -0.295 N 
HETATM   17  C   UNL     1     -40.782 -47.285  11.365  1.00  0.00     0.329 A 
HETATM   18  O   UNL     1     -39.732 -47.504  11.949  1.00  0.00    -0.246 OA
HETATM   19  N   UNL     1     -41.102 -46.156  10.580  1.00  0.00    -0.302 N 
HETATM   20  C   UNL     1     -40.250 -45.030  10.340  1.00  0.00     0.161 C 
HETATM   21  C   UNL     1     -42.406 -46.299  10.088  1.00  0.00     0.065 A 
HETATM   22  C   UNL     1     -43.147 -45.445   9.294  1.00  0.00     0.032 A 
HETATM   23  C   UNL     1     -42.909 -47.524  10.544  1.00  0.00     0.066 A 
HETATM   24  C   UNL     1     -44.436 -45.856   8.948  1.00  0.00     0.002 A 
HETATM   25  C   UNL     1     -44.946 -47.091   9.397  1.00  0.00     0.002 A 
HETATM   26  C   UNL     1     -44.175 -47.943  10.203  1.00  0.00     0.032 A 
ENDBRANCH  15  16
ENDBRANCH   1  15
TORSDOF 8
ENDMDL
MODEL 9
REMARK VINA RESULT:      -5.8      2.704      7.348
REMARK  8 active torsions:
REMARK  status: ('A' for Active; 'I' for Inactive)
REMARK    1  A    between atoms: O_2  and  C_3 
REMARK    2  A    between atoms: C_8  and  C_9 
REMARK    3  A    between atoms: C_9  and  O_10 
REMARK    4  A    between atoms: O_10  and  C_11 
REMARK    5  A    between atoms: C_11  and  C_12 
REMARK    6  A    between atoms: C_12  and  O_13 
REMARK    7  A    between atoms: C_12  and  C_14 
REMARK    8  A    between atoms: C_14  and  N_15 
ROOT
HETATM    1  C   UNL     1     -41.050 -52.858  12.628  1.00  0.00     0.160 C 
ENDROOT
BRANCH   1   2
HETATM    2  C   UNL     1     -39.811 -52.388  13.430  1.00  0.00     0.201 C 
BRANCH   2   3
HETATM    3  O   UNL     1     -39.072 -51.471  12.620  1.00  0.00    -0.384 OA
BRANCH   3   4
HETATM    4  C   UNL     1     -37.706 -51.275  13.014  1.00  0.00     0.209 C 
BRANCH   4   5
HETATM    5  C   UNL     1     -37.621 -50.022  13.866  1.00  0.00    -0.001 A 
HETATM    6  C   UNL     1     -38.003 -48.749  13.398  1.00  0.00     0.076 A 
HETATM    7  C   UNL     1     -37.834 -47.628  14.227  1.00  0.00     0.037 A 
HETATM    8  C   UNL     1     -37.353 -47.763  15.529  1.00  0.00     0.003 A 
HETATM    9  C   UNL     1     -37.044 -49.023  16.023  1.00  0.00     0.001 A 
HETATM   10  C   UNL     1     -37.182 -50.140  15.201  1.00  0.00     0.012 A 
BRANCH   6  11
HETATM   11  O   UNL     1     -38.507 -48.669  12.122  1.00  0.00    -0.355 OA
HETATM   12  C   UNL     1     -39.665 -47.848  11.960  1.00  0.00     0.210 C 
ENDBRANCH   6  11
ENDBRANCH   4   5
ENDBRANCH   3   4
ENDBRANCH   2   3
ENDBRANCH   1   2
BRANCH   1  13
HETATM   13  O   UNL     1     -40.609 -53.508  11.423  1.00  0.00    -0.392 OA
HETATM   14  H   UNL     1     -39.636 -53.512  11.411  1.00  0.00     0.210 HD
ENDBRANCH   1  13
BRANCH   1  15
HETATM   15  C   UNL     1     -41.955 -53.792  13.458  1.00  0.00     0.168 C 
BRANCH  15  16
HETATM   16  N   UNL     1     -42.878 -53.092  14.327  1.00  0.00    -0.295 N 
HETATM   17  C   UNL     1     -42.657 -52.878  15.709  1.00  0.00     0.329 A 
HETATM   18  O   UNL     1     -41.654 -53.183  16.337  1.00  0.00    -0.246 OA
HETATM   19  N   UNL     1     -43.806 -52.222  16.201  1.00  0.00    -0.302 N 
HETATM   20  C   UNL     1     -44.022 -51.807  17.555  1.00  0.00     0.161 C 
HETATM   21  C   UNL     1     -44.721 -52.060  15.153  1.00  0.00     0.065 A 
HETATM   22  C   UNL     1     -45.980 -51.490  15.162  1.00  0.00     0.032 A 
HETATM   23  C   UNL     1     -44.149 -52.596  13.992  1.00  0.00     0.066 A 
HETATM   24  C   UNL     1     -46.673 -51.459  13.951  1.00  0.00     0.002 A 
HETATM   25  C   UNL     1     -46.102 -51.991  12.777  1.00  0.00     0.002 A 
HETATM   26  C   UNL     1     -44.821 -52.564  12.791  1.00  0.00     0.032 A 
ENDBRANCH  15  16
ENDBRANCH   1  15
TORSDOF 8
ENDMDL
