MODEL 1
REMARK VINA RESULT:      -6.1      0.000      0.000
REMARK  5 active torsions:
REMARK  status: ('A' for Active; 'I' for Inactive)
REMARK    1  A    between atoms: C_2  and  C_3 
REMARK    2  A    between atoms: C_6  and  C_7 
REMARK    3  A    between atoms: C_7  and  C_8 
REMARK    4  A    between atoms: C_8  and  N_9 
REMARK       I    between atoms: N_9  and  C_10 
REMARK    5  A    between atoms: C_10  and  C_12 
ROOT
HETATM    1  C   UNL     1     -41.173 -50.791  12.447  1.00  0.00     0.129 C 
ENDROOT
BRANCH   1   2
HETATM    2  C   UNL     1     -40.504 -50.052  11.281  1.00  0.00     0.084 C 
BRANCH   2   3
HETATM    3  C   UNL     1     -41.215 -48.764  10.984  1.00  0.00     0.053 A 
HETATM    4  N   UNL     1     -42.062 -48.594   9.990  1.00  0.00    -0.356 N 
HETATM    5  C   UNL     1     -42.536 -47.290   9.976  1.00  0.00     0.022 A 
ATOM      6  HN  UNL     1     -42.331 -49.319   9.325  1.00  0.00     0.166 HD
HETATM    7  C   UNL     1     -42.026 -46.476  10.972  1.00  0.00     0.003 A 
HETATM    8  S   UNL     1     -40.947 -47.374  11.958  1.00  0.00    -0.080 SA
HETATM    9  C   UNL     1     -42.291 -45.036  11.248  1.00  0.00     0.058 C 
BRANCH   5  10
HETATM   10  C   UNL     1     -43.511 -46.906   8.906  1.00  0.00     0.054 C 
HETATM   11  C   UNL     1     -43.501 -47.874   7.735  1.00  0.00     0.011 C 
ENDBRANCH   5  10
ENDBRANCH   2   3
ENDBRANCH   1   2
BRANCH   1  12
HETATM   12  N   UNL     1     -42.429 -51.434  12.079  1.00  0.00    -0.360 N 
HETATM   13  C   UNL     1     -43.072 -52.251  12.974  1.00  0.00     0.222 C 
HETATM   14  O   UNL     1     -42.687 -52.356  14.139  1.00  0.00    -0.273 OA
HETATM   15  H   UNL     1     -42.751 -51.377  11.125  1.00  0.00     0.162 HD
BRANCH  13  16
HETATM   16  C   UNL     1     -44.243 -53.065  12.565  1.00  0.00     0.086 A 
HETATM   17  C   UNL     1     -45.667 -52.562  12.570  1.00  0.00     0.004 A 
HETATM   18  C   UNL     1     -46.315 -51.626  13.552  1.00  0.00     0.006 C 
HETATM   19  C   UNL     1     -45.299 -53.817  13.335  1.00  0.00     0.004 A 
HETATM   20  C   UNL     1     -46.874 -52.574  14.616  1.00  0.00     0.001 C 
HETATM   21  C   UNL     1     -45.785 -53.641  14.742  1.00  0.00     0.006 C 
ENDBRANCH  13  16
ENDBRANCH   1  12
TORSDOF 5
ENDMDL
MODEL 2
REMARK VINA RESULT:      -5.9      2.467      6.752
REMARK  5 active torsions:
REMARK  status: ('A' for Active; 'I' for Inactive)
REMARK    1  A    between atoms: C_2  and  C_3 
REMARK    2  A    between atoms: C_6  and  C_7 
REMARK    3  A    between atoms: C_7  and  C_8 
REMARK    4  A    between atoms: C_8  and  N_9 
REMARK       I    between atoms: N_9  and  C_10 
REMARK    5  A    between atoms: C_10  and  C_12 
ROOT
HETATM    1  C   UNL     1     -42.778 -48.577  12.643  1.00  0.00     0.129 C 
ENDROOT
BRANCH   1   2
HETATM    2  C   UNL     1     -42.184 -49.905  13.130  1.00  0.00     0.084 C 
BRANCH   2   3
HETATM    3  C   UNL     1     -43.250 -50.955  13.253  1.00  0.00     0.053 A 
HETATM    4  N   UNL     1     -44.496 -50.712  13.604  1.00  0.00    -0.356 N 
HETATM    5  C   UNL     1     -45.226 -51.892  13.640  1.00  0.00     0.022 A 
ATOM      6  HN  UNL     1     -44.870 -49.789  13.819  1.00  0.00     0.166 HD
HETATM    7  C   UNL     1     -44.508 -53.030  13.318  1.00  0.00     0.003 A 
HETATM    8  S   UNL     1     -42.889 -52.605  12.942  1.00  0.00    -0.080 SA
HETATM    9  C   UNL     1     -44.953 -54.451  13.271  1.00  0.00     0.058 C 
BRANCH   5  10
HETATM   10  C   UNL     1     -46.671 -51.815  14.026  1.00  0.00     0.054 C 
HETATM   11  C   UNL     1     -46.868 -51.288  15.439  1.00  0.00     0.011 C 
ENDBRANCH   5  10
ENDBRANCH   2   3
ENDBRANCH   1   2
BRANCH   1  12
HETATM   12  N   UNL     1     -43.129 -48.585  11.228  1.00  0.00    -0.360 N 
HETATM   13  C   UNL     1     -42.435 -47.799  10.342  1.00  0.00     0.222 C 
HETATM   14  O   UNL     1     -41.429 -47.179  10.686  1.00  0.00    -0.273 OA
HETATM   15  H   UNL     1     -43.961 -49.070  10.928  1.00  0.00     0.162 HD
BRANCH  13  16
HETATM   16  C   UNL     1     -42.889 -47.642   8.938  1.00  0.00     0.086 A 
HETATM   17  C   UNL     1     -43.646 -46.442   8.422  1.00  0.00     0.004 A 
HETATM   18  C   UNL     1     -44.687 -45.627   9.137  1.00  0.00     0.006 C 
HETATM   19  C   UNL     1     -44.217 -47.835   8.253  1.00  0.00     0.004 A 
HETATM   20  C   UNL     1     -45.993 -46.338   8.774  1.00  0.00     0.001 C 
HETATM   21  C   UNL     1     -45.609 -47.818   8.811  1.00  0.00     0.006 C 
ENDBRANCH  13  16
ENDBRANCH   1  12
TORSDOF 5
ENDMDL
MODEL 3
REMARK VINA RESULT:      -5.9      3.666      4.527
REMARK  5 active torsions:
REMARK  status: ('A' for Active; 'I' for Inactive)
REMARK    1  A    between atoms: C_2  and  C_3 
REMARK    2  A    between atoms: C_6  and  C_7 
REMARK    3  A    between atoms: C_7  and  C_8 
REMARK    4  A    between atoms: C_8  and  N_9 
REMARK       I    between atoms: N_9  and  C_10 
REMARK    5  A    between atoms: C_10  and  C_12 
ROOT
HETATM    1  C   UNL     1     -42.200 -54.336  13.847  1.00  0.00     0.129 C 
ENDROOT
BRANCH   1   2
HETATM    2  C   UNL     1     -41.111 -54.162  12.781  1.00  0.00     0.084 C 
BRANCH   2   3
HETATM    3  C   UNL     1     -40.281 -52.942  13.056  1.00  0.00     0.053 A 
HETATM    4  N   UNL     1     -40.103 -51.956  12.202  1.00  0.00    -0.356 N 
HETATM    5  C   UNL     1     -39.275 -50.986  12.749  1.00  0.00     0.022 A 
ATOM      6  HN  UNL     1     -40.516 -51.911  11.270  1.00  0.00     0.166 HD
HETATM    7  C   UNL     1     -38.824 -51.261  14.028  1.00  0.00     0.003 A 
HETATM    8  S   UNL     1     -39.473 -52.757  14.560  1.00  0.00    -0.080 SA
HETATM    9  C   UNL     1     -37.918 -50.467  14.905  1.00  0.00     0.058 C 
BRANCH   5  10
HETATM   10  C   UNL     1     -38.952 -49.783  11.916  1.00  0.00     0.054 C 
HETATM   11  C   UNL     1     -37.565 -49.859  11.299  1.00  0.00     0.011 C 
ENDBRANCH   5  10
ENDBRANCH   2   3
ENDBRANCH   1   2
BRANCH   1  12
HETATM   12  N   UNL     1     -43.148 -53.228  13.890  1.00  0.00    -0.360 N 
HETATM   13  C   UNL     1     -44.333 -53.309  13.201  1.00  0.00     0.222 C 
HETATM   14  O   UNL     1     -44.684 -54.351  12.649  1.00  0.00    -0.273 OA
HETATM   15  H   UNL     1     -42.872 -52.358  14.319  1.00  0.00     0.162 HD
BRANCH  13  16
HETATM   16  C   UNL     1     -45.226 -52.131  13.071  1.00  0.00     0.086 A 
HETATM   17  C   UNL     1     -45.224 -50.958  14.022  1.00  0.00     0.004 A 
HETATM   18  C   UNL     1     -45.008 -50.972  15.510  1.00  0.00     0.006 C 
HETATM   19  C   UNL     1     -46.505 -51.723  13.756  1.00  0.00     0.004 A 
HETATM   20  C   UNL     1     -46.424 -51.144  16.063  1.00  0.00     0.001 C 
HETATM   21  C   UNL     1     -47.066 -52.128  15.085  1.00  0.00     0.006 C 
ENDBRANCH  13  16
ENDBRANCH   1  12
TORSDOF 5
ENDMDL
MODEL 4
REMARK VINA RESULT:      -5.8      2.650      3.921
REMARK  5 active torsions:
REMARK  status: ('A' for Active; 'I' for Inactive)
REMARK    1  A    between atoms: C_2  and  C_3 
REMARK    2  A    between atoms: C_6  and  C_7 
REMARK    3  A    between atoms: C_7  and  C_8 
REMARK    4  A    between atoms: C_8  and  N_9 
REMARK       I    between atoms: N_9  and  C_10 
REMARK    5  A    between atoms: C_10  and  C_12 
ROOT
HETATM    1  C   UNL     1     -41.926 -54.096  13.302  1.00  0.00     0.129 C 
ENDROOT
BRANCH   1   2
HETATM    2  C   UNL     1     -40.920 -53.207  14.045  1.00  0.00     0.084 C 
BRANCH   2   3
HETATM    3  C   UNL     1     -40.617 -51.966  13.256  1.00  0.00     0.053 A 
HETATM    4  N   UNL     1     -39.427 -51.408  13.177  1.00  0.00    -0.356 N 
HETATM    5  C   UNL     1     -39.479 -50.269  12.385  1.00  0.00     0.022 A 
ATOM      6  HN  UNL     1     -38.587 -51.761  13.634  1.00  0.00     0.166 HD
HETATM    7  C   UNL     1     -40.730 -49.974  11.874  1.00  0.00     0.003 A 
HETATM    8  S   UNL     1     -41.858 -51.163  12.381  1.00  0.00    -0.080 SA
HETATM    9  C   UNL     1     -41.159 -48.836  11.012  1.00  0.00     0.058 C 
BRANCH   5  10
HETATM   10  C   UNL     1     -38.215 -49.492  12.184  1.00  0.00     0.054 C 
HETATM   11  C   UNL     1     -37.331 -50.089  11.101  1.00  0.00     0.011 C 
ENDBRANCH   5  10
ENDBRANCH   2   3
ENDBRANCH   1   2
BRANCH   1  12
HETATM   12  N   UNL     1     -43.136 -54.365  14.071  1.00  0.00    -0.360 N 
HETATM   13  C   UNL     1     -44.369 -54.213  13.487  1.00  0.00     0.222 C 
HETATM   14  O   UNL     1     -44.486 -53.981  12.284  1.00  0.00    -0.273 OA
HETATM   15  H   UNL     1     -43.064 -54.537  15.062  1.00  0.00     0.162 HD
BRANCH  13  16
HETATM   16  C   UNL     1     -45.613 -54.294  14.292  1.00  0.00     0.086 A 
HETATM   17  C   UNL     1     -46.710 -53.256  14.263  1.00  0.00     0.004 A 
HETATM   18  C   UNL     1     -46.570 -51.765  14.126  1.00  0.00     0.006 C 
HETATM   19  C   UNL     1     -46.058 -53.640  15.575  1.00  0.00     0.004 A 
HETATM   20  C   UNL     1     -46.458 -51.294  15.577  1.00  0.00     0.001 C 
HETATM   21  C   UNL     1     -45.595 -52.374  16.231  1.00  0.00     0.006 C 
ENDBRANCH  13  16
ENDBRANCH   1  12
TORSDOF 5
ENDMDL
MODEL 5
REMARK VINA RESULT:      -5.7      3.860      7.120
REMARK  5 active torsions:
REMARK  status: ('A' for Active; 'I' for Inactive)
REMARK    1  A    between atoms: C_2  and  C_3 
REMARK    2  A    between atoms: C_6  and  C_7 
REMARK    3  A    between atoms: C_7  and  C_8 
REMARK    4  A    between atoms: C_8  and  N_9 
REMARK       I    between atoms: N_9  and  C_10 
REMARK    5  A    between atoms: C_10  and  C_12 
ROOT
HETATM    1  C   UNL     1     -41.829 -54.201  13.818  1.00  0.00     0.129 C 
ENDROOT
BRANCH   1   2
HETATM    2  C   UNL     1     -43.082 -54.518  14.645  1.00  0.00     0.084 C 
BRANCH   2   3
HETATM    3  C   UNL     1     -44.226 -53.631  14.247  1.00  0.00     0.053 A 
HETATM    4  N   UNL     1     -45.026 -53.024  15.098  1.00  0.00    -0.356 N 
HETATM    5  C   UNL     1     -45.989 -52.292  14.417  1.00  0.00     0.022 A 
ATOM      6  HN  UNL     1     -44.949 -53.082  16.113  1.00  0.00     0.166 HD
HETATM    7  C   UNL     1     -45.907 -52.365  13.038  1.00  0.00     0.003 A 
HETATM    8  S   UNL     1     -44.579 -53.355  12.589  1.00  0.00    -0.080 SA
HETATM    9  C   UNL     1     -46.771 -51.734  12.001  1.00  0.00     0.058 C 
BRANCH   5  10
HETATM   10  C   UNL     1     -46.998 -51.533  15.223  1.00  0.00     0.054 C 
HETATM   11  C   UNL     1     -46.419 -50.992  16.520  1.00  0.00     0.011 C 
ENDBRANCH   5  10
ENDBRANCH   2   3
ENDBRANCH   1   2
BRANCH   1  12
HETATM   12  N   UNL     1     -41.107 -53.026  14.291  1.00  0.00    -0.360 N 
HETATM   13  C   UNL     1     -40.208 -52.394  13.470  1.00  0.00     0.222 C 
HETATM   14  O   UNL     1     -40.085 -52.711  12.287  1.00  0.00    -0.273 OA
HETATM   15  H   UNL     1     -41.177 -52.760  15.262  1.00  0.00     0.162 HD
BRANCH  13  16
HETATM   16  C   UNL     1     -39.323 -51.318  13.984  1.00  0.00     0.086 A 
HETATM   17  C   UNL     1     -39.138 -49.980  13.309  1.00  0.00     0.004 A 
HETATM   18  C   UNL     1     -39.099 -49.683  11.836  1.00  0.00     0.006 C 
HETATM   19  C   UNL     1     -37.938 -50.854  13.614  1.00  0.00     0.004 A 
HETATM   20  C   UNL     1     -37.614 -49.820  11.494  1.00  0.00     0.001 C 
HETATM   21  C   UNL     1     -37.169 -51.016  12.337  1.00  0.00     0.006 C 
ENDBRANCH  13  16
ENDBRANCH   1  12
TORSDOF 5
ENDMDL
MODEL 6
REMARK VINA RESULT:      -5.6      2.447      3.727
REMARK  5 active torsions:
REMARK  status: ('A' for Active; 'I' for Inactive)
REMARK    1  A    between atoms: C_2  and  C_3 
REMARK    2  A    between atoms: C_6  and  C_7 
REMARK    3  A    between atoms: C_7  and  C_8 
REMARK    4  A    between atoms: C_8  and  N_9 
REMARK       I    between atoms: N_9  and  C_10 
REMARK    5  A    between atoms: C_10  and  C_12 
ROOT
HETATM    1  C   UNL     1     -43.082 -47.938  11.529  1.00  0.00     0.129 C 
ENDROOT
BRANCH   1   2
HETATM    2  C   UNL     1     -41.827 -47.939  10.647  1.00  0.00     0.084 C 
BRANCH   2   3
HETATM    3  C   UNL     1     -40.589 -48.131  11.475  1.00  0.00     0.053 A 
HETATM    4  N   UNL     1     -39.674 -49.048  11.241  1.00  0.00    -0.356 N 
HETATM    5  C   UNL     1     -38.665 -48.976  12.191  1.00  0.00     0.022 A 
ATOM      6  HN  UNL     1     -39.703 -49.717  10.472  1.00  0.00     0.166 HD
HETATM    7  C   UNL     1     -38.838 -47.994  13.150  1.00  0.00     0.003 A 
HETATM    8  S   UNL     1     -40.288 -47.131  12.838  1.00  0.00    -0.080 SA
HETATM    9  C   UNL     1     -37.979 -47.644  14.316  1.00  0.00     0.058 C 
BRANCH   5  10
HETATM   10  C   UNL     1     -37.532 -49.951  12.091  1.00  0.00     0.054 C 
HETATM   11  C   UNL     1     -37.108 -50.204  10.654  1.00  0.00     0.011 C 
ENDBRANCH   5  10
ENDBRANCH   2   3
ENDBRANCH   1   2
BRANCH   1  12
HETATM   12  N   UNL     1     -43.480 -49.271  11.968  1.00  0.00    -0.360 N 
HETATM   13  C   UNL     1     -43.421 -49.604  13.298  1.00  0.00     0.222 C 
HETATM   14  O   UNL     1     -43.163 -48.763  14.160  1.00  0.00    -0.273 OA
HETATM   15  H   UNL     1     -43.675 -49.980  11.278  1.00  0.00     0.162 HD
BRANCH  13  16
HETATM   16  C   UNL     1     -43.636 -51.001  13.749  1.00  0.00     0.086 A 
HETATM   17  C   UNL     1     -44.838 -51.835  13.376  1.00  0.00     0.004 A 
HETATM   18  C   UNL     1     -46.261 -51.383  13.203  1.00  0.00     0.006 C 
HETATM   19  C   UNL     1     -44.482 -51.619  14.833  1.00  0.00     0.004 A 
HETATM   20  C   UNL     1     -46.850 -51.548  14.606  1.00  0.00     0.001 C 
HETATM   21  C   UNL     1     -45.709 -51.101  15.520  1.00  0.00     0.006 C 
ENDBRANCH  13  16
ENDBRANCH   1  12
TORSDOF 5
ENDMDL
MODEL 7
REMARK VINA RESULT:      -5.5      3.720      4.607
REMARK  5 active torsions:
REMARK  status: ('A' for Active; 'I' for Inactive)
REMARK    1  A    between atoms: C_2  and  C_3 
REMARK    2  A    between atoms: C_6  and  C_7 
REMARK    3  A    between atoms: C_7  and  C_8 
REMARK    4  A    between atoms: C_8  and  N_9 
REMARK       I    between atoms: N_9  and  C_10 
REMARK    5  A    between atoms: C_10  and  C_12 
ROOT
HETATM    1  C   UNL     1     -41.738 -54.147  14.595  1.00  0.00     0.129 C 
ENDROOT
BRANCH   1   2
HETATM    2  C   UNL     1     -41.290 -53.745  13.184  1.00  0.00     0.084 C 
BRANCH   2   3
HETATM    3  C   UNL     1     -40.298 -52.619  13.236  1.00  0.00     0.053 A 
HETATM    4  N   UNL     1     -40.085 -51.771  12.253  1.00  0.00    -0.356 N 
HETATM    5  C   UNL     1     -39.099 -50.860  12.606  1.00  0.00     0.022 A 
ATOM      6  HN  UNL     1     -40.575 -51.781  11.358  1.00  0.00     0.166 HD
HETATM    7  C   UNL     1     -38.566 -51.041  13.870  1.00  0.00     0.003 A 
HETATM    8  S   UNL     1     -39.336 -52.369  14.637  1.00  0.00    -0.080 SA
HETATM    9  C   UNL     1     -37.494 -50.276  14.566  1.00  0.00     0.058 C 
BRANCH   5  10
HETATM   10  C   UNL     1     -38.715 -49.814  11.605  1.00  0.00     0.054 C 
HETATM   11  C   UNL     1     -37.324 -50.038  11.035  1.00  0.00     0.011 C 
ENDBRANCH   5  10
ENDBRANCH   2   3
ENDBRANCH   1   2
BRANCH   1  12
HETATM   12  N   UNL     1     -43.058 -53.638  14.948  1.00  0.00    -0.360 N 
HETATM   13  C   UNL     1     -44.126 -54.496  15.033  1.00  0.00     0.222 C 
HETATM   14  O   UNL     1     -43.979 -55.715  14.948  1.00  0.00    -0.273 OA
HETATM   15  H   UNL     1     -43.205 -52.642  15.003  1.00  0.00     0.162 HD
BRANCH  13  16
HETATM   16  C   UNL     1     -45.509 -53.985  15.202  1.00  0.00     0.086 A 
HETATM   17  C   UNL     1     -46.387 -53.526  14.063  1.00  0.00     0.004 A 
HETATM   18  C   UNL     1     -45.977 -52.796  12.814  1.00  0.00     0.006 C 
HETATM   19  C   UNL     1     -46.103 -52.600  15.227  1.00  0.00     0.004 A 
HETATM   20  C   UNL     1     -46.100 -51.325  13.217  1.00  0.00     0.001 C 
HETATM   21  C   UNL     1     -45.588 -51.312  14.658  1.00  0.00     0.006 C 
ENDBRANCH  13  16
ENDBRANCH   1  12
TORSDOF 5
ENDMDL
MODEL 8
REMARK VINA RESULT:      -5.5      2.427      7.055
REMARK  5 active torsions:
REMARK  status: ('A' for Active; 'I' for Inactive)
REMARK    1  A    between atoms: C_2  and  C_3 
REMARK    2  A    between atoms: C_6  and  C_7 
REMARK    3  A    between atoms: C_7  and  C_8 
REMARK    4  A    between atoms: C_8  and  N_9 
REMARK       I    between atoms: N_9  and  C_10 
REMARK    5  A    between atoms: C_10  and  C_12 
ROOT
HETATM    1  C   UNL     1     -41.168 -50.218  13.363  1.00  0.00     0.129 C 
ENDROOT
BRANCH   1   2
HETATM    2  C   UNL     1     -41.228 -51.594  12.689  1.00  0.00     0.084 C 
BRANCH   2   3
HETATM    3  C   UNL     1     -42.577 -52.225  12.878  1.00  0.00     0.053 A 
HETATM    4  N   UNL     1     -43.720 -51.582  12.768  1.00  0.00    -0.356 N 
HETATM    5  C   UNL     1     -44.783 -52.439  13.014  1.00  0.00     0.022 A 
ATOM      6  HN  UNL     1     -43.812 -50.593  12.535  1.00  0.00     0.166 HD
HETATM    7  C   UNL     1     -44.421 -53.740  13.320  1.00  0.00     0.003 A 
HETATM    8  S   UNL     1     -42.713 -53.891  13.274  1.00  0.00    -0.080 SA
HETATM    9  C   UNL     1     -45.281 -54.910  13.654  1.00  0.00     0.058 C 
BRANCH   5  10
HETATM   10  C   UNL     1     -46.171 -51.882  12.941  1.00  0.00     0.054 C 
HETATM   11  C   UNL     1     -46.688 -51.429  14.296  1.00  0.00     0.011 C 
ENDBRANCH   5  10
ENDBRANCH   2   3
ENDBRANCH   1   2
BRANCH   1  12
HETATM   12  N   UNL     1     -40.776 -49.146  12.454  1.00  0.00    -0.360 N 
HETATM   13  C   UNL     1     -41.732 -48.457  11.750  1.00  0.00     0.222 C 
HETATM   14  O   UNL     1     -42.932 -48.628  11.961  1.00  0.00    -0.273 OA
HETATM   15  H   UNL     1     -39.799 -49.003  12.252  1.00  0.00     0.162 HD
BRANCH  13  16
HETATM   16  C   UNL     1     -41.355 -47.498  10.683  1.00  0.00     0.086 A 
HETATM   17  C   UNL     1     -40.327 -46.404  10.852  1.00  0.00     0.004 A 
HETATM   18  C   UNL     1     -40.050 -45.574  12.074  1.00  0.00     0.006 C 
HETATM   19  C   UNL     1     -41.733 -46.066  10.399  1.00  0.00     0.004 A 
HETATM   20  C   UNL     1     -40.983 -44.374  11.896  1.00  0.00     0.001 C 
HETATM   21  C   UNL     1     -42.252 -44.999  11.316  1.00  0.00     0.006 C 
ENDBRANCH  13  16
ENDBRANCH   1  12
TORSDOF 5
ENDMDL
MODEL 9
REMARK VINA RESULT:      -5.4      1.922      2.225
REMARK  5 active torsions:
REMARK  status: ('A' for Active; 'I' for Inactive)
REMARK    1  A    between atoms: C_2  and  C_3 
REMARK    2  A    between atoms: C_6  and  C_7 
REMARK    3  A    between atoms: C_7  and  C_8 
REMARK    4  A    between atoms: C_8  and  N_9 
REMARK       I    between atoms: N_9  and  C_10 
REMARK    5  A    between atoms: C_10  and  C_12 
ROOT
HETATM    1  C   UNL     1     -41.333 -51.079  12.601  1.00  0.00     0.129 C 
ENDROOT
BRANCH   1   2
HETATM    2  C   UNL     1     -40.750 -50.347  11.387  1.00  0.00     0.084 C 
BRANCH   2   3
HETATM    3  C   UNL     1     -40.367 -48.939  11.742  1.00  0.00     0.053 A 
HETATM    4  N   UNL     1     -40.392 -47.928  10.899  1.00  0.00    -0.356 N 
HETATM    5  C   UNL     1     -39.969 -46.765  11.528  1.00  0.00     0.022 A 
ATOM      6  HN  UNL     1     -40.681 -47.990   9.923  1.00  0.00     0.166 HD
HETATM    7  C   UNL     1     -39.617 -46.918  12.858  1.00  0.00     0.003 A 
HETATM    8  S   UNL     1     -39.843 -48.552  13.331  1.00  0.00    -0.080 SA
HETATM    9  C   UNL     1     -39.108 -45.908  13.827  1.00  0.00     0.058 C 
BRANCH   5  10
HETATM   10  C   UNL     1     -39.924 -45.504  10.722  1.00  0.00     0.054 C 
HETATM   11  C   UNL     1     -41.119 -44.601  10.987  1.00  0.00     0.011 C 
ENDBRANCH   5  10
ENDBRANCH   2   3
ENDBRANCH   1   2
BRANCH   1  12
HETATM   12  N   UNL     1     -42.720 -51.492  12.416  1.00  0.00    -0.360 N 
HETATM   13  C   UNL     1     -43.152 -52.696  12.913  1.00  0.00     0.222 C 
HETATM   14  O   UNL     1     -42.432 -53.389  13.632  1.00  0.00    -0.273 OA
HETATM   15  H   UNL     1     -43.320 -50.949  11.814  1.00  0.00     0.162 HD
BRANCH  13  16
HETATM   16  C   UNL     1     -44.496 -53.226  12.577  1.00  0.00     0.086 A 
HETATM   17  C   UNL     1     -45.770 -52.418  12.660  1.00  0.00     0.004 A 
HETATM   18  C   UNL     1     -46.135 -51.366  13.671  1.00  0.00     0.006 C 
HETATM   19  C   UNL     1     -45.647 -53.727  13.411  1.00  0.00     0.004 A 
HETATM   20  C   UNL     1     -46.829 -52.172  14.771  1.00  0.00     0.001 C 
HETATM   21  C   UNL     1     -46.000 -53.455  14.843  1.00  0.00     0.006 C 
ENDBRANCH  13  16
ENDBRANCH   1  12
TORSDOF 5
ENDMDL
