MODEL 1
REMARK VINA RESULT:      -6.3      0.000      0.000
REMARK  5 active torsions:
REMARK  status: ('A' for Active; 'I' for Inactive)
REMARK       I    between atoms: C_2  and  N_4 
REMARK    1  A    between atoms: N_4  and  C_5 
REMARK    2  A    between atoms: C_5  and  C_6 
REMARK    3  A    between atoms: C_6  and  N_7 
REMARK       I    between atoms: N_7  and  C_8 
REMARK    4  A    between atoms: C_8  and  C_10 
REMARK    5  A    between atoms: C_13  and  N_19 
ROOT
HETATM    1  C   UNL     1     -42.771 -50.097  12.556  1.00  0.00     0.139 A 
HETATM    2  N   UNL     1     -42.969 -48.951  11.835  1.00  0.00    -0.184 N 
ATOM      3  HN  UNL     1     -43.792 -48.368  11.985  1.00  0.00     0.184 HD
HETATM    4  C   UNL     1     -42.039 -48.624  10.923  1.00  0.00     0.680 A 
HETATM    5  N   UNL     1     -40.924 -49.352  10.753  1.00  0.00    -0.200 N 
ATOM      6  HN  UNL     1     -40.226 -49.079  10.062  1.00  0.00     0.183 HD
HETATM    7  C   UNL     1     -40.747 -50.451  11.514  1.00  0.00     0.132 A 
HETATM    8  C   UNL     1     -41.649 -50.892  12.444  1.00  0.00     0.082 A 
HETATM    9 CL   UNL     1     -41.275 -52.285  13.371  1.00  0.00    -0.080 Cl
ENDROOT
BRANCH   1  10
HETATM   10  C   UNL     1     -43.891 -50.461  13.489  1.00  0.00     0.270 C 
HETATM   11  N   UNL     1     -45.025 -50.977  12.891  1.00  0.00    -0.354 N 
HETATM   12  H   UNL     1     -45.032 -51.078  11.881  1.00  0.00     0.162 HD
HETATM   13  O   UNL     1     -43.803 -50.318  14.703  1.00  0.00    -0.266 OA
BRANCH  11  14
HETATM   14  C   UNL     1     -46.195 -51.356  13.668  1.00  0.00     0.142 C 
BRANCH  14  15
HETATM   15  C   UNL     1     -46.480 -52.863  13.626  1.00  0.00     0.142 C 
BRANCH  15  16
HETATM   16  N   UNL     1     -45.478 -53.654  14.323  1.00  0.00    -0.360 N 
HETATM   17  C   UNL     1     -44.439 -54.259  13.655  1.00  0.00     0.213 C 
HETATM   18  C   UNL     1     -43.517 -55.038  14.558  1.00  0.00     0.117 C 
HETATM   19  O   UNL     1     -44.266 -54.176  12.447  1.00  0.00    -0.274 OA
HETATM   20  H   UNL     1     -45.522 -53.704  15.333  1.00  0.00     0.162 HD
ENDBRANCH  15  16
ENDBRANCH  14  15
ENDBRANCH  11  14
ENDBRANCH   1  10
BRANCH   4  21
HETATM   21  N   UNL     1     -42.220 -47.534  10.120  1.00  0.00    -0.214 N 
HETATM   22  C   UNL     1     -41.598 -46.241  10.385  1.00  0.00     0.167 C 
HETATM   23  C   UNL     1     -42.675 -45.141  10.406  1.00  0.00     0.188 C 
HETATM   24  O   UNL     1     -43.477 -45.155   9.212  1.00  0.00    -0.388 OA
HETATM   25  C   UNL     1     -44.136 -46.424   9.068  1.00  0.00     0.188 C 
HETATM   26  C   UNL     1     -43.121 -47.573   8.965  1.00  0.00     0.167 C 
ENDBRANCH   4  21
TORSDOF 5
ENDMDL
MODEL 2
REMARK VINA RESULT:      -6.3      2.274      6.833
REMARK  5 active torsions:
REMARK  status: ('A' for Active; 'I' for Inactive)
REMARK       I    between atoms: C_2  and  N_4 
REMARK    1  A    between atoms: N_4  and  C_5 
REMARK    2  A    between atoms: C_5  and  C_6 
REMARK    3  A    between atoms: C_6  and  N_7 
REMARK       I    between atoms: N_7  and  C_8 
REMARK    4  A    between atoms: C_8  and  C_10 
REMARK    5  A    between atoms: C_13  and  N_19 
ROOT
HETATM    1  C   UNL     1     -41.498 -49.791  11.775  1.00  0.00     0.139 A 
HETATM    2  N   UNL     1     -42.256 -50.917  11.941  1.00  0.00    -0.184 N 
ATOM      3  HN  UNL     1     -43.234 -50.943  11.653  1.00  0.00     0.184 HD
HETATM    4  C   UNL     1     -41.665 -51.987  12.497  1.00  0.00     0.680 A 
HETATM    5  N   UNL     1     -40.364 -51.986  12.830  1.00  0.00    -0.200 N 
ATOM      6  HN  UNL     1     -39.932 -52.813  13.241  1.00  0.00     0.183 HD
HETATM    7  C   UNL     1     -39.641 -50.869  12.610  1.00  0.00     0.132 A 
HETATM    8  C   UNL     1     -40.156 -49.714  12.085  1.00  0.00     0.082 A 
HETATM    9 CL   UNL     1     -39.111 -48.381  11.821  1.00  0.00    -0.080 Cl
ENDROOT
BRANCH   1  10
HETATM   10  C   UNL     1     -42.241 -48.599  11.240  1.00  0.00     0.270 C 
HETATM   11  N   UNL     1     -42.021 -48.304   9.908  1.00  0.00    -0.354 N 
HETATM   12  H   UNL     1     -41.387 -48.898   9.382  1.00  0.00     0.162 HD
HETATM   13  O   UNL     1     -42.999 -47.935  11.938  1.00  0.00    -0.266 OA
BRANCH  11  14
HETATM   14  C   UNL     1     -42.659 -47.168   9.261  1.00  0.00     0.142 C 
BRANCH  14  15
HETATM   15  C   UNL     1     -43.521 -47.571   8.056  1.00  0.00     0.142 C 
BRANCH  15  16
HETATM   16  N   UNL     1     -44.878 -47.944   8.423  1.00  0.00    -0.360 N 
HETATM   17  C   UNL     1     -45.809 -47.007   8.807  1.00  0.00     0.213 C 
HETATM   18  C   UNL     1     -47.150 -47.600   9.154  1.00  0.00     0.117 C 
HETATM   19  O   UNL     1     -45.583 -45.805   8.860  1.00  0.00    -0.274 OA
HETATM   20  H   UNL     1     -45.152 -48.914   8.332  1.00  0.00     0.162 HD
ENDBRANCH  15  16
ENDBRANCH  14  15
ENDBRANCH  11  14
ENDBRANCH   1  10
BRANCH   4  21
HETATM   21  N   UNL     1     -42.391 -53.114  12.758  1.00  0.00    -0.214 N 
HETATM   22  C   UNL     1     -43.808 -53.237  12.433  1.00  0.00     0.167 C 
HETATM   23  C   UNL     1     -44.593 -53.663  13.687  1.00  0.00     0.188 C 
HETATM   24  O   UNL     1     -44.039 -54.846  14.289  1.00  0.00    -0.388 OA
HETATM   25  C   UNL     1     -42.672 -54.619  14.672  1.00  0.00     0.188 C 
HETATM   26  C   UNL     1     -41.804 -54.260  13.456  1.00  0.00     0.167 C 
ENDBRANCH   4  21
TORSDOF 5
ENDMDL
MODEL 3
REMARK VINA RESULT:      -6.3      2.212      3.340
REMARK  5 active torsions:
REMARK  status: ('A' for Active; 'I' for Inactive)
REMARK       I    between atoms: C_2  and  N_4 
REMARK    1  A    between atoms: N_4  and  C_5 
REMARK    2  A    between atoms: C_5  and  C_6 
REMARK    3  A    between atoms: C_6  and  N_7 
REMARK       I    between atoms: N_7  and  C_8 
REMARK    4  A    between atoms: C_8  and  C_10 
REMARK    5  A    between atoms: C_13  and  N_19 
ROOT
HETATM    1  C   UNL     1     -41.689 -48.636  11.558  1.00  0.00     0.139 A 
HETATM    2  N   UNL     1     -42.797 -48.558  10.758  1.00  0.00    -0.184 N 
ATOM      3  HN  UNL     1     -43.533 -49.262  10.805  1.00  0.00     0.184 HD
HETATM    4  C   UNL     1     -42.878 -47.521   9.910  1.00  0.00     0.680 A 
HETATM    5  N   UNL     1     -41.943 -46.557   9.875  1.00  0.00    -0.200 N 
ATOM      6  HN  UNL     1     -42.030 -45.772   9.230  1.00  0.00     0.183 HD
HETATM    7  C   UNL     1     -40.889 -46.649  10.711  1.00  0.00     0.132 A 
HETATM    8  C   UNL     1     -40.693 -47.683  11.585  1.00  0.00     0.082 A 
HETATM    9 CL   UNL     1     -39.325 -47.652  12.619  1.00  0.00    -0.080 Cl
ENDROOT
BRANCH   1  10
HETATM   10  C   UNL     1     -41.610 -49.869  12.412  1.00  0.00     0.270 C 
HETATM   11  N   UNL     1     -41.703 -51.072  11.739  1.00  0.00    -0.354 N 
HETATM   12  H   UNL     1     -41.815 -51.051  10.730  1.00  0.00     0.162 HD
HETATM   13  O   UNL     1     -41.465 -49.813  13.628  1.00  0.00    -0.266 OA
BRANCH  11  14
HETATM   14  C   UNL     1     -41.660 -52.346  12.440  1.00  0.00     0.142 C 
BRANCH  14  15
HETATM   15  C   UNL     1     -42.983 -53.120  12.358  1.00  0.00     0.142 C 
BRANCH  15  16
HETATM   16  N   UNL     1     -44.154 -52.266  12.480  1.00  0.00    -0.360 N 
HETATM   17  C   UNL     1     -45.401 -52.780  12.750  1.00  0.00     0.213 C 
HETATM   18  C   UNL     1     -46.479 -51.731  12.829  1.00  0.00     0.117 C 
HETATM   19  O   UNL     1     -45.624 -53.972  12.917  1.00  0.00    -0.274 OA
HETATM   20  H   UNL     1     -44.026 -51.264  12.425  1.00  0.00     0.162 HD
ENDBRANCH  15  16
ENDBRANCH  14  15
ENDBRANCH  11  14
ENDBRANCH   1  10
BRANCH   4  21
HETATM   21  N   UNL     1     -43.921 -47.431   9.033  1.00  0.00    -0.214 N 
HETATM   22  C   UNL     1     -45.280 -47.096   9.448  1.00  0.00     0.167 C 
HETATM   23  C   UNL     1     -46.258 -48.166   8.933  1.00  0.00     0.188 C 
HETATM   24  O   UNL     1     -46.129 -48.372   7.515  1.00  0.00    -0.388 OA
HETATM   25  C   UNL     1     -44.793 -48.794   7.192  1.00  0.00     0.188 C 
HETATM   26  C   UNL     1     -43.757 -47.739   7.610  1.00  0.00     0.167 C 
ENDBRANCH   4  21
TORSDOF 5
ENDMDL
MODEL 4
REMARK VINA RESULT:      -6.3      2.161      6.617
REMARK  5 active torsions:
REMARK  status: ('A' for Active; 'I' for Inactive)
REMARK       I    between atoms: C_2  and  N_4 
REMARK    1  A    between atoms: N_4  and  C_5 
REMARK    2  A    between atoms: C_5  and  C_6 
REMARK    3  A    between atoms: C_6  and  N_7 
REMARK       I    between atoms: N_7  and  C_8 
REMARK    4  A    between atoms: C_8  and  C_10 
REMARK    5  A    between atoms: C_13  and  N_19 
ROOT
HETATM    1  C   UNL     1     -41.645 -50.906  12.396  1.00  0.00     0.139 A 
HETATM    2  N   UNL     1     -42.898 -51.446  12.496  1.00  0.00    -0.184 N 
ATOM      3  HN  UNL     1     -43.729 -50.897  12.274  1.00  0.00     0.184 HD
HETATM    4  C   UNL     1     -42.994 -52.724  12.896  1.00  0.00     0.680 A 
HETATM    5  N   UNL     1     -41.908 -53.475  13.138  1.00  0.00    -0.200 N 
ATOM      6  HN  UNL     1     -42.003 -54.447  13.431  1.00  0.00     0.183 HD
HETATM    7  C   UNL     1     -40.689 -52.918  12.986  1.00  0.00     0.132 A 
HETATM    8  C   UNL     1     -40.483 -51.615  12.620  1.00  0.00     0.082 A 
HETATM    9 CL   UNL     1     -38.877 -51.049  12.425  1.00  0.00    -0.080 Cl
ENDROOT
BRANCH   1  10
HETATM   10  C   UNL     1     -41.609 -49.448  12.039  1.00  0.00     0.270 C 
HETATM   11  N   UNL     1     -42.099 -49.123  10.789  1.00  0.00    -0.354 N 
HETATM   12  H   UNL     1     -42.448 -49.874  10.200  1.00  0.00     0.162 HD
HETATM   13  O   UNL     1     -41.179 -48.597  12.810  1.00  0.00    -0.266 OA
BRANCH  11  14
HETATM   14  C   UNL     1     -42.110 -47.753  10.302  1.00  0.00     0.142 C 
BRANCH  14  15
HETATM   15  C   UNL     1     -43.465 -47.058  10.495  1.00  0.00     0.142 C 
BRANCH  15  16
HETATM   16  N   UNL     1     -44.588 -47.856  10.030  1.00  0.00    -0.360 N 
HETATM   17  C   UNL     1     -45.568 -47.327   9.223  1.00  0.00     0.213 C 
HETATM   18  C   UNL     1     -46.646 -48.315   8.860  1.00  0.00     0.117 C 
HETATM   19  O   UNL     1     -45.573 -46.168   8.828  1.00  0.00    -0.274 OA
HETATM   20  H   UNL     1     -44.607 -48.842  10.260  1.00  0.00     0.162 HD
ENDBRANCH  15  16
ENDBRANCH  14  15
ENDBRANCH  11  14
ENDBRANCH   1  10
BRANCH   4  21
HETATM   21  N   UNL     1     -44.221 -53.293  13.089  1.00  0.00    -0.214 N 
HETATM   22  C   UNL     1     -45.453 -52.717  12.561  1.00  0.00     0.167 C 
HETATM   23  C   UNL     1     -46.476 -52.548  13.700  1.00  0.00     0.188 C 
HETATM   24  O   UNL     1     -46.681 -53.776  14.422  1.00  0.00    -0.388 OA
HETATM   25  C   UNL     1     -45.444 -54.231  14.994  1.00  0.00     0.188 C 
HETATM   26  C   UNL     1     -44.389 -54.495  13.909  1.00  0.00     0.167 C 
ENDBRANCH   4  21
TORSDOF 5
ENDMDL
MODEL 5
REMARK VINA RESULT:      -6.1      1.448      1.980
REMARK  5 active torsions:
REMARK  status: ('A' for Active; 'I' for Inactive)
REMARK       I    between atoms: C_2  and  N_4 
REMARK    1  A    between atoms: N_4  and  C_5 
REMARK    2  A    between atoms: C_5  and  C_6 
REMARK    3  A    between atoms: C_6  and  N_7 
REMARK       I    between atoms: N_7  and  C_8 
REMARK    4  A    between atoms: C_8  and  C_10 
REMARK    5  A    between atoms: C_13  and  N_19 
ROOT
HETATM    1  C   UNL     1     -41.761 -50.543  12.319  1.00  0.00     0.139 A 
HETATM    2  N   UNL     1     -42.230 -49.443  11.655  1.00  0.00    -0.184 N 
ATOM      3  HN  UNL     1     -43.224 -49.214  11.647  1.00  0.00     0.184 HD
HETATM    4  C   UNL     1     -41.334 -48.676  11.013  1.00  0.00     0.680 A 
HETATM    5  N   UNL     1     -40.017 -48.933  11.060  1.00  0.00    -0.200 N 
ATOM      6  HN  UNL     1     -39.352 -48.331  10.574  1.00  0.00     0.183 HD
HETATM    7  C   UNL     1     -39.591 -50.003  11.762  1.00  0.00     0.132 A 
HETATM    8  C   UNL     1     -40.424 -50.869  12.418  1.00  0.00     0.082 A 
HETATM    9 CL   UNL     1     -39.743 -52.167  13.306  1.00  0.00    -0.080 Cl
ENDROOT
BRANCH   1  10
HETATM   10  C   UNL     1     -42.820 -51.413  12.932  1.00  0.00     0.270 C 
HETATM   11  N   UNL     1     -43.369 -52.369  12.098  1.00  0.00    -0.354 N 
HETATM   12  H   UNL     1     -43.028 -52.426  11.143  1.00  0.00     0.162 HD
HETATM   13  O   UNL     1     -43.173 -51.289  14.100  1.00  0.00    -0.266 OA
BRANCH  11  14
HETATM   14  C   UNL     1     -44.417 -53.270  12.551  1.00  0.00     0.142 C 
BRANCH  14  15
HETATM   15  C   UNL     1     -45.822 -52.663  12.430  1.00  0.00     0.142 C 
BRANCH  15  16
HETATM   16  N   UNL     1     -46.194 -51.851  13.578  1.00  0.00    -0.360 N 
HETATM   17  C   UNL     1     -46.823 -52.391  14.675  1.00  0.00     0.213 C 
HETATM   18  C   UNL     1     -47.130 -51.381  15.750  1.00  0.00     0.117 C 
HETATM   19  O   UNL     1     -47.107 -53.577  14.781  1.00  0.00    -0.274 OA
HETATM   20  H   UNL     1     -45.923 -50.875  13.585  1.00  0.00     0.162 HD
ENDBRANCH  15  16
ENDBRANCH  14  15
ENDBRANCH  11  14
ENDBRANCH   1  10
BRANCH   4  21
HETATM   21  N   UNL     1     -41.751 -47.609  10.270  1.00  0.00    -0.214 N 
HETATM   22  C   UNL     1     -41.192 -46.269  10.421  1.00  0.00     0.167 C 
HETATM   23  C   UNL     1     -42.326 -45.257  10.659  1.00  0.00     0.188 C 
HETATM   24  O   UNL     1     -43.341 -45.341   9.642  1.00  0.00    -0.388 OA
HETATM   25  C   UNL     1     -43.914 -46.659   9.616  1.00  0.00     0.188 C 
HETATM   26  C   UNL     1     -42.851 -47.726   9.310  1.00  0.00     0.167 C 
ENDBRANCH   4  21
TORSDOF 5
ENDMDL
MODEL 6
REMARK VINA RESULT:      -5.9      3.010      4.128
REMARK  5 active torsions:
REMARK  status: ('A' for Active; 'I' for Inactive)
REMARK       I    between atoms: C_2  and  N_4 
REMARK    1  A    between atoms: N_4  and  C_5 
REMARK    2  A    between atoms: C_5  and  C_6 
REMARK    3  A    between atoms: C_6  and  N_7 
REMARK       I    between atoms: N_7  and  C_8 
REMARK    4  A    between atoms: C_8  and  C_10 
REMARK    5  A    between atoms: C_13  and  N_19 
ROOT
HETATM    1  C   UNL     1     -41.869 -48.810  11.648  1.00  0.00     0.139 A 
HETATM    2  N   UNL     1     -42.958 -48.669  10.832  1.00  0.00    -0.184 N 
ATOM      3  HN  UNL     1     -43.745 -49.316  10.884  1.00  0.00     0.184 HD
HETATM    4  C   UNL     1     -42.953 -47.647   9.962  1.00  0.00     0.680 A 
HETATM    5  N   UNL     1     -41.950 -46.755   9.919  1.00  0.00    -0.200 N 
ATOM      6  HN  UNL     1     -41.971 -45.980   9.257  1.00  0.00     0.183 HD
HETATM    7  C   UNL     1     -40.915 -46.906  10.771  1.00  0.00     0.132 A 
HETATM    8  C   UNL     1     -40.806 -47.932  11.669  1.00  0.00     0.082 A 
HETATM    9 CL   UNL     1     -39.452 -47.978  12.720  1.00  0.00    -0.080 Cl
ENDROOT
BRANCH   1  10
HETATM   10  C   UNL     1     -41.890 -50.026  12.529  1.00  0.00     0.270 C 
HETATM   11  N   UNL     1     -41.934 -51.242  11.874  1.00  0.00    -0.354 N 
HETATM   12  H   UNL     1     -41.946 -51.240  10.858  1.00  0.00     0.162 HD
HETATM   13  O   UNL     1     -41.863 -49.948  13.752  1.00  0.00    -0.266 OA
BRANCH  11  14
HETATM   14  C   UNL     1     -41.977 -52.502  12.598  1.00  0.00     0.142 C 
BRANCH  14  15
HETATM   15  C   UNL     1     -40.584 -53.090  12.863  1.00  0.00     0.142 C 
BRANCH  15  16
HETATM   16  N   UNL     1     -39.861 -52.395  13.915  1.00  0.00    -0.360 N 
HETATM   17  C   UNL     1     -38.766 -51.608  13.645  1.00  0.00     0.213 C 
HETATM   18  C   UNL     1     -38.155 -50.985  14.874  1.00  0.00     0.117 C 
HETATM   19  O   UNL     1     -38.324 -51.419  12.519  1.00  0.00    -0.274 OA
HETATM   20  H   UNL     1     -40.217 -52.450  14.861  1.00  0.00     0.162 HD
ENDBRANCH  15  16
ENDBRANCH  14  15
ENDBRANCH  11  14
ENDBRANCH   1  10
BRANCH   4  21
HETATM   21  N   UNL     1     -43.977 -47.501   9.069  1.00  0.00    -0.214 N 
HETATM   22  C   UNL     1     -45.332 -47.139   9.470  1.00  0.00     0.167 C 
HETATM   23  C   UNL     1     -46.332 -48.164   8.905  1.00  0.00     0.188 C 
HETATM   24  O   UNL     1     -46.181 -48.331   7.484  1.00  0.00    -0.388 OA
HETATM   25  C   UNL     1     -44.852 -48.782   7.172  1.00  0.00     0.188 C 
HETATM   26  C   UNL     1     -43.795 -47.771   7.641  1.00  0.00     0.167 C 
ENDBRANCH   4  21
TORSDOF 5
ENDMDL
MODEL 7
REMARK VINA RESULT:      -5.7      2.093      7.334
REMARK  5 active torsions:
REMARK  status: ('A' for Active; 'I' for Inactive)
REMARK       I    between atoms: C_2  and  N_4 
REMARK    1  A    between atoms: N_4  and  C_5 
REMARK    2  A    between atoms: C_5  and  C_6 
REMARK    3  A    between atoms: C_6  and  N_7 
REMARK       I    between atoms: N_7  and  C_8 
REMARK    4  A    between atoms: C_8  and  C_10 
REMARK    5  A    between atoms: C_13  and  N_19 
ROOT
HETATM    1  C   UNL     1     -41.767 -50.087  12.165  1.00  0.00     0.139 A 
HETATM    2  N   UNL     1     -42.593 -51.159  12.371  1.00  0.00    -0.184 N 
ATOM      3  HN  UNL     1     -43.604 -51.073  12.272  1.00  0.00     0.184 HD
HETATM    4  C   UNL     1     -42.022 -52.326  12.707  1.00  0.00     0.680 A 
HETATM    5  N   UNL     1     -40.689 -52.469  12.787  1.00  0.00    -0.200 N 
ATOM      6  HN  UNL     1     -40.276 -53.367  13.034  1.00  0.00     0.183 HD
HETATM    7  C   UNL     1     -39.909 -51.398  12.534  1.00  0.00     0.132 A 
HETATM    8  C   UNL     1     -40.391 -50.156  12.221  1.00  0.00     0.082 A 
HETATM    9 CL   UNL     1     -39.281 -48.893  11.885  1.00  0.00    -0.080 Cl
ENDROOT
BRANCH   1  10
HETATM   10  C   UNL     1     -42.470 -48.789  11.889  1.00  0.00     0.270 C 
HETATM   11  N   UNL     1     -42.719 -48.512  10.559  1.00  0.00    -0.354 N 
HETATM   12  H   UNL     1     -42.420 -49.189   9.863  1.00  0.00     0.162 HD
HETATM   13  O   UNL     1     -42.808 -48.025  12.787  1.00  0.00    -0.266 OA
BRANCH  11  14
HETATM   14  C   UNL     1     -43.376 -47.283  10.142  1.00  0.00     0.142 C 
BRANCH  14  15
HETATM   15  C   UNL     1     -42.397 -46.116   9.950  1.00  0.00     0.142 C 
BRANCH  15  16
HETATM   16  N   UNL     1     -42.346 -45.219  11.093  1.00  0.00    -0.360 N 
HETATM   17  C   UNL     1     -42.838 -43.936  11.031  1.00  0.00     0.213 C 
HETATM   18  C   UNL     1     -42.681 -43.169  12.318  1.00  0.00     0.117 C 
HETATM   19  O   UNL     1     -43.360 -43.455  10.034  1.00  0.00    -0.274 OA
HETATM   20  H   UNL     1     -41.992 -45.578  11.971  1.00  0.00     0.162 HD
ENDBRANCH  15  16
ENDBRANCH  14  15
ENDBRANCH  11  14
ENDBRANCH   1  10
BRANCH   4  21
HETATM   21  N   UNL     1     -42.799 -53.411  13.000  1.00  0.00    -0.214 N 
HETATM   22  C   UNL     1     -44.154 -53.578  12.484  1.00  0.00     0.167 C 
HETATM   23  C   UNL     1     -45.124 -53.838  13.650  1.00  0.00     0.188 C 
HETATM   24  O   UNL     1     -44.688 -54.932  14.477  1.00  0.00    -0.388 OA
HETATM   25  C   UNL     1     -43.390 -54.655  15.028  1.00  0.00     0.188 C 
HETATM   26  C   UNL     1     -42.343 -54.456  13.920  1.00  0.00     0.167 C 
ENDBRANCH   4  21
TORSDOF 5
ENDMDL
MODEL 8
REMARK VINA RESULT:      -5.7      2.061      6.748
REMARK  5 active torsions:
REMARK  status: ('A' for Active; 'I' for Inactive)
REMARK       I    between atoms: C_2  and  N_4 
REMARK    1  A    between atoms: N_4  and  C_5 
REMARK    2  A    between atoms: C_5  and  C_6 
REMARK    3  A    between atoms: C_6  and  N_7 
REMARK       I    between atoms: N_7  and  C_8 
REMARK    4  A    between atoms: C_8  and  C_10 
REMARK    5  A    between atoms: C_13  and  N_19 
ROOT
HETATM    1  C   UNL     1     -41.403 -50.922  12.486  1.00  0.00     0.139 A 
HETATM    2  N   UNL     1     -42.742 -51.193  12.405  1.00  0.00    -0.184 N 
ATOM      3  HN  UNL     1     -43.353 -50.658  11.788  1.00  0.00     0.184 HD
HETATM    4  C   UNL     1     -43.221 -52.187  13.169  1.00  0.00     0.680 A 
HETATM    5  N   UNL     1     -42.421 -52.935  13.945  1.00  0.00    -0.200 N 
ATOM      6  HN  UNL     1     -42.804 -53.693  14.509  1.00  0.00     0.183 HD
HETATM    7  C   UNL     1     -41.100 -52.664  13.963  1.00  0.00     0.132 A 
HETATM    8  C   UNL     1     -40.517 -51.650  13.253  1.00  0.00     0.082 A 
HETATM    9 CL   UNL     1     -38.817 -51.443  13.339  1.00  0.00    -0.080 Cl
ENDROOT
BRANCH   1  10
HETATM   10  C   UNL     1     -40.946 -49.737  11.684  1.00  0.00     0.270 C 
HETATM   11  N   UNL     1     -41.201 -48.500  12.243  1.00  0.00    -0.354 N 
HETATM   12  H   UNL     1     -41.670 -48.467  13.144  1.00  0.00     0.162 HD
HETATM   13  O   UNL     1     -40.376 -49.859  10.606  1.00  0.00    -0.266 OA
BRANCH  11  14
HETATM   14  C   UNL     1     -40.831 -47.265  11.571  1.00  0.00     0.142 C 
BRANCH  14  15
HETATM   15  C   UNL     1     -41.990 -46.641  10.781  1.00  0.00     0.142 C 
BRANCH  15  16
HETATM   16  N   UNL     1     -42.413 -47.452   9.650  1.00  0.00    -0.360 N 
HETATM   17  C   UNL     1     -43.162 -46.928   8.623  1.00  0.00     0.213 C 
HETATM   18  C   UNL     1     -43.502 -47.934   7.554  1.00  0.00     0.117 C 
HETATM   19  O   UNL     1     -43.519 -45.758   8.568  1.00  0.00    -0.274 OA
HETATM   20  H   UNL     1     -42.090 -48.410   9.597  1.00  0.00     0.162 HD
ENDBRANCH  15  16
ENDBRANCH  14  15
ENDBRANCH  11  14
ENDBRANCH   1  10
BRANCH   4  21
HETATM   21  N   UNL     1     -44.561 -52.453  13.188  1.00  0.00    -0.214 N 
HETATM   22  C   UNL     1     -45.577 -51.405  13.202  1.00  0.00     0.167 C 
HETATM   23  C   UNL     1     -46.542 -51.634  14.379  1.00  0.00     0.188 C 
HETATM   24  O   UNL     1     -47.092 -52.964  14.370  1.00  0.00    -0.388 OA
HETATM   25  C   UNL     1     -46.040 -53.939  14.457  1.00  0.00     0.188 C 
HETATM   26  C   UNL     1     -45.070 -53.824  13.271  1.00  0.00     0.167 C 
ENDBRANCH   4  21
TORSDOF 5
ENDMDL
MODEL 9
REMARK VINA RESULT:      -5.5      2.231      2.823
REMARK  5 active torsions:
REMARK  status: ('A' for Active; 'I' for Inactive)
REMARK       I    between atoms: C_2  and  N_4 
REMARK    1  A    between atoms: N_4  and  C_5 
REMARK    2  A    between atoms: C_5  and  C_6 
REMARK    3  A    between atoms: C_6  and  N_7 
REMARK       I    between atoms: N_7  and  C_8 
REMARK    4  A    between atoms: C_8  and  C_10 
REMARK    5  A    between atoms: C_13  and  N_19 
ROOT
HETATM    1  C   UNL     1     -40.603 -50.283  11.921  1.00  0.00     0.139 A 
HETATM    2  N   UNL     1     -41.655 -49.479  11.577  1.00  0.00    -0.184 N 
ATOM      3  HN  UNL     1     -42.619 -49.797  11.681  1.00  0.00     0.184 HD
HETATM    4  C   UNL     1     -41.372 -48.257  11.097  1.00  0.00     0.680 A 
HETATM    5  N   UNL     1     -40.112 -47.805  11.006  1.00  0.00    -0.200 N 
ATOM      6  HN  UNL     1     -39.920 -46.869  10.649  1.00  0.00     0.183 HD
HETATM    7  C   UNL     1     -39.105 -48.613  11.397  1.00  0.00     0.132 A 
HETATM    8  C   UNL     1     -39.283 -49.887  11.863  1.00  0.00     0.082 A 
HETATM    9 CL   UNL     1     -37.913 -50.790  12.363  1.00  0.00    -0.080 Cl
ENDROOT
BRANCH   1  10
HETATM   10  C   UNL     1     -40.980 -51.670  12.357  1.00  0.00     0.270 C 
HETATM   11  N   UNL     1     -41.085 -51.862  13.721  1.00  0.00    -0.354 N 
HETATM   12  H   UNL     1     -40.907 -51.072  14.333  1.00  0.00     0.162 HD
HETATM   13  O   UNL     1     -41.189 -52.572  11.554  1.00  0.00    -0.266 OA
BRANCH  11  14
HETATM   14  C   UNL     1     -41.425 -53.158  14.287  1.00  0.00     0.142 C 
BRANCH  14  15
HETATM   15  C   UNL     1     -42.663 -53.111  15.193  1.00  0.00     0.142 C 
BRANCH  15  16
HETATM   16  N   UNL     1     -43.869 -53.591  14.539  1.00  0.00    -0.360 N 
HETATM   17  C   UNL     1     -44.217 -54.922  14.545  1.00  0.00     0.213 C 
HETATM   18  C   UNL     1     -45.496 -55.213  13.805  1.00  0.00     0.117 C 
HETATM   19  O   UNL     1     -43.561 -55.794  15.100  1.00  0.00    -0.274 OA
HETATM   20  H   UNL     1     -44.494 -52.912  14.123  1.00  0.00     0.162 HD
ENDBRANCH  15  16
ENDBRANCH  14  15
ENDBRANCH  11  14
ENDBRANCH   1  10
BRANCH   4  21
HETATM   21  N   UNL     1     -42.378 -47.440  10.665  1.00  0.00    -0.214 N 
HETATM   22  C   UNL     1     -43.132 -47.689   9.441  1.00  0.00     0.167 C 
HETATM   23  C   UNL     1     -43.099 -46.436   8.548  1.00  0.00     0.188 C 
HETATM   24  O   UNL     1     -43.532 -45.261   9.256  1.00  0.00    -0.388 OA
HETATM   25  C   UNL     1     -42.684 -45.023  10.393  1.00  0.00     0.188 C 
HETATM   26  C   UNL     1     -42.721 -46.205  11.375  1.00  0.00     0.167 C 
ENDBRANCH   4  21
TORSDOF 5
ENDMDL
