MODEL 1
REMARK VINA RESULT:      -6.5      0.000      0.000
REMARK  5 active torsions:
REMARK  status: ('A' for Active; 'I' for Inactive)
REMARK    1  A    between atoms: N_6  and  C_7 
REMARK    2  A    between atoms: C_7  and  C_8 
REMARK    3  A    between atoms: C_8  and  O_9 
REMARK    4  A    between atoms: C_8  and  C_10 
REMARK    5  A    between atoms: C_10  and  N_11 
ROOT
HETATM    1  C   UNL     1     -40.772 -53.774  14.405  1.00  0.00     0.163 C 
ENDROOT
BRANCH   1   2
HETATM    2  C   UNL     1     -39.493 -53.388  13.644  1.00  0.00     0.155 C 
BRANCH   2   3
HETATM    3  C   UNL     1     -38.696 -52.248  14.321  1.00  0.00     0.168 C 
BRANCH   3   4
HETATM    4  N   UNL     1     -38.615 -51.098  13.423  1.00  0.00    -0.286 N 
HETATM    5  C   UNL     1     -37.617 -50.946  12.498  1.00  0.00     0.227 C 
HETATM    6  C   UNL     1     -37.730 -49.592  11.870  1.00  0.00     0.117 C 
HETATM    7  O   UNL     1     -36.779 -51.785  12.196  1.00  0.00    -0.273 OA
HETATM    8  C   UNL     1     -38.879 -48.933  12.625  1.00  0.00     0.083 C 
HETATM    9  C   UNL     1     -39.808 -48.139  11.729  1.00  0.00     0.020 C 
HETATM   10  C   UNL     1     -39.531 -50.085  13.359  1.00  0.00     0.230 C 
HETATM   11  O   UNL     1     -40.657 -50.084  13.825  1.00  0.00    -0.273 OA
ENDBRANCH   3   4
ENDBRANCH   2   3
BRANCH   2  12
HETATM   12  O   UNL     1     -38.600 -54.509  13.535  1.00  0.00    -0.392 OA
HETATM   13  H   UNL     1     -38.460 -54.728  12.596  1.00  0.00     0.210 HD
ENDBRANCH   2  12
ENDBRANCH   1   2
BRANCH   1  14
HETATM   14  N   UNL     1     -41.973 -53.238  13.764  1.00  0.00    -0.339 N 
HETATM   15  C   UNL     1     -42.134 -53.081  12.413  1.00  0.00     0.184 A 
HETATM   16  N   UNL     1     -43.329 -52.632  12.109  1.00  0.00    -0.350 N 
HETATM   17  C   UNL     1     -43.965 -52.466  13.314  1.00  0.00     0.060 A 
ATOM     18  HN  UNL     1     -43.704 -52.447  11.179  1.00  0.00     0.166 HD
HETATM   19  C   UNL     1     -45.262 -51.995  13.572  1.00  0.00     0.039 A 
HETATM   20  C   UNL     1     -43.139 -52.831  14.372  1.00  0.00     0.062 A 
HETATM   21  C   UNL     1     -45.712 -51.879  14.901  1.00  0.00    -0.054 A 
HETATM   22  C   UNL     1     -47.105 -51.354  15.135  1.00  0.00     0.049 C 
HETATM   23  C   UNL     1     -44.857 -52.240  15.962  1.00  0.00    -0.054 A 
HETATM   24  C   UNL     1     -45.267 -52.114  17.410  1.00  0.00     0.049 C 
HETATM   25  C   UNL     1     -43.556 -52.733  15.708  1.00  0.00     0.039 A 
ENDBRANCH   1  14
TORSDOF 5
ENDMDL
MODEL 2
REMARK VINA RESULT:      -6.4      2.651      6.816
REMARK  5 active torsions:
REMARK  status: ('A' for Active; 'I' for Inactive)
REMARK    1  A    between atoms: N_6  and  C_7 
REMARK    2  A    between atoms: C_7  and  C_8 
REMARK    3  A    between atoms: C_8  and  O_9 
REMARK    4  A    between atoms: C_8  and  C_10 
REMARK    5  A    between atoms: C_10  and  N_11 
ROOT
HETATM    1  C   UNL     1     -42.853 -53.061  14.452  1.00  0.00     0.163 C 
ENDROOT
BRANCH   1   2
HETATM    2  C   UNL     1     -43.334 -54.205  13.545  1.00  0.00     0.155 C 
BRANCH   2   3
HETATM    3  C   UNL     1     -44.790 -54.645  13.829  1.00  0.00     0.168 C 
BRANCH   3   4
HETATM    4  N   UNL     1     -45.602 -53.480  14.172  1.00  0.00    -0.286 N 
HETATM    5  C   UNL     1     -46.106 -52.622  13.232  1.00  0.00     0.227 C 
HETATM    6  C   UNL     1     -46.736 -51.452  13.921  1.00  0.00     0.117 C 
HETATM    7  O   UNL     1     -46.084 -52.787  12.020  1.00  0.00    -0.273 OA
HETATM    8  C   UNL     1     -46.447 -51.697  15.398  1.00  0.00     0.083 C 
HETATM    9  C   UNL     1     -47.619 -51.371  16.301  1.00  0.00     0.020 C 
HETATM   10  C   UNL     1     -45.993 -53.141  15.438  1.00  0.00     0.230 C 
HETATM   11  O   UNL     1     -45.963 -53.849  16.429  1.00  0.00    -0.273 OA
ENDBRANCH   3   4
ENDBRANCH   2   3
BRANCH   2  12
HETATM   12  O   UNL     1     -43.279 -53.823  12.160  1.00  0.00    -0.392 OA
HETATM   13  H   UNL     1     -42.487 -53.279  12.000  1.00  0.00     0.210 HD
ENDBRANCH   2  12
ENDBRANCH   1   2
BRANCH   1  14
HETATM   14  N   UNL     1     -41.406 -52.867  14.368  1.00  0.00    -0.339 N 
HETATM   15  C   UNL     1     -40.478 -53.589  15.071  1.00  0.00     0.184 A 
HETATM   16  N   UNL     1     -39.251 -53.244  14.763  1.00  0.00    -0.350 N 
HETATM   17  C   UNL     1     -39.383 -52.238  13.840  1.00  0.00     0.060 A 
ATOM     18  HN  UNL     1     -38.385 -53.638  15.130  1.00  0.00     0.166 HD
HETATM   19  C   UNL     1     -38.383 -51.498  13.187  1.00  0.00     0.039 A 
HETATM   20  C   UNL     1     -40.722 -51.973  13.575  1.00  0.00     0.062 A 
HETATM   21  C   UNL     1     -38.745 -50.482  12.283  1.00  0.00    -0.054 A 
HETATM   22  C   UNL     1     -37.641 -49.701  11.616  1.00  0.00     0.049 C 
HETATM   23  C   UNL     1     -40.107 -50.217  12.036  1.00  0.00    -0.054 A 
HETATM   24  C   UNL     1     -40.562 -49.123  11.100  1.00  0.00     0.049 C 
HETATM   25  C   UNL     1     -41.118 -50.971  12.676  1.00  0.00     0.039 A 
ENDBRANCH   1  14
TORSDOF 5
ENDMDL
MODEL 3
REMARK VINA RESULT:      -6.4      2.575      6.453
REMARK  5 active torsions:
REMARK  status: ('A' for Active; 'I' for Inactive)
REMARK    1  A    between atoms: N_6  and  C_7 
REMARK    2  A    between atoms: C_7  and  C_8 
REMARK    3  A    between atoms: C_8  and  O_9 
REMARK    4  A    between atoms: C_8  and  C_10 
REMARK    5  A    between atoms: C_10  and  N_11 
ROOT
HETATM    1  C   UNL     1     -41.551 -54.170  13.700  1.00  0.00     0.163 C 
ENDROOT
BRANCH   1   2
HETATM    2  C   UNL     1     -42.716 -53.854  14.653  1.00  0.00     0.155 C 
BRANCH   2   3
HETATM    3  C   UNL     1     -44.085 -54.358  14.138  1.00  0.00     0.168 C 
BRANCH   3   4
HETATM    4  N   UNL     1     -45.099 -53.323  14.332  1.00  0.00    -0.286 N 
HETATM    5  C   UNL     1     -45.729 -52.696  13.291  1.00  0.00     0.227 C 
HETATM    6  C   UNL     1     -46.572 -51.581  13.826  1.00  0.00     0.117 C 
HETATM    7  O   UNL     1     -45.654 -53.008  12.110  1.00  0.00    -0.273 OA
HETATM    8  C   UNL     1     -46.273 -51.580  15.320  1.00  0.00     0.083 C 
HETATM    9  C   UNL     1     -47.502 -51.357  16.178  1.00  0.00     0.020 C 
HETATM   10  C   UNL     1     -45.569 -52.902  15.544  1.00  0.00     0.230 C 
HETATM   11  O   UNL     1     -45.434 -53.461  16.618  1.00  0.00    -0.273 OA
ENDBRANCH   3   4
ENDBRANCH   2   3
BRANCH   2  12
HETATM   12  O   UNL     1     -42.509 -54.461  15.940  1.00  0.00    -0.392 OA
HETATM   13  H   UNL     1     -43.108 -55.221  16.045  1.00  0.00     0.210 HD
ENDBRANCH   2  12
ENDBRANCH   1   2
BRANCH   1  14
HETATM   14  N   UNL     1     -41.060 -52.973  13.019  1.00  0.00    -0.339 N 
HETATM   15  C   UNL     1     -41.444 -52.573  11.767  1.00  0.00     0.184 A 
HETATM   16  N   UNL     1     -40.890 -51.435  11.423  1.00  0.00    -0.350 N 
HETATM   17  C   UNL     1     -40.092 -51.091  12.485  1.00  0.00     0.060 A 
ATOM     18  HN  UNL     1     -41.024 -50.917  10.555  1.00  0.00     0.166 HD
HETATM   19  C   UNL     1     -39.260 -49.969  12.640  1.00  0.00     0.039 A 
HETATM   20  C   UNL     1     -40.170 -52.038  13.499  1.00  0.00     0.062 A 
HETATM   21  C   UNL     1     -38.500 -49.822  13.815  1.00  0.00    -0.054 A 
HETATM   22  C   UNL     1     -37.608 -48.613  13.935  1.00  0.00     0.049 C 
HETATM   23  C   UNL     1     -38.580 -50.799  14.828  1.00  0.00    -0.054 A 
HETATM   24  C   UNL     1     -37.770 -50.715  16.100  1.00  0.00     0.049 C 
HETATM   25  C   UNL     1     -39.430 -51.921  14.686  1.00  0.00     0.039 A 
ENDBRANCH   1  14
TORSDOF 5
ENDMDL
MODEL 4
REMARK VINA RESULT:      -6.3      3.179      4.591
REMARK  5 active torsions:
REMARK  status: ('A' for Active; 'I' for Inactive)
REMARK    1  A    between atoms: N_6  and  C_7 
REMARK    2  A    between atoms: C_7  and  C_8 
REMARK    3  A    between atoms: C_8  and  O_9 
REMARK    4  A    between atoms: C_8  and  C_10 
REMARK    5  A    between atoms: C_10  and  N_11 
ROOT
HETATM    1  C   UNL     1     -41.651 -49.415  12.414  1.00  0.00     0.163 C 
ENDROOT
BRANCH   1   2
HETATM    2  C   UNL     1     -42.360 -48.658  11.280  1.00  0.00     0.155 C 
BRANCH   2   3
HETATM    3  C   UNL     1     -42.834 -47.242  11.688  1.00  0.00     0.168 C 
BRANCH   3   4
HETATM    4  N   UNL     1     -41.721 -46.301  11.597  1.00  0.00    -0.286 N 
HETATM    5  C   UNL     1     -41.453 -45.572  10.470  1.00  0.00     0.227 C 
HETATM    6  C   UNL     1     -40.157 -44.845  10.650  1.00  0.00     0.117 C 
HETATM    7  O   UNL     1     -42.165 -45.490   9.479  1.00  0.00    -0.273 OA
HETATM    8  C   UNL     1     -39.653 -45.325  12.006  1.00  0.00     0.083 C 
HETATM    9  C   UNL     1     -39.045 -44.220  12.846  1.00  0.00     0.020 C 
HETATM   10  C   UNL     1     -40.863 -45.999  12.618  1.00  0.00     0.230 C 
HETATM   11  O   UNL     1     -41.017 -46.244  13.802  1.00  0.00    -0.273 OA
ENDBRANCH   3   4
ENDBRANCH   2   3
BRANCH   2  12
HETATM   12  O   UNL     1     -41.491 -48.492  10.147  1.00  0.00    -0.392 OA
HETATM   13  H   UNL     1     -41.008 -47.649  10.223  1.00  0.00     0.210 HD
ENDBRANCH   2  12
ENDBRANCH   1   2
BRANCH   1  14
HETATM   14  N   UNL     1     -41.946 -50.847  12.386  1.00  0.00    -0.339 N 
HETATM   15  C   UNL     1     -41.117 -51.805  11.865  1.00  0.00     0.184 A 
HETATM   16  N   UNL     1     -41.604 -53.013  12.021  1.00  0.00    -0.350 N 
HETATM   17  C   UNL     1     -42.812 -52.834  12.646  1.00  0.00     0.060 A 
ATOM     18  HN  UNL     1     -41.177 -53.895  11.738  1.00  0.00     0.166 HD
HETATM   19  C   UNL     1     -43.757 -53.796  13.037  1.00  0.00     0.039 A 
HETATM   20  C   UNL     1     -43.059 -51.487  12.883  1.00  0.00     0.062 A 
HETATM   21  C   UNL     1     -44.956 -53.387  13.651  1.00  0.00    -0.054 A 
HETATM   22  C   UNL     1     -45.951 -54.450  14.041  1.00  0.00     0.049 C 
HETATM   23  C   UNL     1     -45.197 -52.016  13.871  1.00  0.00    -0.054 A 
HETATM   24  C   UNL     1     -46.474 -51.509  14.499  1.00  0.00     0.049 C 
HETATM   25  C   UNL     1     -44.241 -51.043  13.497  1.00  0.00     0.039 A 
ENDBRANCH   1  14
TORSDOF 5
ENDMDL
MODEL 5
REMARK VINA RESULT:      -6.3      3.372      6.755
REMARK  5 active torsions:
REMARK  status: ('A' for Active; 'I' for Inactive)
REMARK    1  A    between atoms: N_6  and  C_7 
REMARK    2  A    between atoms: C_7  and  C_8 
REMARK    3  A    between atoms: C_8  and  O_9 
REMARK    4  A    between atoms: C_8  and  C_10 
REMARK    5  A    between atoms: C_10  and  N_11 
ROOT
HETATM    1  C   UNL     1     -42.588 -53.334  14.060  1.00  0.00     0.163 C 
ENDROOT
BRANCH   1   2
HETATM    2  C   UNL     1     -43.365 -54.012  12.920  1.00  0.00     0.155 C 
BRANCH   2   3
HETATM    3  C   UNL     1     -44.774 -54.495  13.340  1.00  0.00     0.168 C 
BRANCH   3   4
HETATM    4  N   UNL     1     -45.560 -53.366  13.830  1.00  0.00    -0.286 N 
HETATM    5  C   UNL     1     -46.215 -52.498  12.998  1.00  0.00     0.227 C 
HETATM    6  C   UNL     1     -46.773 -51.368  13.805  1.00  0.00     0.117 C 
HETATM    7  O   UNL     1     -46.360 -52.629  11.790  1.00  0.00    -0.273 OA
HETATM    8  C   UNL     1     -46.272 -51.646  15.218  1.00  0.00     0.083 C 
HETATM    9  C   UNL     1     -47.314 -51.381  16.287  1.00  0.00     0.020 C 
HETATM   10  C   UNL     1     -45.779 -53.075  15.148  1.00  0.00     0.230 C 
HETATM   11  O   UNL     1     -45.591 -53.809  16.102  1.00  0.00    -0.273 OA
ENDBRANCH   3   4
ENDBRANCH   2   3
BRANCH   2  12
HETATM   12  O   UNL     1     -43.549 -53.112  11.814  1.00  0.00    -0.392 OA
HETATM   13  H   UNL     1     -44.332 -53.379  11.300  1.00  0.00     0.210 HD
ENDBRANCH   2  12
ENDBRANCH   1   2
BRANCH   1  14
HETATM   14  N   UNL     1     -41.246 -53.895  14.217  1.00  0.00    -0.339 N 
HETATM   15  C   UNL     1     -40.221 -53.730  13.324  1.00  0.00     0.184 A 
HETATM   16  N   UNL     1     -39.111 -54.292  13.741  1.00  0.00    -0.350 N 
HETATM   17  C   UNL     1     -39.433 -54.870  14.943  1.00  0.00     0.060 A 
ATOM     18  HN  UNL     1     -38.205 -54.299  13.272  1.00  0.00     0.166 HD
HETATM   19  C   UNL     1     -38.620 -55.615  15.812  1.00  0.00     0.039 A 
HETATM   20  C   UNL     1     -40.766 -54.645  15.267  1.00  0.00     0.062 A 
HETATM   21  C   UNL     1     -39.165 -56.143  16.998  1.00  0.00    -0.054 A 
HETATM   22  C   UNL     1     -38.263 -56.950  17.895  1.00  0.00     0.049 C 
HETATM   23  C   UNL     1     -40.522 -55.917  17.304  1.00  0.00    -0.054 A 
HETATM   24  C   UNL     1     -41.176 -56.478  18.545  1.00  0.00     0.049 C 
HETATM   25  C   UNL     1     -41.342 -55.151  16.442  1.00  0.00     0.039 A 
ENDBRANCH   1  14
TORSDOF 5
ENDMDL
MODEL 6
REMARK VINA RESULT:      -6.3      1.765      2.252
REMARK  5 active torsions:
REMARK  status: ('A' for Active; 'I' for Inactive)
REMARK    1  A    between atoms: N_6  and  C_7 
REMARK    2  A    between atoms: C_7  and  C_8 
REMARK    3  A    between atoms: C_8  and  O_9 
REMARK    4  A    between atoms: C_8  and  C_10 
REMARK    5  A    between atoms: C_10  and  N_11 
ROOT
HETATM    1  C   UNL     1     -42.269 -53.595  13.575  1.00  0.00     0.163 C 
ENDROOT
BRANCH   1   2
HETATM    2  C   UNL     1     -41.772 -52.539  12.574  1.00  0.00     0.155 C 
BRANCH   2   3
HETATM    3  C   UNL     1     -41.243 -51.252  13.249  1.00  0.00     0.168 C 
BRANCH   3   4
HETATM    4  N   UNL     1     -39.849 -51.032  12.872  1.00  0.00    -0.286 N 
HETATM    5  C   UNL     1     -38.799 -51.604  13.538  1.00  0.00     0.227 C 
HETATM    6  C   UNL     1     -37.516 -51.040  13.011  1.00  0.00     0.117 C 
HETATM    7  O   UNL     1     -38.877 -52.466  14.402  1.00  0.00    -0.273 OA
HETATM    8  C   UNL     1     -37.965 -49.984  12.008  1.00  0.00     0.083 C 
HETATM    9  C   UNL     1     -37.132 -49.968  10.741  1.00  0.00     0.020 C 
HETATM   10  C   UNL     1     -39.433 -50.288  11.802  1.00  0.00     0.230 C 
HETATM   11  O   UNL     1     -40.112 -49.911  10.863  1.00  0.00    -0.273 OA
ENDBRANCH   3   4
ENDBRANCH   2   3
BRANCH   2  12
HETATM   12  O   UNL     1     -40.699 -53.056  11.769  1.00  0.00    -0.392 OA
HETATM   13  H   UNL     1     -41.064 -53.530  11.000  1.00  0.00     0.210 HD
ENDBRANCH   2  12
ENDBRANCH   1   2
BRANCH   1  14
HETATM   14  N   UNL     1     -43.727 -53.592  13.698  1.00  0.00    -0.339 N 
HETATM   15  C   UNL     1     -44.571 -54.406  12.992  1.00  0.00     0.184 A 
HETATM   16  N   UNL     1     -45.825 -54.232  13.338  1.00  0.00    -0.350 N 
HETATM   17  C   UNL     1     -45.799 -53.246  14.291  1.00  0.00     0.060 A 
ATOM     18  HN  UNL     1     -46.642 -54.724  12.977  1.00  0.00     0.166 HD
HETATM   19  C   UNL     1     -46.868 -52.662  14.990  1.00  0.00     0.039 A 
HETATM   20  C   UNL     1     -44.498 -52.818  14.535  1.00  0.00     0.062 A 
HETATM   21  C   UNL     1     -46.616 -51.635  15.920  1.00  0.00    -0.054 A 
HETATM   22  C   UNL     1     -47.793 -51.024  16.636  1.00  0.00     0.049 C 
HETATM   23  C   UNL     1     -45.294 -51.204  16.144  1.00  0.00    -0.054 A 
HETATM   24  C   UNL     1     -44.959 -50.089  17.106  1.00  0.00     0.049 C 
HETATM   25  C   UNL     1     -44.211 -51.801  15.458  1.00  0.00     0.039 A 
ENDBRANCH   1  14
TORSDOF 5
ENDMDL
MODEL 7
REMARK VINA RESULT:      -6.2      3.249      5.486
REMARK  5 active torsions:
REMARK  status: ('A' for Active; 'I' for Inactive)
REMARK    1  A    between atoms: N_6  and  C_7 
REMARK    2  A    between atoms: C_7  and  C_8 
REMARK    3  A    between atoms: C_8  and  O_9 
REMARK    4  A    between atoms: C_8  and  C_10 
REMARK    5  A    between atoms: C_10  and  N_11 
ROOT
HETATM    1  C   UNL     1     -41.422 -54.468  15.024  1.00  0.00     0.163 C 
ENDROOT
BRANCH   1   2
HETATM    2  C   UNL     1     -42.830 -54.655  15.613  1.00  0.00     0.155 C 
BRANCH   2   3
HETATM    3  C   UNL     1     -43.909 -54.952  14.545  1.00  0.00     0.168 C 
BRANCH   3   4
HETATM    4  N   UNL     1     -44.813 -53.810  14.423  1.00  0.00    -0.286 N 
HETATM    5  C   UNL     1     -45.081 -53.199  13.228  1.00  0.00     0.227 C 
HETATM    6  C   UNL     1     -45.898 -51.970  13.475  1.00  0.00     0.117 C 
HETATM    7  O   UNL     1     -44.745 -53.600  12.122  1.00  0.00    -0.273 OA
HETATM    8  C   UNL     1     -45.991 -51.892  14.995  1.00  0.00     0.083 C 
HETATM    9  C   UNL     1     -47.365 -51.487  15.492  1.00  0.00     0.020 C 
HETATM   10  C   UNL     1     -45.525 -53.258  15.452  1.00  0.00     0.230 C 
HETATM   11  O   UNL     1     -45.732 -53.750  16.547  1.00  0.00    -0.273 OA
ENDBRANCH   3   4
ENDBRANCH   2   3
BRANCH   2  12
HETATM   12  O   UNL     1     -42.857 -55.749  16.545  1.00  0.00    -0.392 OA
HETATM   13  H   UNL     1     -43.431 -56.458  16.202  1.00  0.00     0.210 HD
ENDBRANCH   2  12
ENDBRANCH   1   2
BRANCH   1  14
HETATM   14  N   UNL     1     -41.417 -53.522  13.908  1.00  0.00    -0.339 N 
HETATM   15  C   UNL     1     -41.023 -53.822  12.631  1.00  0.00     0.184 A 
HETATM   16  N   UNL     1     -41.172 -52.804  11.818  1.00  0.00    -0.350 N 
HETATM   17  C   UNL     1     -41.659 -51.789  12.602  1.00  0.00     0.060 A 
ATOM     18  HN  UNL     1     -40.970 -52.772  10.819  1.00  0.00     0.166 HD
HETATM   19  C   UNL     1     -41.984 -50.471  12.243  1.00  0.00     0.039 A 
HETATM   20  C   UNL     1     -41.818 -52.205  13.920  1.00  0.00     0.062 A 
HETATM   21  C   UNL     1     -42.452 -49.575  13.223  1.00  0.00    -0.054 A 
HETATM   22  C   UNL     1     -42.774 -48.165  12.800  1.00  0.00     0.049 C 
HETATM   23  C   UNL     1     -42.594 -50.009  14.557  1.00  0.00    -0.054 A 
HETATM   24  C   UNL     1     -43.064 -49.092  15.661  1.00  0.00     0.049 C 
HETATM   25  C   UNL     1     -42.286 -51.341  14.921  1.00  0.00     0.039 A 
ENDBRANCH   1  14
TORSDOF 5
ENDMDL
MODEL 8
REMARK VINA RESULT:      -6.1      2.820      6.731
REMARK  5 active torsions:
REMARK  status: ('A' for Active; 'I' for Inactive)
REMARK    1  A    between atoms: N_6  and  C_7 
REMARK    2  A    between atoms: C_7  and  C_8 
REMARK    3  A    between atoms: C_8  and  O_9 
REMARK    4  A    between atoms: C_8  and  C_10 
REMARK    5  A    between atoms: C_10  and  N_11 
ROOT
HETATM    1  C   UNL     1     -42.589 -50.594  12.737  1.00  0.00     0.163 C 
ENDROOT
BRANCH   1   2
HETATM    2  C   UNL     1     -42.166 -52.072  12.706  1.00  0.00     0.155 C 
BRANCH   2   3
HETATM    3  C   UNL     1     -42.754 -52.905  13.870  1.00  0.00     0.168 C 
BRANCH   3   4
HETATM    4  N   UNL     1     -44.179 -52.615  14.017  1.00  0.00    -0.286 N 
HETATM    5  C   UNL     1     -45.140 -53.189  13.230  1.00  0.00     0.227 C 
HETATM    6  C   UNL     1     -46.462 -52.551  13.523  1.00  0.00     0.117 C 
HETATM    7  O   UNL     1     -44.968 -54.103  12.434  1.00  0.00    -0.273 OA
HETATM    8  C   UNL     1     -46.125 -51.454  14.526  1.00  0.00     0.083 C 
HETATM    9  C   UNL     1     -47.138 -51.335  15.647  1.00  0.00     0.020 C 
HETATM   10  C   UNL     1     -44.719 -51.796  14.970  1.00  0.00     0.230 C 
HETATM   11  O   UNL     1     -44.174 -51.387  15.981  1.00  0.00    -0.273 OA
ENDBRANCH   3   4
ENDBRANCH   2   3
BRANCH   2  12
HETATM   12  O   UNL     1     -42.593 -52.705  11.488  1.00  0.00    -0.392 OA
HETATM   13  H   UNL     1     -42.805 -53.640  11.660  1.00  0.00     0.210 HD
ENDBRANCH   2  12
ENDBRANCH   1   2
BRANCH   1  14
HETATM   14  N   UNL     1     -41.556 -49.717  12.186  1.00  0.00    -0.339 N 
HETATM   15  C   UNL     1     -40.472 -50.144  11.467  1.00  0.00     0.184 A 
HETATM   16  N   UNL     1     -39.736 -49.142  11.046  1.00  0.00    -0.350 N 
HETATM   17  C   UNL     1     -40.353 -48.017  11.533  1.00  0.00     0.060 A 
ATOM     18  HN  UNL     1     -38.889 -49.189  10.480  1.00  0.00     0.166 HD
HETATM   19  C   UNL     1     -39.977 -46.671  11.392  1.00  0.00     0.039 A 
HETATM   20  C   UNL     1     -41.493 -48.344  12.258  1.00  0.00     0.062 A 
HETATM   21  C   UNL     1     -40.750 -45.664  12.000  1.00  0.00    -0.054 A 
HETATM   22  C   UNL     1     -40.304 -44.233  11.838  1.00  0.00     0.049 C 
HETATM   23  C   UNL     1     -41.895 -46.013  12.743  1.00  0.00    -0.054 A 
HETATM   24  C   UNL     1     -42.751 -44.984  13.443  1.00  0.00     0.049 C 
HETATM   25  C   UNL     1     -42.289 -47.366  12.873  1.00  0.00     0.039 A 
ENDBRANCH   1  14
TORSDOF 5
ENDMDL
MODEL 9
REMARK VINA RESULT:      -6.0      2.542      6.674
REMARK  5 active torsions:
REMARK  status: ('A' for Active; 'I' for Inactive)
REMARK    1  A    between atoms: N_6  and  C_7 
REMARK    2  A    between atoms: C_7  and  C_8 
REMARK    3  A    between atoms: C_8  and  O_9 
REMARK    4  A    between atoms: C_8  and  C_10 
REMARK    5  A    between atoms: C_10  and  N_11 
ROOT
HETATM    1  C   UNL     1     -42.683 -52.316  12.189  1.00  0.00     0.163 C 
ENDROOT
BRANCH   1   2
HETATM    2  C   UNL     1     -42.790 -53.446  13.227  1.00  0.00     0.155 C 
BRANCH   2   3
HETATM    3  C   UNL     1     -44.193 -54.097  13.284  1.00  0.00     0.168 C 
BRANCH   3   4
HETATM    4  N   UNL     1     -45.170 -53.129  13.777  1.00  0.00    -0.286 N 
HETATM    5  C   UNL     1     -46.057 -52.486  12.957  1.00  0.00     0.227 C 
HETATM    6  C   UNL     1     -46.789 -51.444  13.745  1.00  0.00     0.117 C 
HETATM    7  O   UNL     1     -46.258 -52.733  11.776  1.00  0.00    -0.273 OA
HETATM    8  C   UNL     1     -46.138 -51.502  15.122  1.00  0.00     0.083 C 
HETATM    9  C   UNL     1     -47.131 -51.389  16.261  1.00  0.00     0.020 C 
HETATM   10  C   UNL     1     -45.349 -52.794  15.090  1.00  0.00     0.230 C 
HETATM   11  O   UNL     1     -44.936 -53.398  16.064  1.00  0.00    -0.273 OA
ENDBRANCH   3   4
ENDBRANCH   2   3
BRANCH   2  12
HETATM   12  O   UNL     1     -41.856 -54.500  12.939  1.00  0.00    -0.392 OA
HETATM   13  H   UNL     1     -41.786 -54.624  11.976  1.00  0.00     0.210 HD
ENDBRANCH   2  12
ENDBRANCH   1   2
BRANCH   1  14
HETATM   14  N   UNL     1     -42.260 -51.054  12.796  1.00  0.00    -0.339 N 
HETATM   15  C   UNL     1     -43.111 -50.102  13.291  1.00  0.00     0.184 A 
HETATM   16  N   UNL     1     -42.463 -49.095  13.828  1.00  0.00    -0.350 N 
HETATM   17  C   UNL     1     -41.135 -49.391  13.652  1.00  0.00     0.060 A 
ATOM     18  HN  UNL     1     -42.861 -48.271  14.279  1.00  0.00     0.166 HD
HETATM   19  C   UNL     1     -40.005 -48.645  14.026  1.00  0.00     0.039 A 
HETATM   20  C   UNL     1     -40.974 -50.609  13.002  1.00  0.00     0.062 A 
HETATM   21  C   UNL     1     -38.718 -49.128  13.724  1.00  0.00    -0.054 A 
HETATM   22  C   UNL     1     -37.533 -48.289  14.128  1.00  0.00     0.049 C 
HETATM   23  C   UNL     1     -38.573 -50.358  13.052  1.00  0.00    -0.054 A 
HETATM   24  C   UNL     1     -37.223 -50.920  12.674  1.00  0.00     0.049 C 
HETATM   25  C   UNL     1     -39.706 -51.124  12.690  1.00  0.00     0.039 A 
ENDBRANCH   1  14
TORSDOF 5
ENDMDL
