MODEL 1
REMARK VINA RESULT:      -8.3      0.000      0.000
REMARK  6 active torsions:
REMARK  status: ('A' for Active; 'I' for Inactive)
REMARK    1  A    between atoms: N_1  and  C_11 
REMARK    2  A    between atoms: N_2  and  C_10 
REMARK    3  A    between atoms: C_7  and  N_12 
REMARK    4  A    between atoms: C_8  and  C_15 
REMARK    5  A    between atoms: C_9  and  N_13 
REMARK    6  A    between atoms: C_11  and  C_14 
REMARK       I    between atoms: N_12  and  C_14 
ROOT
HETATM    1  N   UNL     1     -42.472 -47.611  11.992  1.00  0.00    -0.324 N 
HETATM    2  C   UNL     1     -41.423 -48.487  11.739  1.00  0.00     0.240 C 
HETATM    3  O   UNL     1     -41.061 -48.819  10.610  1.00  0.00    -0.271 OA
HETATM    4  H   UNL     1     -42.863 -47.561  12.930  1.00  0.00     0.169 HD
ENDROOT
BRANCH   1   5
HETATM    5  C   UNL     1     -43.256 -47.043  10.957  1.00  0.00     0.062 A 
HETATM    6  C   UNL     1     -42.880 -45.820  10.328  1.00  0.00     0.057 A 
HETATM    7  C   UNL     1     -43.686 -45.408   9.251  1.00  0.00     0.032 A 
HETATM    8  C   UNL     1     -44.807 -46.157   8.827  1.00  0.00     0.018 A 
HETATM    9  C   UNL     1     -45.147 -47.360   9.456  1.00  0.00     0.050 A 
HETATM   10  C   UNL     1     -44.368 -47.778  10.529  1.00  0.00     0.048 A 
BRANCH   6  11
HETATM   11  N   UNL     1     -41.812 -45.062  10.790  1.00  0.00    -0.375 N 
HETATM   12  C   UNL     1     -40.404 -45.187  10.356  1.00  0.00     0.149 C 
HETATM   13  C   UNL     1     -39.506 -44.850  11.578  1.00  0.00     0.187 C 
HETATM   14  O   UNL     1     -39.814 -43.567  12.167  1.00  0.00    -0.388 OA
HETATM   15  C   UNL     1     -41.211 -43.473  12.502  1.00  0.00     0.187 C 
HETATM   16  C   UNL     1     -42.072 -43.684  11.250  1.00  0.00     0.149 C 
ENDBRANCH   6  11
BRANCH   9  17
HETATM   17  C   UNL     1     -46.308 -48.219   9.012  1.00  0.00     0.417 C 
HETATM   18  F   UNL     1     -46.156 -48.729   7.755  1.00  0.00    -0.166 F 
HETATM   19  F   UNL     1     -46.519 -49.290   9.824  1.00  0.00    -0.166 F 
HETATM   20  F   UNL     1     -47.484 -47.530   8.983  1.00  0.00    -0.166 F 
ENDBRANCH   9  17
ENDBRANCH   1   5
BRANCH   2  21
HETATM   21  C   UNL     1     -40.841 -49.193  12.965  1.00  0.00     0.240 C 
BRANCH  21  22
HETATM   22  N   UNL     1     -41.356 -50.512  13.315  1.00  0.00    -0.255 N 
HETATM   23  C   UNL     1     -42.615 -50.545  13.894  1.00  0.00     0.334 A 
HETATM   24  N   UNL     1     -43.291 -51.749  13.853  1.00  0.00    -0.279 N 
HETATM   25  O   UNL     1     -43.129 -49.515  14.341  1.00  0.00    -0.246 OA
HETATM   26  C   UNL     1     -42.719 -52.893  13.338  1.00  0.00     0.146 A 
HETATM   27  C   UNL     1     -41.478 -52.887  12.854  1.00  0.00     0.200 A 
HETATM   28  C   UNL     1     -40.699 -51.633  12.817  1.00  0.00     0.292 A 
HETATM   29  F   UNL     1     -40.918 -53.983  12.301  1.00  0.00    -0.199 F 
HETATM   30  O   UNL     1     -39.586 -51.607  12.304  1.00  0.00    -0.264 OA
BRANCH  24  31
HETATM   31  C   UNL     1     -44.676 -51.690  14.302  1.00  0.00     0.232 C 
HETATM   32  O   UNL     1     -45.135 -52.928  14.862  1.00  0.00    -0.366 OA
HETATM   33  C   UNL     1     -46.569 -52.905  14.775  1.00  0.00     0.170 C 
HETATM   34  C   UNL     1     -46.954 -51.918  13.686  1.00  0.00     0.031 C 
HETATM   35  C   UNL     1     -45.637 -51.427  13.151  1.00  0.00     0.056 C 
ENDBRANCH  24  31
ENDBRANCH  21  22
ENDBRANCH   2  21
TORSDOF 6
ENDMDL
MODEL 2
REMARK VINA RESULT:      -8.0      3.324      5.337
REMARK  6 active torsions:
REMARK  status: ('A' for Active; 'I' for Inactive)
REMARK    1  A    between atoms: N_1  and  C_11 
REMARK    2  A    between atoms: N_2  and  C_10 
REMARK    3  A    between atoms: C_7  and  N_12 
REMARK    4  A    between atoms: C_8  and  C_15 
REMARK    5  A    between atoms: C_9  and  N_13 
REMARK    6  A    between atoms: C_11  and  C_14 
REMARK       I    between atoms: N_12  and  C_14 
ROOT
HETATM    1  N   UNL     1     -40.933 -50.494  10.990  1.00  0.00    -0.324 N 
HETATM    2  C   UNL     1     -41.261 -51.313  12.064  1.00  0.00     0.240 C 
HETATM    3  O   UNL     1     -41.583 -50.893  13.176  1.00  0.00    -0.271 OA
HETATM    4  H   UNL     1     -40.460 -50.896  10.185  1.00  0.00     0.169 HD
ENDROOT
BRANCH   1   5
HETATM    5  C   UNL     1     -40.902 -49.081  11.091  1.00  0.00     0.062 A 
HETATM    6  C   UNL     1     -39.804 -48.404  11.698  1.00  0.00     0.057 A 
HETATM    7  C   UNL     1     -39.844 -46.999  11.652  1.00  0.00     0.032 A 
HETATM    8  C   UNL     1     -40.914 -46.302  11.049  1.00  0.00     0.018 A 
HETATM    9  C   UNL     1     -41.975 -46.991  10.449  1.00  0.00     0.050 A 
HETATM   10  C   UNL     1     -41.958 -48.380  10.495  1.00  0.00     0.048 A 
BRANCH   6  11
HETATM   11  N   UNL     1     -38.786 -49.099  12.340  1.00  0.00    -0.375 N 
HETATM   12  C   UNL     1     -37.595 -49.691  11.695  1.00  0.00     0.149 C 
HETATM   13  C   UNL     1     -37.222 -50.973  12.489  1.00  0.00     0.187 C 
HETATM   14  O   UNL     1     -37.048 -50.730  13.902  1.00  0.00    -0.388 OA
HETATM   15  C   UNL     1     -38.207 -50.086  14.463  1.00  0.00     0.187 C 
HETATM   16  C   UNL     1     -38.476 -48.758  13.742  1.00  0.00     0.149 C 
ENDBRANCH   6  11
BRANCH   9  17
HETATM   17  C   UNL     1     -43.119 -46.293   9.753  1.00  0.00     0.417 C 
HETATM   18  F   UNL     1     -43.249 -44.981  10.104  1.00  0.00    -0.166 F 
HETATM   19  F   UNL     1     -43.005 -46.304   8.398  1.00  0.00    -0.166 F 
HETATM   20  F   UNL     1     -44.326 -46.863  10.034  1.00  0.00    -0.166 F 
ENDBRANCH   9  17
ENDBRANCH   1   5
BRANCH   2  21
HETATM   21  C   UNL     1     -41.011 -52.808  11.856  1.00  0.00     0.240 C 
BRANCH  21  22
HETATM   22  N   UNL     1     -41.256 -53.713  12.973  1.00  0.00    -0.255 N 
HETATM   23  C   UNL     1     -40.163 -54.012  13.771  1.00  0.00     0.334 A 
HETATM   24  N   UNL     1     -40.426 -54.506  15.034  1.00  0.00    -0.279 N 
HETATM   25  O   UNL     1     -39.017 -53.759  13.388  1.00  0.00    -0.246 OA
HETATM   26  C   UNL     1     -41.709 -54.772  15.463  1.00  0.00     0.146 A 
HETATM   27  C   UNL     1     -42.760 -54.564  14.671  1.00  0.00     0.200 A 
HETATM   28  C   UNL     1     -42.573 -53.995  13.321  1.00  0.00     0.292 A 
HETATM   29  F   UNL     1     -44.026 -54.772  15.088  1.00  0.00    -0.199 F 
HETATM   30  O   UNL     1     -43.543 -53.732  12.618  1.00  0.00    -0.264 OA
BRANCH  24  31
HETATM   31  C   UNL     1     -39.261 -54.627  15.901  1.00  0.00     0.232 C 
HETATM   32  O   UNL     1     -38.666 -55.931  15.858  1.00  0.00    -0.366 OA
HETATM   33  C   UNL     1     -37.912 -56.072  17.072  1.00  0.00     0.170 C 
HETATM   34  C   UNL     1     -38.478 -55.096  18.088  1.00  0.00     0.031 C 
HETATM   35  C   UNL     1     -39.619 -54.434  17.367  1.00  0.00     0.056 C 
ENDBRANCH  24  31
ENDBRANCH  21  22
ENDBRANCH   2  21
TORSDOF 6
ENDMDL
MODEL 3
REMARK VINA RESULT:      -7.4      2.786      4.612
REMARK  6 active torsions:
REMARK  status: ('A' for Active; 'I' for Inactive)
REMARK    1  A    between atoms: N_1  and  C_11 
REMARK    2  A    between atoms: N_2  and  C_10 
REMARK    3  A    between atoms: C_7  and  N_12 
REMARK    4  A    between atoms: C_8  and  C_15 
REMARK    5  A    between atoms: C_9  and  N_13 
REMARK    6  A    between atoms: C_11  and  C_14 
REMARK       I    between atoms: N_12  and  C_14 
ROOT
HETATM    1  N   UNL     1     -42.712 -47.745  12.088  1.00  0.00    -0.324 N 
HETATM    2  C   UNL     1     -41.664 -48.636  11.895  1.00  0.00     0.240 C 
HETATM    3  O   UNL     1     -41.235 -48.962  10.787  1.00  0.00    -0.271 OA
HETATM    4  H   UNL     1     -43.163 -47.698  12.999  1.00  0.00     0.169 HD
ENDROOT
BRANCH   1   5
HETATM    5  C   UNL     1     -43.416 -47.150  11.012  1.00  0.00     0.062 A 
HETATM    6  C   UNL     1     -42.951 -45.952  10.394  1.00  0.00     0.057 A 
HETATM    7  C   UNL     1     -43.683 -45.512   9.275  1.00  0.00     0.032 A 
HETATM    8  C   UNL     1     -44.815 -46.211   8.801  1.00  0.00     0.018 A 
HETATM    9  C   UNL     1     -45.243 -47.391   9.421  1.00  0.00     0.050 A 
HETATM   10  C   UNL     1     -44.539 -47.835  10.534  1.00  0.00     0.048 A 
BRANCH   6  11
HETATM   11  N   UNL     1     -41.872 -45.241  10.903  1.00  0.00    -0.375 N 
HETATM   12  C   UNL     1     -40.458 -45.397  10.500  1.00  0.00     0.149 C 
HETATM   13  C   UNL     1     -39.581 -45.123  11.752  1.00  0.00     0.187 C 
HETATM   14  O   UNL     1     -39.865 -43.849  12.370  1.00  0.00    -0.388 OA
HETATM   15  C   UNL     1     -41.266 -43.721  12.675  1.00  0.00     0.187 C 
HETATM   16  C   UNL     1     -42.101 -43.869  11.397  1.00  0.00     0.149 C 
ENDBRANCH   6  11
BRANCH   9  17
HETATM   17  C   UNL     1     -46.420 -48.198   8.926  1.00  0.00     0.417 C 
HETATM   18  F   UNL     1     -47.592 -47.498   8.913  1.00  0.00    -0.166 F 
HETATM   19  F   UNL     1     -46.252 -48.662   7.658  1.00  0.00    -0.166 F 
HETATM   20  F   UNL     1     -46.663 -49.294   9.699  1.00  0.00    -0.166 F 
ENDBRANCH   9  17
ENDBRANCH   1   5
BRANCH   2  21
HETATM   21  C   UNL     1     -41.177 -49.368  13.147  1.00  0.00     0.240 C 
BRANCH  21  22
HETATM   22  N   UNL     1     -39.742 -49.549  13.330  1.00  0.00    -0.255 N 
HETATM   23  C   UNL     1     -39.117 -48.661  14.190  1.00  0.00     0.334 A 
HETATM   24  N   UNL     1     -37.891 -49.043  14.701  1.00  0.00    -0.279 N 
HETATM   25  O   UNL     1     -39.682 -47.622  14.542  1.00  0.00    -0.246 OA
HETATM   26  C   UNL     1     -37.269 -50.212  14.315  1.00  0.00     0.146 A 
HETATM   27  C   UNL     1     -37.828 -51.031  13.425  1.00  0.00     0.200 A 
HETATM   28  C   UNL     1     -39.159 -50.723  12.864  1.00  0.00     0.292 A 
HETATM   29  F   UNL     1     -37.260 -52.203  13.073  1.00  0.00    -0.199 F 
HETATM   30  O   UNL     1     -39.709 -51.512  12.103  1.00  0.00    -0.264 OA
BRANCH  24  31
HETATM   31  C   UNL     1     -37.360 -48.170  15.739  1.00  0.00     0.232 C 
HETATM   32  O   UNL     1     -35.933 -48.044  15.689  1.00  0.00    -0.366 OA
HETATM   33  C   UNL     1     -35.517 -47.624  16.998  1.00  0.00     0.170 C 
HETATM   34  C   UNL     1     -36.605 -48.015  17.981  1.00  0.00     0.031 C 
HETATM   35  C   UNL     1     -37.633 -48.714  17.135  1.00  0.00     0.056 C 
ENDBRANCH  24  31
ENDBRANCH  21  22
ENDBRANCH   2  21
TORSDOF 6
ENDMDL
MODEL 4
REMARK VINA RESULT:      -7.1      3.012      4.544
REMARK  6 active torsions:
REMARK  status: ('A' for Active; 'I' for Inactive)
REMARK    1  A    between atoms: N_1  and  C_11 
REMARK    2  A    between atoms: N_2  and  C_10 
REMARK    3  A    between atoms: C_7  and  N_12 
REMARK    4  A    between atoms: C_8  and  C_15 
REMARK    5  A    between atoms: C_9  and  N_13 
REMARK    6  A    between atoms: C_11  and  C_14 
REMARK       I    between atoms: N_12  and  C_14 
ROOT
HETATM    1  N   UNL     1     -42.041 -50.234  11.711  1.00  0.00    -0.324 N 
HETATM    2  C   UNL     1     -42.826 -50.590  12.801  1.00  0.00     0.240 C 
HETATM    3  O   UNL     1     -43.318 -49.780  13.588  1.00  0.00    -0.271 OA
HETATM    4  H   UNL     1     -41.484 -50.947  11.246  1.00  0.00     0.169 HD
ENDROOT
BRANCH   1   5
HETATM    5  C   UNL     1     -41.699 -48.889  11.424  1.00  0.00     0.062 A 
HETATM    6  C   UNL     1     -40.434 -48.349  11.800  1.00  0.00     0.057 A 
HETATM    7  C   UNL     1     -40.175 -47.033  11.376  1.00  0.00     0.032 A 
HETATM    8  C   UNL     1     -41.117 -46.289  10.632  1.00  0.00     0.018 A 
HETATM    9  C   UNL     1     -42.348 -46.848  10.267  1.00  0.00     0.050 A 
HETATM   10  C   UNL     1     -42.626 -48.143  10.686  1.00  0.00     0.048 A 
BRANCH   6  11
HETATM   11  N   UNL     1     -39.539 -49.069  12.581  1.00  0.00    -0.375 N 
HETATM   12  C   UNL     1     -38.199 -49.538  12.164  1.00  0.00     0.149 C 
HETATM   13  C   UNL     1     -37.927 -50.884  12.890  1.00  0.00     0.187 C 
HETATM   14  O   UNL     1     -38.083 -50.792  14.323  1.00  0.00    -0.388 OA
HETATM   15  C   UNL     1     -39.376 -50.263  14.671  1.00  0.00     0.187 C 
HETATM   16  C   UNL     1     -39.566 -48.875  14.044  1.00  0.00     0.149 C 
ENDBRANCH   6  11
BRANCH   9  17
HETATM   17  C   UNL     1     -43.370 -46.110   9.435  1.00  0.00     0.417 C 
HETATM   18  F   UNL     1     -43.080 -46.099   8.102  1.00  0.00    -0.166 F 
HETATM   19  F   UNL     1     -44.621 -46.636   9.538  1.00  0.00    -0.166 F 
HETATM   20  F   UNL     1     -43.483 -44.798   9.790  1.00  0.00    -0.166 F 
ENDBRANCH   9  17
ENDBRANCH   1   5
BRANCH   2  21
HETATM   21  C   UNL     1     -42.897 -52.088  13.104  1.00  0.00     0.240 C 
BRANCH  21  22
HETATM   22  N   UNL     1     -41.848 -52.679  13.928  1.00  0.00    -0.255 N 
HETATM   23  C   UNL     1     -42.158 -52.879  15.263  1.00  0.00     0.334 A 
HETATM   24  N   UNL     1     -41.380 -53.788  15.956  1.00  0.00    -0.279 N 
HETATM   25  O   UNL     1     -43.140 -52.331  15.771  1.00  0.00    -0.246 OA
HETATM   26  C   UNL     1     -40.292 -54.409  15.380  1.00  0.00     0.146 A 
HETATM   27  C   UNL     1     -39.940 -54.158  14.120  1.00  0.00     0.200 A 
HETATM   28  C   UNL     1     -40.743 -53.236  13.292  1.00  0.00     0.292 A 
HETATM   29  F   UNL     1     -38.910 -54.793  13.523  1.00  0.00    -0.199 F 
HETATM   30  O   UNL     1     -40.466 -53.061  12.111  1.00  0.00    -0.264 OA
BRANCH  24  31
HETATM   31  C   UNL     1     -41.855 -54.105  17.296  1.00  0.00     0.232 C 
HETATM   32  O   UNL     1     -40.801 -54.154  18.267  1.00  0.00    -0.366 OA
HETATM   33  C   UNL     1     -41.291 -54.949  19.357  1.00  0.00     0.170 C 
HETATM   34  C   UNL     1     -42.411 -55.826  18.828  1.00  0.00     0.031 C 
HETATM   35  C   UNL     1     -42.483 -55.490  17.365  1.00  0.00     0.056 C 
ENDBRANCH  24  31
ENDBRANCH  21  22
ENDBRANCH   2  21
TORSDOF 6
ENDMDL
MODEL 5
REMARK VINA RESULT:      -7.0      3.693      8.193
REMARK  6 active torsions:
REMARK  status: ('A' for Active; 'I' for Inactive)
REMARK    1  A    between atoms: N_1  and  C_11 
REMARK    2  A    between atoms: N_2  and  C_10 
REMARK    3  A    between atoms: C_7  and  N_12 
REMARK    4  A    between atoms: C_8  and  C_15 
REMARK    5  A    between atoms: C_9  and  N_13 
REMARK    6  A    between atoms: C_11  and  C_14 
REMARK       I    between atoms: N_12  and  C_14 
ROOT
HETATM    1  N   UNL     1     -39.891 -53.170  13.754  1.00  0.00    -0.324 N 
HETATM    2  C   UNL     1     -39.745 -51.805  13.972  1.00  0.00     0.240 C 
HETATM    3  O   UNL     1     -40.478 -51.144  14.710  1.00  0.00    -0.271 OA
HETATM    4  H   UNL     1     -39.409 -53.602  12.969  1.00  0.00     0.169 HD
ENDROOT
BRANCH   1   5
HETATM    5  C   UNL     1     -40.935 -53.928  14.339  1.00  0.00     0.062 A 
HETATM    6  C   UNL     1     -40.754 -54.603  15.583  1.00  0.00     0.057 A 
HETATM    7  C   UNL     1     -41.892 -55.242  16.108  1.00  0.00     0.032 A 
HETATM    8  C   UNL     1     -43.135 -55.225  15.437  1.00  0.00     0.018 A 
HETATM    9  C   UNL     1     -43.288 -54.545  14.222  1.00  0.00     0.050 A 
HETATM   10  C   UNL     1     -42.171 -53.917  13.683  1.00  0.00     0.048 A 
BRANCH   6  11
HETATM   11  N   UNL     1     -39.514 -54.662  16.204  1.00  0.00    -0.375 N 
HETATM   12  C   UNL     1     -38.322 -55.381  15.705  1.00  0.00     0.149 C 
HETATM   13  C   UNL     1     -37.531 -55.893  16.940  1.00  0.00     0.187 C 
HETATM   14  O   UNL     1     -37.216 -54.843  17.881  1.00  0.00    -0.388 OA
HETATM   15  C   UNL     1     -38.402 -54.130  18.278  1.00  0.00     0.187 C 
HETATM   16  C   UNL     1     -39.093 -53.526  17.048  1.00  0.00     0.149 C 
ENDBRANCH   6  11
BRANCH   9  17
HETATM   17  C   UNL     1     -44.605 -54.460  13.489  1.00  0.00     0.417 C 
HETATM   18  F   UNL     1     -45.372 -55.582  13.617  1.00  0.00    -0.166 F 
HETATM   19  F   UNL     1     -45.385 -53.429  13.912  1.00  0.00    -0.166 F 
HETATM   20  F   UNL     1     -44.444 -54.285  12.147  1.00  0.00    -0.166 F 
ENDBRANCH   9  17
ENDBRANCH   1   5
BRANCH   2  21
HETATM   21  C   UNL     1     -38.723 -51.098  13.080  1.00  0.00     0.240 C 
BRANCH  21  22
HETATM   22  N   UNL     1     -38.938 -49.691  12.760  1.00  0.00    -0.255 N 
HETATM   23  C   UNL     1     -39.870 -49.424  11.771  1.00  0.00     0.334 A 
HETATM   24  N   UNL     1     -40.394 -48.146  11.733  1.00  0.00    -0.279 N 
HETATM   25  O   UNL     1     -40.269 -50.321  11.022  1.00  0.00    -0.246 OA
HETATM   26  C   UNL     1     -39.956 -47.150  12.580  1.00  0.00     0.146 A 
HETATM   27  C   UNL     1     -39.001 -47.380  13.480  1.00  0.00     0.200 A 
HETATM   28  C   UNL     1     -38.418 -48.729  13.620  1.00  0.00     0.292 A 
HETATM   29  F   UNL     1     -38.594 -46.434  14.352  1.00  0.00    -0.199 F 
HETATM   30  O   UNL     1     -37.593 -48.962  14.497  1.00  0.00    -0.264 OA
BRANCH  24  31
HETATM   31  C   UNL     1     -41.500 -47.963  10.803  1.00  0.00     0.232 C 
HETATM   32  O   UNL     1     -41.579 -46.630  10.282  1.00  0.00    -0.366 OA
HETATM   33  C   UNL     1     -42.931 -46.449   9.832  1.00  0.00     0.170 C 
HETATM   34  C   UNL     1     -43.803 -47.455  10.563  1.00  0.00     0.031 C 
HETATM   35  C   UNL     1     -42.850 -48.177  11.474  1.00  0.00     0.056 C 
ENDBRANCH  24  31
ENDBRANCH  21  22
ENDBRANCH   2  21
TORSDOF 6
ENDMDL
MODEL 6
REMARK VINA RESULT:      -6.9      3.069      7.438
REMARK  6 active torsions:
REMARK  status: ('A' for Active; 'I' for Inactive)
REMARK    1  A    between atoms: N_1  and  C_11 
REMARK    2  A    between atoms: N_2  and  C_10 
REMARK    3  A    between atoms: C_7  and  N_12 
REMARK    4  A    between atoms: C_8  and  C_15 
REMARK    5  A    between atoms: C_9  and  N_13 
REMARK    6  A    between atoms: C_11  and  C_14 
REMARK       I    between atoms: N_12  and  C_14 
ROOT
HETATM    1  N   UNL     1     -42.413 -49.515  13.723  1.00  0.00    -0.324 N 
HETATM    2  C   UNL     1     -42.375 -48.462  12.817  1.00  0.00     0.240 C 
HETATM    3  O   UNL     1     -42.900 -48.495  11.703  1.00  0.00    -0.271 OA
HETATM    4  H   UNL     1     -41.775 -49.512  14.516  1.00  0.00     0.169 HD
ENDROOT
BRANCH   1   5
HETATM    5  C   UNL     1     -43.035 -50.753  13.428  1.00  0.00     0.062 A 
HETATM    6  C   UNL     1     -42.266 -51.922  13.150  1.00  0.00     0.057 A 
HETATM    7  C   UNL     1     -42.996 -53.111  12.967  1.00  0.00     0.032 A 
HETATM    8  C   UNL     1     -44.407 -53.140  13.044  1.00  0.00     0.018 A 
HETATM    9  C   UNL     1     -45.136 -51.980  13.329  1.00  0.00     0.050 A 
HETATM   10  C   UNL     1     -44.432 -50.794  13.502  1.00  0.00     0.048 A 
BRANCH   6  11
HETATM   11  N   UNL     1     -40.885 -51.870  13.020  1.00  0.00    -0.375 N 
HETATM   12  C   UNL     1     -39.914 -52.780  13.664  1.00  0.00     0.149 C 
HETATM   13  C   UNL     1     -38.629 -51.960  13.962  1.00  0.00     0.187 C 
HETATM   14  O   UNL     1     -38.103 -51.293  12.794  1.00  0.00    -0.388 OA
HETATM   15  C   UNL     1     -39.110 -50.478  12.165  1.00  0.00     0.187 C 
HETATM   16  C   UNL     1     -40.315 -51.340  11.765  1.00  0.00     0.149 C 
ENDBRANCH   6  11
BRANCH   9  17
HETATM   17  C   UNL     1     -46.640 -51.969  13.465  1.00  0.00     0.417 C 
HETATM   18  F   UNL     1     -47.150 -53.137  13.953  1.00  0.00    -0.166 F 
HETATM   19  F   UNL     1     -47.093 -50.992  14.297  1.00  0.00    -0.166 F 
HETATM   20  F   UNL     1     -47.270 -51.770  12.273  1.00  0.00    -0.166 F 
ENDBRANCH   9  17
ENDBRANCH   1   5
BRANCH   2  21
HETATM   21  C   UNL     1     -41.462 -47.295  13.196  1.00  0.00     0.240 C 
BRANCH  21  22
HETATM   22  N   UNL     1     -41.367 -46.163  12.281  1.00  0.00    -0.255 N 
HETATM   23  C   UNL     1     -42.138 -45.056  12.595  1.00  0.00     0.334 A 
HETATM   24  N   UNL     1     -41.773 -43.855  12.017  1.00  0.00    -0.279 N 
HETATM   25  O   UNL     1     -43.050 -45.138  13.423  1.00  0.00    -0.246 OA
HETATM   26  C   UNL     1     -40.744 -43.765  11.104  1.00  0.00     0.146 A 
HETATM   27  C   UNL     1     -40.051 -44.842  10.736  1.00  0.00     0.200 A 
HETATM   28  C   UNL     1     -40.344 -46.158  11.339  1.00  0.00     0.292 A 
HETATM   29  F   UNL     1     -39.009 -44.768   9.882  1.00  0.00    -0.199 F 
HETATM   30  O   UNL     1     -39.660 -47.136  11.058  1.00  0.00    -0.264 OA
BRANCH  24  31
HETATM   31  C   UNL     1     -42.489 -42.690  12.518  1.00  0.00     0.232 C 
HETATM   32  O   UNL     1     -43.459 -42.187  11.589  1.00  0.00    -0.366 OA
HETATM   33  C   UNL     1     -43.696 -40.818  11.952  1.00  0.00     0.170 C 
HETATM   34  C   UNL     1     -42.494 -40.330  12.740  1.00  0.00     0.031 C 
HETATM   35  C   UNL     1     -41.560 -41.508  12.756  1.00  0.00     0.056 C 
ENDBRANCH  24  31
ENDBRANCH  21  22
ENDBRANCH   2  21
TORSDOF 6
ENDMDL
MODEL 7
REMARK VINA RESULT:      -6.8      4.567      7.301
REMARK  6 active torsions:
REMARK  status: ('A' for Active; 'I' for Inactive)
REMARK    1  A    between atoms: N_1  and  C_11 
REMARK    2  A    between atoms: N_2  and  C_10 
REMARK    3  A    between atoms: C_7  and  N_12 
REMARK    4  A    between atoms: C_8  and  C_15 
REMARK    5  A    between atoms: C_9  and  N_13 
REMARK    6  A    between atoms: C_11  and  C_14 
REMARK       I    between atoms: N_12  and  C_14 
ROOT
HETATM    1  N   UNL     1     -42.147 -52.875  14.689  1.00  0.00    -0.324 N 
HETATM    2  C   UNL     1     -42.581 -53.988  13.979  1.00  0.00     0.240 C 
HETATM    3  O   UNL     1     -42.021 -54.421  12.970  1.00  0.00    -0.271 OA
HETATM    4  H   UNL     1     -42.773 -52.439  15.362  1.00  0.00     0.169 HD
ENDROOT
BRANCH   1   5
HETATM    5  C   UNL     1     -41.027 -52.105  14.289  1.00  0.00     0.062 A 
HETATM    6  C   UNL     1     -39.704 -52.455  14.690  1.00  0.00     0.057 A 
HETATM    7  C   UNL     1     -38.668 -51.670  14.151  1.00  0.00     0.032 A 
HETATM    8  C   UNL     1     -38.926 -50.594  13.274  1.00  0.00     0.018 A 
HETATM    9  C   UNL     1     -40.234 -50.278  12.887  1.00  0.00     0.050 A 
HETATM   10  C   UNL     1     -41.271 -51.036  13.419  1.00  0.00     0.048 A 
BRANCH   6  11
HETATM   11  N   UNL     1     -39.466 -53.478  15.598  1.00  0.00    -0.375 N 
HETATM   12  C   UNL     1     -39.118 -54.876  15.265  1.00  0.00     0.149 C 
HETATM   13  C   UNL     1     -39.738 -55.788  16.359  1.00  0.00     0.187 C 
HETATM   14  O   UNL     1     -39.352 -55.404  17.697  1.00  0.00    -0.388 OA
HETATM   15  C   UNL     1     -39.647 -54.016  17.943  1.00  0.00     0.187 C 
HETATM   16  C   UNL     1     -38.917 -53.131  16.924  1.00  0.00     0.149 C 
ENDBRANCH   6  11
BRANCH   9  17
HETATM   17  C   UNL     1     -40.558 -49.166  11.919  1.00  0.00     0.417 C 
HETATM   18  F   UNL     1     -39.660 -48.139  11.949  1.00  0.00    -0.166 F 
HETATM   19  F   UNL     1     -40.600 -49.583  10.624  1.00  0.00    -0.166 F 
HETATM   20  F   UNL     1     -41.769 -48.592  12.169  1.00  0.00    -0.166 F 
ENDBRANCH   9  17
ENDBRANCH   1   5
BRANCH   2  21
HETATM   21  C   UNL     1     -43.936 -54.556  14.404  1.00  0.00     0.240 C 
BRANCH  21  22
HETATM   22  N   UNL     1     -45.096 -53.672  14.381  1.00  0.00    -0.255 N 
HETATM   23  C   UNL     1     -45.605 -53.298  15.614  1.00  0.00     0.334 A 
HETATM   24  N   UNL     1     -46.405 -52.172  15.645  1.00  0.00    -0.279 N 
HETATM   25  O   UNL     1     -45.278 -53.902  16.640  1.00  0.00    -0.246 OA
HETATM   26  C   UNL     1     -46.756 -51.491  14.498  1.00  0.00     0.146 A 
HETATM   27  C   UNL     1     -46.336 -51.895  13.300  1.00  0.00     0.200 A 
HETATM   28  C   UNL     1     -45.440 -53.062  13.179  1.00  0.00     0.292 A 
HETATM   29  F   UNL     1     -46.627 -51.215  12.172  1.00  0.00    -0.199 F 
HETATM   30  O   UNL     1     -44.991 -53.390  12.086  1.00  0.00    -0.264 OA
BRANCH  24  31
HETATM   31  C   UNL     1     -46.762 -51.709  16.980  1.00  0.00     0.232 C 
HETATM   32  O   UNL     1     -48.166 -51.459  17.128  1.00  0.00    -0.366 OA
HETATM   33  C   UNL     1     -48.302 -50.559  18.239  1.00  0.00     0.170 C 
HETATM   34  C   UNL     1     -46.977 -49.840  18.421  1.00  0.00     0.031 C 
HETATM   35  C   UNL     1     -46.112 -50.374  17.313  1.00  0.00     0.056 C 
ENDBRANCH  24  31
ENDBRANCH  21  22
ENDBRANCH   2  21
TORSDOF 6
ENDMDL
MODEL 8
REMARK VINA RESULT:      -6.8      3.440      6.641
REMARK  6 active torsions:
REMARK  status: ('A' for Active; 'I' for Inactive)
REMARK    1  A    between atoms: N_1  and  C_11 
REMARK    2  A    between atoms: N_2  and  C_10 
REMARK    3  A    between atoms: C_7  and  N_12 
REMARK    4  A    between atoms: C_8  and  C_15 
REMARK    5  A    between atoms: C_9  and  N_13 
REMARK    6  A    between atoms: C_11  and  C_14 
REMARK       I    between atoms: N_12  and  C_14 
ROOT
HETATM    1  N   UNL     1     -42.584 -50.657  13.383  1.00  0.00    -0.324 N 
HETATM    2  C   UNL     1     -41.905 -51.779  12.921  1.00  0.00     0.240 C 
HETATM    3  O   UNL     1     -41.952 -52.883  13.464  1.00  0.00    -0.271 OA
HETATM    4  H   UNL     1     -42.323 -49.738  13.031  1.00  0.00     0.169 HD
ENDROOT
BRANCH   1   5
HETATM    5  C   UNL     1     -43.372 -50.674  14.560  1.00  0.00     0.062 A 
HETATM    6  C   UNL     1     -42.859 -50.199  15.803  1.00  0.00     0.057 A 
HETATM    7  C   UNL     1     -43.768 -50.178  16.877  1.00  0.00     0.032 A 
HETATM    8  C   UNL     1     -45.104 -50.612  16.733  1.00  0.00     0.018 A 
HETATM    9  C   UNL     1     -45.586 -51.063  15.498  1.00  0.00     0.050 A 
HETATM   10  C   UNL     1     -44.699 -51.101  14.428  1.00  0.00     0.048 A 
BRANCH   6  11
HETATM   11  N   UNL     1     -41.528 -49.831  15.948  1.00  0.00    -0.375 N 
HETATM   12  C   UNL     1     -40.373 -50.751  16.032  1.00  0.00     0.149 C 
HETATM   13  C   UNL     1     -39.319 -50.095  16.967  1.00  0.00     0.187 C 
HETATM   14  O   UNL     1     -38.959 -48.757  16.557  1.00  0.00    -0.388 OA
HETATM   15  C   UNL     1     -40.126 -47.925  16.420  1.00  0.00     0.187 C 
HETATM   16  C   UNL     1     -41.092 -48.533  15.395  1.00  0.00     0.149 C 
ENDBRANCH   6  11
BRANCH   9  17
HETATM   17  C   UNL     1     -47.016 -51.494  15.283  1.00  0.00     0.417 C 
HETATM   18  F   UNL     1     -47.872 -51.038  16.243  1.00  0.00    -0.166 F 
HETATM   19  F   UNL     1     -47.529 -51.067  14.097  1.00  0.00    -0.166 F 
HETATM   20  F   UNL     1     -47.159 -52.850  15.288  1.00  0.00    -0.166 F 
ENDBRANCH   9  17
ENDBRANCH   1   5
BRANCH   2  21
HETATM   21  C   UNL     1     -40.913 -51.529  11.783  1.00  0.00     0.240 C 
BRANCH  21  22
HETATM   22  N   UNL     1     -39.901 -50.494  11.961  1.00  0.00    -0.255 N 
HETATM   23  C   UNL     1     -40.271 -49.208  11.601  1.00  0.00     0.334 A 
HETATM   24  N   UNL     1     -39.523 -48.172  12.127  1.00  0.00    -0.279 N 
HETATM   25  O   UNL     1     -41.277 -49.011  10.913  1.00  0.00    -0.246 OA
HETATM   26  C   UNL     1     -38.408 -48.396  12.907  1.00  0.00     0.146 A 
HETATM   27  C   UNL     1     -38.000 -49.632  13.189  1.00  0.00     0.200 A 
HETATM   28  C   UNL     1     -38.767 -50.798  12.706  1.00  0.00     0.292 A 
HETATM   29  F   UNL     1     -36.942 -49.873  13.991  1.00  0.00    -0.199 F 
HETATM   30  O   UNL     1     -38.437 -51.935  13.027  1.00  0.00    -0.264 OA
BRANCH  24  31
HETATM   31  C   UNL     1     -40.058 -46.840  11.876  1.00  0.00     0.232 C 
HETATM   32  O   UNL     1     -39.629 -46.293  10.622  1.00  0.00    -0.366 OA
HETATM   33  C   UNL     1     -39.774 -44.868  10.731  1.00  0.00     0.170 C 
HETATM   34  C   UNL     1     -39.770 -44.511  12.207  1.00  0.00     0.031 C 
HETATM   35  C   UNL     1     -39.575 -45.828  12.904  1.00  0.00     0.056 C 
ENDBRANCH  24  31
ENDBRANCH  21  22
ENDBRANCH   2  21
TORSDOF 6
ENDMDL
MODEL 9
REMARK VINA RESULT:      -6.8      3.494      4.931
REMARK  6 active torsions:
REMARK  status: ('A' for Active; 'I' for Inactive)
REMARK    1  A    between atoms: N_1  and  C_11 
REMARK    2  A    between atoms: N_2  and  C_10 
REMARK    3  A    between atoms: C_7  and  N_12 
REMARK    4  A    between atoms: C_8  and  C_15 
REMARK    5  A    between atoms: C_9  and  N_13 
REMARK    6  A    between atoms: C_11  and  C_14 
REMARK       I    between atoms: N_12  and  C_14 
ROOT
HETATM    1  N   UNL     1     -40.538 -49.335  12.845  1.00  0.00    -0.324 N 
HETATM    2  C   UNL     1     -39.732 -50.334  12.312  1.00  0.00     0.240 C 
HETATM    3  O   UNL     1     -38.585 -50.146  11.902  1.00  0.00    -0.271 OA
HETATM    4  H   UNL     1     -41.537 -49.504  12.947  1.00  0.00     0.169 HD
ENDROOT
BRANCH   1   5
HETATM    5  C   UNL     1     -40.122 -47.984  12.930  1.00  0.00     0.062 A 
HETATM    6  C   UNL     1     -39.283 -47.531  13.992  1.00  0.00     0.057 A 
HETATM    7  C   UNL     1     -38.860 -46.192  13.915  1.00  0.00     0.032 A 
HETATM    8  C   UNL     1     -39.252 -45.345  12.855  1.00  0.00     0.018 A 
HETATM    9  C   UNL     1     -40.067 -45.817  11.820  1.00  0.00     0.050 A 
HETATM   10  C   UNL     1     -40.504 -47.135  11.885  1.00  0.00     0.048 A 
BRANCH   6  11
HETATM   11  N   UNL     1     -38.952 -48.357  15.059  1.00  0.00    -0.375 N 
HETATM   12  C   UNL     1     -37.656 -49.039  15.263  1.00  0.00     0.149 C 
HETATM   13  C   UNL     1     -37.944 -50.388  15.976  1.00  0.00     0.187 C 
HETATM   14  O   UNL     1     -38.707 -50.230  17.193  1.00  0.00    -0.388 OA
HETATM   15  C   UNL     1     -39.922 -49.497  16.950  1.00  0.00     0.187 C 
HETATM   16  C   UNL     1     -39.599 -48.116  16.363  1.00  0.00     0.149 C 
ENDBRANCH   6  11
BRANCH   9  17
HETATM   17  C   UNL     1     -40.477 -44.964  10.643  1.00  0.00     0.417 C 
HETATM   18  F   UNL     1     -39.446 -44.674   9.797  1.00  0.00    -0.166 F 
HETATM   19  F   UNL     1     -41.436 -45.545   9.872  1.00  0.00    -0.166 F 
HETATM   20  F   UNL     1     -40.981 -43.756  11.025  1.00  0.00    -0.166 F 
ENDBRANCH   9  17
ENDBRANCH   1   5
BRANCH   2  21
HETATM   21  C   UNL     1     -40.418 -51.680  12.070  1.00  0.00     0.240 C 
BRANCH  21  22
HETATM   22  N   UNL     1     -40.882 -52.438  13.226  1.00  0.00    -0.255 N 
HETATM   23  C   UNL     1     -42.244 -52.400  13.477  1.00  0.00     0.334 A 
HETATM   24  N   UNL     1     -42.762 -53.403  14.274  1.00  0.00    -0.279 N 
HETATM   25  O   UNL     1     -42.961 -51.554  12.934  1.00  0.00    -0.246 OA
HETATM   26  C   UNL     1     -41.959 -54.355  14.867  1.00  0.00     0.146 A 
HETATM   27  C   UNL     1     -40.638 -54.348  14.696  1.00  0.00     0.200 A 
HETATM   28  C   UNL     1     -40.005 -53.340  13.822  1.00  0.00     0.292 A 
HETATM   29  F   UNL     1     -39.841 -55.299  15.225  1.00  0.00    -0.199 F 
HETATM   30  O   UNL     1     -38.800 -53.376  13.602  1.00  0.00    -0.264 OA
BRANCH  24  31
HETATM   31  C   UNL     1     -44.216 -53.432  14.357  1.00  0.00     0.232 C 
HETATM   32  O   UNL     1     -44.700 -53.403  15.707  1.00  0.00    -0.366 OA
HETATM   33  C   UNL     1     -46.030 -53.943  15.672  1.00  0.00     0.170 C 
HETATM   34  C   UNL     1     -46.155 -54.794  14.421  1.00  0.00     0.031 C 
HETATM   35  C   UNL     1     -44.794 -54.719  13.786  1.00  0.00     0.056 C 
ENDBRANCH  24  31
ENDBRANCH  21  22
ENDBRANCH   2  21
TORSDOF 6
ENDMDL
