MODEL 1
REMARK VINA RESULT:      -4.3      0.000      0.000
REMARK  1 active torsions:
REMARK  status: ('A' for Active; 'I' for Inactive)
REMARK    1  A    between atoms: C_8  and  N_9 
ROOT
HETATM    1  N   UNL     3     -42.795 -47.716   9.942  1.00  0.00    -0.296 N 
HETATM    2  C   UNL     3     -43.310 -47.815  11.184  1.00  0.00     0.112 A 
HETATM    3  C   UNL     3     -42.454 -48.576  11.946  1.00  0.00     0.037 A 
HETATM    4  C   UNL     3     -41.425 -48.924  11.095  1.00  0.00     0.108 A 
HETATM    5  N   UNL     3     -41.655 -48.391   9.882  1.00  0.00    -0.310 N 
ATOM      6  HN  UNL     3     -41.059 -48.488   9.061  1.00  0.00     0.186 HD
ENDROOT
BRANCH   1   7
HETATM    7  C   UNL     3     -43.422 -47.008   8.820  1.00  0.00     0.163 C 
HETATM    8  C   UNL     3     -44.945 -47.076   8.863  1.00  0.00     0.298 C 
HETATM    9  N   UNL     3     -44.969 -48.219   7.946  1.00  0.00     0.087 N 
HETATM   10  C   UNL     3     -43.571 -47.926   7.619  1.00  0.00     0.298 C 
HETATM   11  H   UNL     3     -45.586 -48.014   7.124  1.00  0.00     0.316 HD
ENDBRANCH   1   7
TORSDOF 1
ENDMDL
MODEL 2
REMARK VINA RESULT:      -4.1      1.851      3.732
REMARK  1 active torsions:
REMARK  status: ('A' for Active; 'I' for Inactive)
REMARK    1  A    between atoms: C_8  and  N_9 
ROOT
HETATM    1  N   UNL     3     -44.831 -47.740   8.459  1.00  0.00    -0.296 N 
HETATM    2  C   UNL     3     -45.796 -47.664   9.398  1.00  0.00     0.112 A 
HETATM    3  C   UNL     3     -46.851 -48.450   8.996  1.00  0.00     0.037 A 
HETATM    4  C   UNL     3     -46.466 -48.980   7.781  1.00  0.00     0.108 A 
HETATM    5  N   UNL     3     -45.234 -48.533   7.475  1.00  0.00    -0.310 N 
ATOM      6  HN  UNL     3     -44.705 -48.763   6.635  1.00  0.00     0.186 HD
ENDROOT
BRANCH   1   7
HETATM    7  C   UNL     3     -43.551 -47.023   8.500  1.00  0.00     0.163 C 
HETATM    8  C   UNL     3     -42.796 -47.250   9.805  1.00  0.00     0.298 C 
HETATM    9  N   UNL     3     -43.324 -46.013  10.385  1.00  0.00     0.087 N 
HETATM   10  C   UNL     3     -43.740 -45.615   9.037  1.00  0.00     0.298 C 
HETATM   11  H   UNL     3     -42.541 -45.402  10.720  1.00  0.00     0.316 HD
ENDBRANCH   1   7
TORSDOF 1
ENDMDL
MODEL 3
REMARK VINA RESULT:      -3.9      1.151      3.634
REMARK  1 active torsions:
REMARK  status: ('A' for Active; 'I' for Inactive)
REMARK    1  A    between atoms: C_8  and  N_9 
ROOT
HETATM    1  N   UNL     3     -43.011 -47.804  10.027  1.00  0.00    -0.296 N 
HETATM    2  C   UNL     3     -44.309 -47.437  10.041  1.00  0.00     0.112 A 
HETATM    3  C   UNL     3     -44.752 -47.373   8.740  1.00  0.00     0.037 A 
HETATM    4  C   UNL     3     -43.658 -47.708   7.968  1.00  0.00     0.108 A 
HETATM    5  N   UNL     3     -42.611 -47.965   8.774  1.00  0.00    -0.310 N 
ATOM      6  HN  UNL     3     -41.676 -48.236   8.473  1.00  0.00     0.186 HD
ENDROOT
BRANCH   1   7
HETATM    7  C   UNL     3     -42.163 -47.959  11.215  1.00  0.00     0.163 C 
HETATM    8  C   UNL     3     -41.102 -49.040  11.038  1.00  0.00     0.298 C 
HETATM    9  N   UNL     3     -41.940 -50.042  11.703  1.00  0.00     0.087 N 
HETATM   10  C   UNL     3     -42.780 -48.945  12.192  1.00  0.00     0.298 C 
HETATM   11  H   UNL     3     -41.419 -50.484  12.497  1.00  0.00     0.316 HD
ENDBRANCH   1   7
TORSDOF 1
ENDMDL
MODEL 4
REMARK VINA RESULT:      -3.8      2.224      4.046
REMARK  1 active torsions:
REMARK  status: ('A' for Active; 'I' for Inactive)
REMARK    1  A    between atoms: C_8  and  N_9 
ROOT
HETATM    1  N   UNL     3     -42.754 -46.338  10.181  1.00  0.00    -0.296 N 
HETATM    2  C   UNL     3     -42.941 -47.535   9.590  1.00  0.00     0.112 A 
HETATM    3  C   UNL     3     -44.006 -47.428   8.726  1.00  0.00     0.037 A 
HETATM    4  C   UNL     3     -44.438 -46.122   8.845  1.00  0.00     0.108 A 
HETATM    5  N   UNL     3     -43.662 -45.480   9.737  1.00  0.00    -0.310 N 
ATOM      6  HN  UNL     3     -43.755 -44.505  10.020  1.00  0.00     0.186 HD
ENDROOT
BRANCH   1   7
HETATM    7  C   UNL     3     -41.732 -46.043  11.192  1.00  0.00     0.163 C 
HETATM    8  C   UNL     3     -40.713 -45.015  10.711  1.00  0.00     0.298 C 
HETATM    9  N   UNL     3     -39.775 -46.063  10.300  1.00  0.00     0.087 N 
HETATM   10  C   UNL     3     -40.569 -47.014  11.082  1.00  0.00     0.298 C 
HETATM   11  H   UNL     3     -38.840 -45.913  10.748  1.00  0.00     0.316 HD
ENDBRANCH   1   7
TORSDOF 1
ENDMDL
MODEL 5
REMARK VINA RESULT:      -3.8      2.839      3.055
REMARK  1 active torsions:
REMARK  status: ('A' for Active; 'I' for Inactive)
REMARK    1  A    between atoms: C_8  and  N_9 
ROOT
HETATM    1  N   UNL     3     -41.822 -45.706  10.410  1.00  0.00    -0.296 N 
HETATM    2  C   UNL     3     -41.728 -44.495  10.997  1.00  0.00     0.112 A 
HETATM    3  C   UNL     3     -40.397 -44.155  11.070  1.00  0.00     0.037 A 
HETATM    4  C   UNL     3     -39.720 -45.220  10.511  1.00  0.00     0.108 A 
HETATM    5  N   UNL     3     -40.608 -46.151  10.118  1.00  0.00    -0.310 N 
ATOM      6  HN  UNL     3     -40.386 -47.041   9.674  1.00  0.00     0.186 HD
ENDROOT
BRANCH   1   7
HETATM    7  C   UNL     3     -43.073 -46.436  10.172  1.00  0.00     0.163 C 
HETATM    8  C   UNL     3     -42.865 -47.695   9.337  1.00  0.00     0.298 C 
HETATM    9  N   UNL     3     -43.226 -46.995   8.101  1.00  0.00     0.087 N 
HETATM   10  C   UNL     3     -43.772 -45.915   8.927  1.00  0.00     0.298 C 
HETATM   11  H   UNL     3     -43.998 -47.501   7.606  1.00  0.00     0.316 HD
ENDBRANCH   1   7
TORSDOF 1
ENDMDL
MODEL 6
REMARK VINA RESULT:      -3.7      5.514      6.856
REMARK  1 active torsions:
REMARK  status: ('A' for Active; 'I' for Inactive)
REMARK    1  A    between atoms: C_8  and  N_9 
ROOT
HETATM    1  N   UNL     3     -43.299 -53.147  13.160  1.00  0.00    -0.296 N 
HETATM    2  C   UNL     3     -43.874 -54.192  13.789  1.00  0.00     0.112 A 
HETATM    3  C   UNL     3     -45.214 -54.199  13.476  1.00  0.00     0.037 A 
HETATM    4  C   UNL     3     -45.398 -53.110  12.648  1.00  0.00     0.108 A 
HETATM    5  N   UNL     3     -44.219 -52.486  12.471  1.00  0.00    -0.310 N 
ATOM      6  HN  UNL     3     -44.062 -51.651  11.907  1.00  0.00     0.186 HD
ENDROOT
BRANCH   1   7
HETATM    7  C   UNL     3     -41.883 -52.775  13.258  1.00  0.00     0.163 C 
HETATM    8  C   UNL     3     -41.373 -52.077  12.001  1.00  0.00     0.298 C 
HETATM    9  N   UNL     3     -40.841 -53.331  11.461  1.00  0.00     0.087 N 
HETATM   10  C   UNL     3     -40.993 -53.916  12.796  1.00  0.00     0.298 C 
HETATM   11  H   UNL     3     -39.826 -53.224  11.223  1.00  0.00     0.316 HD
ENDBRANCH   1   7
TORSDOF 1
ENDMDL
MODEL 7
REMARK VINA RESULT:      -3.7     22.058     23.957
REMARK  1 active torsions:
REMARK  status: ('A' for Active; 'I' for Inactive)
REMARK    1  A    between atoms: C_8  and  N_9 
ROOT
HETATM    1  N   UNL     3     -26.723 -63.586  15.245  1.00  0.00    -0.296 N 
HETATM    2  C   UNL     3     -27.114 -62.324  15.517  1.00  0.00     0.112 A 
HETATM    3  C   UNL     3     -28.485 -62.312  15.623  1.00  0.00     0.037 A 
HETATM    4  C   UNL     3     -28.878 -63.616  15.394  1.00  0.00     0.108 A 
HETATM    5  N   UNL     3     -27.788 -64.371  15.165  1.00  0.00    -0.310 N 
ATOM      6  HN  UNL     3     -27.783 -65.371  14.966  1.00  0.00     0.186 HD
ENDROOT
BRANCH   1   7
HETATM    7  C   UNL     3     -25.335 -64.014  15.030  1.00  0.00     0.163 C 
HETATM    8  C   UNL     3     -25.221 -65.127  13.994  1.00  0.00     0.298 C 
HETATM    9  N   UNL     3     -25.210 -66.161  15.033  1.00  0.00     0.087 N 
HETATM   10  C   UNL     3     -24.949 -65.104  16.014  1.00  0.00     0.298 C 
HETATM   11  H   UNL     3     -24.368 -66.776  14.927  1.00  0.00     0.316 HD
ENDBRANCH   1   7
TORSDOF 1
ENDMDL
MODEL 8
REMARK VINA RESULT:      -3.5     21.469     22.625
REMARK  1 active torsions:
REMARK  status: ('A' for Active; 'I' for Inactive)
REMARK    1  A    between atoms: C_8  and  N_9 
ROOT
HETATM    1  N   UNL     3     -27.479 -63.026  15.370  1.00  0.00    -0.296 N 
HETATM    2  C   UNL     3     -26.298 -62.401  15.549  1.00  0.00     0.112 A 
HETATM    3  C   UNL     3     -25.291 -63.303  15.296  1.00  0.00     0.037 A 
HETATM    4  C   UNL     3     -25.933 -64.481  14.972  1.00  0.00     0.108 A 
HETATM    5  N   UNL     3     -27.263 -64.288  15.025  1.00  0.00    -0.310 N 
ATOM      6  HN  UNL     3     -27.978 -64.988  14.834  1.00  0.00     0.186 HD
ENDROOT
BRANCH   1   7
HETATM    7  C   UNL     3     -28.799 -62.415  15.569  1.00  0.00     0.163 C 
HETATM    8  C   UNL     3     -29.094 -62.125  17.037  1.00  0.00     0.298 C 
HETATM    9  N   UNL     3     -29.830 -63.382  17.189  1.00  0.00     0.087 N 
HETATM   10  C   UNL     3     -29.868 -63.483  15.728  1.00  0.00     0.298 C 
HETATM   11  H   UNL     3     -30.790 -63.199  17.567  1.00  0.00     0.316 HD
ENDBRANCH   1   7
TORSDOF 1
ENDMDL
MODEL 9
REMARK VINA RESULT:      -3.5      2.264      2.677
REMARK  1 active torsions:
REMARK  status: ('A' for Active; 'I' for Inactive)
REMARK    1  A    between atoms: C_8  and  N_9 
ROOT
HETATM    1  N   UNL     3     -42.905 -45.643   9.866  1.00  0.00    -0.296 N 
HETATM    2  C   UNL     3     -41.788 -46.179  10.400  1.00  0.00     0.112 A 
HETATM    3  C   UNL     3     -41.412 -45.408  11.475  1.00  0.00     0.037 A 
HETATM    4  C   UNL     3     -42.348 -44.395  11.539  1.00  0.00     0.108 A 
HETATM    5  N   UNL     3     -43.245 -44.559  10.550  1.00  0.00    -0.310 N 
ATOM      6  HN  UNL     3     -44.045 -43.957  10.360  1.00  0.00     0.186 HD
ENDROOT
BRANCH   1   7
HETATM    7  C   UNL     3     -43.608 -46.156   8.684  1.00  0.00     0.163 C 
HETATM    8  C   UNL     3     -45.080 -46.443   8.959  1.00  0.00     0.298 C 
HETATM    9  N   UNL     3     -44.808 -47.860   9.214  1.00  0.00     0.087 N 
HETATM   10  C   UNL     3     -43.491 -47.668   8.602  1.00  0.00     0.298 C 
HETATM   11  H   UNL     3     -45.409 -48.463   8.603  1.00  0.00     0.316 HD
ENDBRANCH   1   7
TORSDOF 1
ENDMDL
