MODEL 1
REMARK VINA RESULT:      -6.3      0.000      0.000
REMARK  4 active torsions:
REMARK  status: ('A' for Active; 'I' for Inactive)
REMARK    1  A    between atoms: N_6  and  C_7 
REMARK    2  A    between atoms: C_7  and  C_8 
REMARK    3  A    between atoms: C_8  and  N_9 
REMARK       I    between atoms: N_9  and  C_10 
REMARK       I    between atoms: C_10  and  N_12 
REMARK    4  A    between atoms: N_12  and  C_13 
ROOT
HETATM    1  N   UNL     1     -40.379 -51.098  11.772  1.00  0.00    -0.341 N 
HETATM    2  C   UNL     1     -41.224 -50.032  11.693  1.00  0.00     0.321 C 
HETATM    3  O   UNL     1     -42.075 -49.734  12.508  1.00  0.00    -0.247 OA
HETATM    4  N   UNL     1     -41.013 -49.287  10.498  1.00  0.00    -0.293 N 
HETATM    5  H   UNL     1     -39.626 -51.231  11.120  1.00  0.00     0.164 HD
HETATM    6  H   UNL     1     -40.442 -49.671   9.764  1.00  0.00     0.172 HD
ENDROOT
BRANCH   1   7
HETATM    7  C   UNL     1     -40.403 -51.923  12.975  1.00  0.00     0.154 C 
BRANCH   7   8
HETATM    8  C   UNL     1     -41.127 -53.273  12.774  1.00  0.00     0.292 C 
BRANCH   8   9
HETATM    9  N   UNL     1     -42.495 -53.310  13.328  1.00  0.00     0.090 N 
HETATM   10  C   UNL     1     -42.756 -54.534  14.102  1.00  0.00     0.272 C 
HETATM   11  C   UNL     1     -44.171 -54.570  14.679  1.00  0.00     0.031 C 
HETATM   12  C   UNL     1     -45.224 -54.371  13.597  1.00  0.00     0.007 C 
HETATM   13  C   UNL     1     -44.936 -53.117  12.765  1.00  0.00     0.010 C 
HETATM   14  C   UNL     1     -45.221 -51.836  13.555  1.00  0.00     0.011 C 
HETATM   15  C   UNL     1     -43.487 -53.154  12.245  1.00  0.00     0.276 C 
ENDBRANCH   8   9
ENDBRANCH   7   8
ENDBRANCH   1   7
BRANCH   4  16
HETATM   16  C   UNL     1     -41.636 -48.056  10.297  1.00  0.00     0.127 A 
HETATM   17  C   UNL     1     -42.803 -47.819   9.605  1.00  0.00     0.076 A 
HETATM   18  C   UNL     1     -43.014 -46.426   9.669  1.00  0.00     0.025 A 
HETATM   19  C   UNL     1     -44.108 -45.651   9.037  1.00  0.00     0.070 C 
HETATM   20  N   UNL     1     -42.067 -45.822  10.392  1.00  0.00    -0.302 N 
HETATM   21  N   UNL     1     -41.239 -46.821  10.756  1.00  0.00    -0.281 N 
ATOM     22  HN  UNL     1     -41.989 -44.830  10.619  1.00  0.00     0.186 HD
HETATM   23  C   UNL     1     -40.031 -46.485  11.467  1.00  0.00     0.179 C 
ENDBRANCH   4  16
TORSDOF 4
ENDMDL
MODEL 2
REMARK VINA RESULT:      -6.2      1.239      2.249
REMARK  4 active torsions:
REMARK  status: ('A' for Active; 'I' for Inactive)
REMARK    1  A    between atoms: N_6  and  C_7 
REMARK    2  A    between atoms: C_7  and  C_8 
REMARK    3  A    between atoms: C_8  and  N_9 
REMARK       I    between atoms: N_9  and  C_10 
REMARK       I    between atoms: C_10  and  N_12 
REMARK    4  A    between atoms: N_12  and  C_13 
ROOT
HETATM    1  N   UNL     1     -41.127 -51.122  11.536  1.00  0.00    -0.341 N 
HETATM    2  C   UNL     1     -41.485 -49.818  11.699  1.00  0.00     0.321 C 
HETATM    3  O   UNL     1     -42.019 -49.341  12.682  1.00  0.00    -0.247 OA
HETATM    4  N   UNL     1     -41.178 -49.045  10.543  1.00  0.00    -0.293 N 
HETATM    5  H   UNL     1     -40.594 -51.434  10.744  1.00  0.00     0.164 HD
HETATM    6  H   UNL     1     -40.921 -49.506   9.688  1.00  0.00     0.172 HD
ENDROOT
BRANCH   1   7
HETATM    7  C   UNL     1     -41.296 -52.040  12.658  1.00  0.00     0.154 C 
BRANCH   7   8
HETATM    8  C   UNL     1     -42.542 -52.944  12.525  1.00  0.00     0.292 C 
BRANCH   8   9
HETATM    9  N   UNL     1     -43.804 -52.291  12.923  1.00  0.00     0.090 N 
HETATM   10  C   UNL     1     -43.745 -51.737  14.285  1.00  0.00     0.272 C 
HETATM   11  C   UNL     1     -45.051 -51.056  14.696  1.00  0.00     0.031 C 
HETATM   12  C   UNL     1     -46.244 -51.988  14.534  1.00  0.00     0.007 C 
HETATM   13  C   UNL     1     -46.289 -52.597  13.129  1.00  0.00     0.010 C 
HETATM   14  C   UNL     1     -46.704 -51.563  12.078  1.00  0.00     0.011 C 
HETATM   15  C   UNL     1     -44.930 -53.237  12.792  1.00  0.00     0.276 C 
ENDBRANCH   8   9
ENDBRANCH   7   8
ENDBRANCH   1   7
BRANCH   4  16
HETATM   16  C   UNL     1     -41.287 -47.655  10.556  1.00  0.00     0.127 A 
HETATM   17  C   UNL     1     -40.318 -46.749  10.927  1.00  0.00     0.076 A 
HETATM   18  C   UNL     1     -40.905 -45.475  10.784  1.00  0.00     0.025 A 
HETATM   19  C   UNL     1     -40.297 -44.162  11.105  1.00  0.00     0.070 C 
HETATM   20  N   UNL     1     -42.151 -45.562  10.310  1.00  0.00    -0.302 N 
HETATM   21  N   UNL     1     -42.367 -46.886  10.187  1.00  0.00    -0.281 N 
ATOM     22  HN  UNL     1     -42.793 -44.800  10.091  1.00  0.00     0.186 HD
HETATM   23  C   UNL     1     -43.681 -47.333   9.796  1.00  0.00     0.179 C 
ENDBRANCH   4  16
TORSDOF 4
ENDMDL
MODEL 3
REMARK VINA RESULT:      -6.1      1.958      2.872
REMARK  4 active torsions:
REMARK  status: ('A' for Active; 'I' for Inactive)
REMARK    1  A    between atoms: N_6  and  C_7 
REMARK    2  A    between atoms: C_7  and  C_8 
REMARK    3  A    between atoms: C_8  and  N_9 
REMARK       I    between atoms: N_9  and  C_10 
REMARK       I    between atoms: C_10  and  N_12 
REMARK    4  A    between atoms: N_12  and  C_13 
ROOT
HETATM    1  N   UNL     1     -41.672 -53.144  12.424  1.00  0.00    -0.341 N 
HETATM    2  C   UNL     1     -41.387 -51.823  12.597  1.00  0.00     0.321 C 
HETATM    3  O   UNL     1     -41.403 -51.222  13.654  1.00  0.00    -0.247 OA
HETATM    4  N   UNL     1     -41.082 -51.190  11.359  1.00  0.00    -0.293 N 
HETATM    5  H   UNL     1     -41.539 -53.608  11.542  1.00  0.00     0.164 HD
HETATM    6  H   UNL     1     -41.269 -51.667  10.494  1.00  0.00     0.172 HD
ENDROOT
BRANCH   1   7
HETATM    7  C   UNL     1     -41.928 -53.966  13.603  1.00  0.00     0.154 C 
BRANCH   7   8
HETATM    8  C   UNL     1     -43.419 -54.326  13.783  1.00  0.00     0.292 C 
BRANCH   8   9
HETATM    9  N   UNL     1     -44.316 -53.156  13.848  1.00  0.00     0.090 N 
HETATM   10  C   UNL     1     -44.154 -52.391  15.094  1.00  0.00     0.272 C 
HETATM   11  C   UNL     1     -45.080 -51.176  15.159  1.00  0.00     0.031 C 
HETATM   12  C   UNL     1     -46.535 -51.569  14.942  1.00  0.00     0.007 C 
HETATM   13  C   UNL     1     -46.705 -52.398  13.665  1.00  0.00     0.010 C 
HETATM   14  C   UNL     1     -46.544 -51.539  12.407  1.00  0.00     0.011 C 
HETATM   15  C   UNL     1     -45.720 -53.582  13.675  1.00  0.00     0.276 C 
ENDBRANCH   8   9
ENDBRANCH   7   8
ENDBRANCH   1   7
BRANCH   4  16
HETATM   16  C   UNL     1     -40.583 -49.889  11.319  1.00  0.00     0.127 A 
HETATM   17  C   UNL     1     -41.287 -48.737  11.043  1.00  0.00     0.076 A 
HETATM   18  C   UNL     1     -40.350 -47.686  11.109  1.00  0.00     0.025 A 
HETATM   19  C   UNL     1     -40.588 -46.248  10.840  1.00  0.00     0.070 C 
HETATM   20  N   UNL     1     -39.137 -48.133  11.451  1.00  0.00    -0.302 N 
HETATM   21  N   UNL     1     -39.296 -49.466  11.564  1.00  0.00    -0.281 N 
ATOM     22  HN  UNL     1     -38.286 -47.590  11.593  1.00  0.00     0.186 HD
HETATM   23  C   UNL     1     -38.131 -50.276  11.820  1.00  0.00     0.179 C 
ENDBRANCH   4  16
TORSDOF 4
ENDMDL
MODEL 4
REMARK VINA RESULT:      -5.9      1.479      7.659
REMARK  4 active torsions:
REMARK  status: ('A' for Active; 'I' for Inactive)
REMARK    1  A    between atoms: N_6  and  C_7 
REMARK    2  A    between atoms: C_7  and  C_8 
REMARK    3  A    between atoms: C_8  and  N_9 
REMARK       I    between atoms: N_9  and  C_10 
REMARK       I    between atoms: C_10  and  N_12 
REMARK    4  A    between atoms: N_12  and  C_13 
ROOT
HETATM    1  N   UNL     1     -40.862 -50.554  11.028  1.00  0.00    -0.341 N 
HETATM    2  C   UNL     1     -41.441 -51.205  12.075  1.00  0.00     0.321 C 
HETATM    3  O   UNL     1     -41.598 -50.757  13.195  1.00  0.00    -0.247 OA
HETATM    4  N   UNL     1     -41.838 -52.523  11.714  1.00  0.00    -0.293 N 
HETATM    5  H   UNL     1     -40.857 -50.937  10.099  1.00  0.00     0.164 HD
HETATM    6  H   UNL     1     -41.519 -52.921  10.848  1.00  0.00     0.172 HD
ENDROOT
BRANCH   1   7
HETATM    7  C   UNL     1     -40.470 -49.158  11.200  1.00  0.00     0.154 C 
BRANCH   7   8
HETATM    8  C   UNL     1     -41.549 -48.159  10.730  1.00  0.00     0.292 C 
BRANCH   8   9
HETATM    9  N   UNL     1     -41.365 -46.788  11.247  1.00  0.00     0.090 N 
HETATM   10  C   UNL     1     -42.292 -45.826  10.632  1.00  0.00     0.272 C 
HETATM   11  C   UNL     1     -42.105 -44.407  11.171  1.00  0.00     0.031 C 
HETATM   12  C   UNL     1     -40.662 -43.942  11.035  1.00  0.00     0.007 C 
HETATM   13  C   UNL     1     -39.689 -44.959  11.641  1.00  0.00     0.010 C 
HETATM   14  C   UNL     1     -39.752 -44.958  13.172  1.00  0.00     0.011 C 
HETATM   15  C   UNL     1     -39.965 -46.358  11.060  1.00  0.00     0.276 C 
ENDBRANCH   8   9
ENDBRANCH   7   8
ENDBRANCH   1   7
BRANCH   4  16
HETATM   16  C   UNL     1     -42.614 -53.302  12.571  1.00  0.00     0.127 A 
HETATM   17  C   UNL     1     -43.975 -53.509  12.503  1.00  0.00     0.076 A 
HETATM   18  C   UNL     1     -44.293 -54.351  13.588  1.00  0.00     0.025 A 
HETATM   19  C   UNL     1     -45.636 -54.831  13.992  1.00  0.00     0.070 C 
HETATM   20  N   UNL     1     -43.200 -54.694  14.276  1.00  0.00    -0.302 N 
HETATM   21  N   UNL     1     -42.198 -54.044  13.653  1.00  0.00    -0.281 N 
ATOM     22  HN  UNL     1     -43.138 -55.309  15.088  1.00  0.00     0.186 HD
HETATM   23  C   UNL     1     -40.876 -54.116  14.223  1.00  0.00     0.179 C 
ENDBRANCH   4  16
TORSDOF 4
ENDMDL
MODEL 5
REMARK VINA RESULT:      -5.8      2.012      3.449
REMARK  4 active torsions:
REMARK  status: ('A' for Active; 'I' for Inactive)
REMARK    1  A    between atoms: N_6  and  C_7 
REMARK    2  A    between atoms: C_7  and  C_8 
REMARK    3  A    between atoms: C_8  and  N_9 
REMARK       I    between atoms: N_9  and  C_10 
REMARK       I    between atoms: C_10  and  N_12 
REMARK    4  A    between atoms: N_12  and  C_13 
ROOT
HETATM    1  N   UNL     1     -40.777 -49.286  10.637  1.00  0.00    -0.341 N 
HETATM    2  C   UNL     1     -41.701 -48.303  10.824  1.00  0.00     0.321 C 
HETATM    3  O   UNL     1     -42.708 -48.390  11.499  1.00  0.00    -0.247 OA
HETATM    4  N   UNL     1     -41.362 -47.125  10.100  1.00  0.00    -0.293 N 
HETATM    5  H   UNL     1     -39.911 -49.119  10.154  1.00  0.00     0.164 HD
HETATM    6  H   UNL     1     -40.636 -47.156   9.406  1.00  0.00     0.172 HD
ENDROOT
BRANCH   1   7
HETATM    7  C   UNL     1     -40.925 -50.537  11.374  1.00  0.00     0.154 C 
BRANCH   7   8
HETATM    8  C   UNL     1     -40.171 -50.544  12.722  1.00  0.00     0.292 C 
BRANCH   8   9
HETATM    9  N   UNL     1     -40.246 -51.828  13.446  1.00  0.00     0.090 N 
HETATM   10  C   UNL     1     -38.983 -52.170  14.118  1.00  0.00     0.272 C 
HETATM   11  C   UNL     1     -39.062 -53.498  14.872  1.00  0.00     0.031 C 
HETATM   12  C   UNL     1     -39.523 -54.630  13.965  1.00  0.00     0.007 C 
HETATM   13  C   UNL     1     -40.819 -54.265  13.234  1.00  0.00     0.010 C 
HETATM   14  C   UNL     1     -42.024 -54.269  14.181  1.00  0.00     0.011 C 
HETATM   15  C   UNL     1     -40.657 -52.908  12.525  1.00  0.00     0.276 C 
ENDBRANCH   8   9
ENDBRANCH   7   8
ENDBRANCH   1   7
BRANCH   4  16
HETATM   16  C   UNL     1     -42.065 -45.935  10.290  1.00  0.00     0.127 A 
HETATM   17  C   UNL     1     -41.722 -44.891  11.121  1.00  0.00     0.076 A 
HETATM   18  C   UNL     1     -42.745 -43.932  10.978  1.00  0.00     0.025 A 
HETATM   19  C   UNL     1     -42.877 -42.642  11.697  1.00  0.00     0.070 C 
HETATM   20  N   UNL     1     -43.657 -44.319  10.081  1.00  0.00    -0.302 N 
HETATM   21  N   UNL     1     -43.234 -45.535   9.684  1.00  0.00    -0.281 N 
ATOM     22  HN  UNL     1     -44.484 -43.811   9.769  1.00  0.00     0.186 HD
HETATM   23  C   UNL     1     -44.069 -46.290   8.782  1.00  0.00     0.179 C 
ENDBRANCH   4  16
TORSDOF 4
ENDMDL
MODEL 6
REMARK VINA RESULT:      -5.6      1.887      2.110
REMARK  4 active torsions:
REMARK  status: ('A' for Active; 'I' for Inactive)
REMARK    1  A    between atoms: N_6  and  C_7 
REMARK    2  A    between atoms: C_7  and  C_8 
REMARK    3  A    between atoms: C_8  and  N_9 
REMARK       I    between atoms: N_9  and  C_10 
REMARK       I    between atoms: C_10  and  N_12 
REMARK    4  A    between atoms: N_12  and  C_13 
ROOT
HETATM    1  N   UNL     1     -40.491 -51.066  11.383  1.00  0.00    -0.341 N 
HETATM    2  C   UNL     1     -40.827 -49.762  11.592  1.00  0.00     0.321 C 
HETATM    3  O   UNL     1     -41.919 -49.353  11.934  1.00  0.00    -0.247 OA
HETATM    4  N   UNL     1     -39.729 -48.894  11.335  1.00  0.00    -0.293 N 
HETATM    5  H   UNL     1     -39.543 -51.351  11.204  1.00  0.00     0.164 HD
HETATM    6  H   UNL     1     -38.910 -49.247  10.871  1.00  0.00     0.172 HD
ENDROOT
BRANCH   1   7
HETATM    7  C   UNL     1     -41.477 -52.100  11.680  1.00  0.00     0.154 C 
BRANCH   7   8
HETATM    8  C   UNL     1     -41.458 -52.554  13.156  1.00  0.00     0.292 C 
BRANCH   8   9
HETATM    9  N   UNL     1     -42.758 -53.052  13.649  1.00  0.00     0.090 N 
HETATM   10  C   UNL     1     -42.673 -54.423  14.176  1.00  0.00     0.272 C 
HETATM   11  C   UNL     1     -44.019 -54.936  14.689  1.00  0.00     0.031 C 
HETATM   12  C   UNL     1     -45.104 -54.823  13.628  1.00  0.00     0.007 C 
HETATM   13  C   UNL     1     -45.172 -53.406  13.049  1.00  0.00     0.010 C 
HETATM   14  C   UNL     1     -45.773 -52.415  14.050  1.00  0.00     0.011 C 
HETATM   15  C   UNL     1     -43.774 -52.965  12.579  1.00  0.00     0.276 C 
ENDBRANCH   8   9
ENDBRANCH   7   8
ENDBRANCH   1   7
BRANCH   4  16
HETATM   16  C   UNL     1     -39.790 -47.539  11.660  1.00  0.00     0.127 A 
HETATM   17  C   UNL     1     -40.148 -46.500  10.828  1.00  0.00     0.076 A 
HETATM   18  C   UNL     1     -40.044 -45.329  11.606  1.00  0.00     0.025 A 
HETATM   19  C   UNL     1     -40.270 -43.932  11.166  1.00  0.00     0.070 C 
HETATM   20  N   UNL     1     -39.688 -45.608  12.864  1.00  0.00    -0.302 N 
HETATM   21  N   UNL     1     -39.531 -46.946  12.875  1.00  0.00    -0.281 N 
ATOM     22  HN  UNL     1     -39.564 -44.957  13.639  1.00  0.00     0.186 HD
HETATM   23  C   UNL     1     -39.034 -47.568  14.077  1.00  0.00     0.179 C 
ENDBRANCH   4  16
TORSDOF 4
ENDMDL
MODEL 7
REMARK VINA RESULT:      -5.5      1.519      7.783
REMARK  4 active torsions:
REMARK  status: ('A' for Active; 'I' for Inactive)
REMARK    1  A    between atoms: N_6  and  C_7 
REMARK    2  A    between atoms: C_7  and  C_8 
REMARK    3  A    between atoms: C_8  and  N_9 
REMARK       I    between atoms: N_9  and  C_10 
REMARK       I    between atoms: C_10  and  N_12 
REMARK    4  A    between atoms: N_12  and  C_13 
ROOT
HETATM    1  N   UNL     1     -40.834 -50.753  11.021  1.00  0.00    -0.341 N 
HETATM    2  C   UNL     1     -41.186 -51.377  12.180  1.00  0.00     0.321 C 
HETATM    3  O   UNL     1     -41.091 -50.910  13.299  1.00  0.00    -0.247 OA
HETATM    4  N   UNL     1     -41.672 -52.693  11.937  1.00  0.00    -0.293 N 
HETATM    5  H   UNL     1     -41.034 -51.150  10.120  1.00  0.00     0.164 HD
HETATM    6  H   UNL     1     -41.553 -53.110  11.030  1.00  0.00     0.172 HD
ENDROOT
BRANCH   1   7
HETATM    7  C   UNL     1     -40.391 -49.364  11.080  1.00  0.00     0.154 C 
BRANCH   7   8
HETATM    8  C   UNL     1     -41.489 -48.356  10.672  1.00  0.00     0.292 C 
BRANCH   8   9
HETATM    9  N   UNL     1     -41.330 -47.018  11.274  1.00  0.00     0.090 N 
HETATM   10  C   UNL     1     -42.454 -46.122  10.961  1.00  0.00     0.272 C 
HETATM   11  C   UNL     1     -42.292 -44.738  11.588  1.00  0.00     0.031 C 
HETATM   12  C   UNL     1     -40.962 -44.102  11.206  1.00  0.00     0.007 C 
HETATM   13  C   UNL     1     -39.790 -45.045  11.496  1.00  0.00     0.010 C 
HETATM   14  C   UNL     1     -39.523 -45.170  12.999  1.00  0.00     0.011 C 
HETATM   15  C   UNL     1     -40.049 -46.417  10.848  1.00  0.00     0.276 C 
ENDBRANCH   8   9
ENDBRANCH   7   8
ENDBRANCH   1   7
BRANCH   4  16
HETATM   16  C   UNL     1     -42.259 -53.443  12.955  1.00  0.00     0.127 A 
HETATM   17  C   UNL     1     -41.612 -54.190  13.915  1.00  0.00     0.076 A 
HETATM   18  C   UNL     1     -42.628 -54.770  14.703  1.00  0.00     0.025 A 
HETATM   19  C   UNL     1     -42.462 -55.707  15.840  1.00  0.00     0.070 C 
HETATM   20  N   UNL     1     -43.841 -54.381  14.299  1.00  0.00    -0.302 N 
HETATM   21  N   UNL     1     -43.598 -53.587  13.238  1.00  0.00    -0.281 N 
ATOM     22  HN  UNL     1     -44.745 -54.628  14.702  1.00  0.00     0.186 HD
HETATM   23  C   UNL     1     -44.722 -53.082  12.489  1.00  0.00     0.179 C 
ENDBRANCH   4  16
TORSDOF 4
ENDMDL
MODEL 8
REMARK VINA RESULT:      -5.4      1.581      2.658
REMARK  4 active torsions:
REMARK  status: ('A' for Active; 'I' for Inactive)
REMARK    1  A    between atoms: N_6  and  C_7 
REMARK    2  A    between atoms: C_7  and  C_8 
REMARK    3  A    between atoms: C_8  and  N_9 
REMARK       I    between atoms: N_9  and  C_10 
REMARK       I    between atoms: C_10  and  N_12 
REMARK    4  A    between atoms: N_12  and  C_13 
ROOT
HETATM    1  N   UNL     1     -40.904 -51.559  11.321  1.00  0.00    -0.341 N 
HETATM    2  C   UNL     1     -41.309 -50.278  11.548  1.00  0.00     0.321 C 
HETATM    3  O   UNL     1     -42.137 -49.925  12.365  1.00  0.00    -0.247 OA
HETATM    4  N   UNL     1     -40.652 -49.362  10.677  1.00  0.00    -0.293 N 
HETATM    5  H   UNL     1     -40.140 -51.776  10.706  1.00  0.00     0.164 HD
HETATM    6  H   UNL     1     -40.128 -49.708   9.892  1.00  0.00     0.172 HD
ENDROOT
BRANCH   1   7
HETATM    7  C   UNL     1     -41.417 -52.619  12.183  1.00  0.00     0.154 C 
BRANCH   7   8
HETATM    8  C   UNL     1     -40.537 -52.873  13.427  1.00  0.00     0.292 C 
BRANCH   8   9
HETATM    9  N   UNL     1     -41.253 -53.508  14.551  1.00  0.00     0.090 N 
HETATM   10  C   UNL     1     -40.347 -54.229  15.459  1.00  0.00     0.272 C 
HETATM   11  C   UNL     1     -41.088 -54.883  16.625  1.00  0.00     0.031 C 
HETATM   12  C   UNL     1     -42.212 -55.788  16.139  1.00  0.00     0.007 C 
HETATM   13  C   UNL     1     -43.137 -55.053  15.163  1.00  0.00     0.010 C 
HETATM   14  C   UNL     1     -44.013 -54.023  15.882  1.00  0.00     0.011 C 
HETATM   15  C   UNL     1     -42.306 -54.409  14.039  1.00  0.00     0.276 C 
ENDBRANCH   8   9
ENDBRANCH   7   8
ENDBRANCH   1   7
BRANCH   4  16
HETATM   16  C   UNL     1     -40.775 -47.985  10.856  1.00  0.00     0.127 A 
HETATM   17  C   UNL     1     -39.915 -47.157  11.544  1.00  0.00     0.076 A 
HETATM   18  C   UNL     1     -40.470 -45.864  11.455  1.00  0.00     0.025 A 
HETATM   19  C   UNL     1     -39.956 -44.618  12.073  1.00  0.00     0.070 C 
HETATM   20  N   UNL     1     -41.586 -45.861  10.720  1.00  0.00    -0.302 N 
HETATM   21  N   UNL     1     -41.758 -47.151  10.374  1.00  0.00    -0.281 N 
ATOM     22  HN  UNL     1     -42.173 -45.063  10.475  1.00  0.00     0.186 HD
HETATM   23  C   UNL     1     -42.955 -47.515   9.656  1.00  0.00     0.179 C 
ENDBRANCH   4  16
TORSDOF 4
ENDMDL
MODEL 9
REMARK VINA RESULT:      -5.4      1.560      7.631
REMARK  4 active torsions:
REMARK  status: ('A' for Active; 'I' for Inactive)
REMARK    1  A    between atoms: N_6  and  C_7 
REMARK    2  A    between atoms: C_7  and  C_8 
REMARK    3  A    between atoms: C_8  and  N_9 
REMARK       I    between atoms: N_9  and  C_10 
REMARK       I    between atoms: C_10  and  N_12 
REMARK    4  A    between atoms: N_12  and  C_13 
ROOT
HETATM    1  N   UNL     1     -40.804 -50.833  11.011  1.00  0.00    -0.341 N 
HETATM    2  C   UNL     1     -41.186 -51.422  12.178  1.00  0.00     0.321 C 
HETATM    3  O   UNL     1     -41.194 -50.896  13.274  1.00  0.00    -0.247 OA
HETATM    4  N   UNL     1     -41.567 -52.779  11.976  1.00  0.00    -0.293 N 
HETATM    5  H   UNL     1     -40.920 -51.286  10.121  1.00  0.00     0.164 HD
HETATM    6  H   UNL     1     -41.363 -53.231  11.102  1.00  0.00     0.172 HD
ENDROOT
BRANCH   1   7
HETATM    7  C   UNL     1     -40.460 -49.414  11.022  1.00  0.00     0.154 C 
BRANCH   7   8
HETATM    8  C   UNL     1     -41.633 -48.499  10.608  1.00  0.00     0.292 C 
BRANCH   8   9
HETATM    9  N   UNL     1     -41.395 -47.064  10.863  1.00  0.00     0.090 N 
HETATM   10  C   UNL     1     -40.016 -46.791  11.296  1.00  0.00     0.272 C 
HETATM   11  C   UNL     1     -39.768 -45.305  11.555  1.00  0.00     0.031 C 
HETATM   12  C   UNL     1     -40.776 -44.733  12.542  1.00  0.00     0.007 C 
HETATM   13  C   UNL     1     -42.213 -45.047  12.116  1.00  0.00     0.010 C 
HETATM   14  C   UNL     1     -42.636 -44.216  10.900  1.00  0.00     0.011 C 
HETATM   15  C   UNL     1     -42.365 -46.556  11.854  1.00  0.00     0.276 C 
ENDBRANCH   8   9
ENDBRANCH   7   8
ENDBRANCH   1   7
BRANCH   4  16
HETATM   16  C   UNL     1     -42.166 -53.518  12.996  1.00  0.00     0.127 A 
HETATM   17  C   UNL     1     -41.530 -54.235  13.986  1.00  0.00     0.076 A 
HETATM   18  C   UNL     1     -42.555 -54.816  14.761  1.00  0.00     0.025 A 
HETATM   19  C   UNL     1     -42.401 -55.727  15.921  1.00  0.00     0.070 C 
HETATM   20  N   UNL     1     -43.764 -54.455  14.322  1.00  0.00    -0.302 N 
HETATM   21  N   UNL     1     -43.509 -53.679  13.250  1.00  0.00    -0.281 N 
ATOM     22  HN  UNL     1     -44.673 -54.708  14.709  1.00  0.00     0.186 HD
HETATM   23  C   UNL     1     -44.623 -53.207  12.465  1.00  0.00     0.179 C 
ENDBRANCH   4  16
TORSDOF 4
ENDMDL
