MODEL 1
REMARK VINA RESULT:      -5.9      0.000      0.000
REMARK  4 active torsions:
REMARK  status: ('A' for Active; 'I' for Inactive)
REMARK    1  A    between atoms: N_7  and  C_8 
REMARK    2  A    between atoms: C_8  and  C_9 
REMARK    3  A    between atoms: C_9  and  N_10 
REMARK       I    between atoms: N_10  and  C_11 
REMARK       I    between atoms: C_11  and  N_13 
REMARK    4  A    between atoms: N_13  and  C_14 
ROOT
HETATM    1  N   UNL     1     -41.255 -51.875  11.548  1.00  0.00    -0.341 N 
HETATM    2  C   UNL     1     -41.223 -50.512  11.807  1.00  0.00     0.322 C 
HETATM    3  O   UNL     1     -41.486 -50.069  12.917  1.00  0.00    -0.247 OA
HETATM    4  N   UNL     1     -40.935 -49.790  10.678  1.00  0.00    -0.289 N 
HETATM    5  H   UNL     1     -40.525 -52.225  10.939  1.00  0.00     0.164 HD
HETATM    6  H   UNL     1     -41.080 -50.222   9.782  1.00  0.00     0.172 HD
ENDROOT
BRANCH   1   7
HETATM    7  C   UNL     1     -41.605 -52.750  12.651  1.00  0.00     0.154 C 
BRANCH   7   8
HETATM    8  C   UNL     1     -43.045 -53.283  12.580  1.00  0.00     0.292 C 
BRANCH   8   9
HETATM    9  N   UNL     1     -44.089 -52.329  13.019  1.00  0.00     0.094 N 
HETATM   10  C   UNL     1     -44.045 -52.109  14.487  1.00  0.00     0.219 C 
HETATM   11  C   UNL     1     -44.193 -53.374  15.353  1.00  0.00     0.043 C 
HETATM   12  C   UNL     1     -45.088 -51.052  14.895  1.00  0.00     0.035 C 
HETATM   13  C   UNL     1     -46.495 -51.417  14.434  1.00  0.00     0.004 C 
HETATM   14  C   UNL     1     -46.494 -51.702  12.940  1.00  0.00     0.030 C 
HETATM   15  C   UNL     1     -45.429 -52.729  12.557  1.00  0.00     0.273 C 
ENDBRANCH   8   9
ENDBRANCH   7   8
ENDBRANCH   1   7
BRANCH   4  16
HETATM   16  C   UNL     1     -40.884 -48.422  10.719  1.00  0.00     0.152 A 
HETATM   17  N   UNL     1     -39.913 -47.643  11.122  1.00  0.00    -0.346 N 
HETATM   18  C   UNL     1     -40.319 -46.328  11.055  1.00  0.00     0.097 A 
ATOM     19  HN  UNL     1     -38.995 -47.960  11.437  1.00  0.00     0.167 HD
HETATM   20  C   UNL     1     -41.597 -46.126  10.582  1.00  0.00     0.070 A 
HETATM   21  S   UNL     1     -42.300 -47.638  10.169  1.00  0.00    -0.064 SA
ENDBRANCH   4  16
TORSDOF 4
ENDMDL
MODEL 2
REMARK VINA RESULT:      -5.7      1.216      1.371
REMARK  4 active torsions:
REMARK  status: ('A' for Active; 'I' for Inactive)
REMARK    1  A    between atoms: N_7  and  C_8 
REMARK    2  A    between atoms: C_8  and  C_9 
REMARK    3  A    between atoms: C_9  and  N_10 
REMARK       I    between atoms: N_10  and  C_11 
REMARK       I    between atoms: C_11  and  N_13 
REMARK    4  A    between atoms: N_13  and  C_14 
ROOT
HETATM    1  N   UNL     1     -41.777 -53.061  12.060  1.00  0.00    -0.341 N 
HETATM    2  C   UNL     1     -41.220 -51.835  12.398  1.00  0.00     0.322 C 
HETATM    3  O   UNL     1     -41.015 -51.531  13.566  1.00  0.00    -0.247 OA
HETATM    4  N   UNL     1     -41.014 -51.051  11.293  1.00  0.00    -0.289 N 
HETATM    5  H   UNL     1     -41.396 -53.504  11.233  1.00  0.00     0.164 HD
HETATM    6  H   UNL     1     -41.527 -51.259  10.454  1.00  0.00     0.172 HD
ENDROOT
BRANCH   1   7
HETATM    7  C   UNL     1     -42.098 -53.966  13.148  1.00  0.00     0.154 C 
BRANCH   7   8
HETATM    8  C   UNL     1     -43.606 -54.192  13.335  1.00  0.00     0.292 C 
BRANCH   8   9
HETATM    9  N   UNL     1     -44.404 -52.962  13.544  1.00  0.00     0.094 N 
HETATM   10  C   UNL     1     -44.695 -52.741  14.984  1.00  0.00     0.219 C 
HETATM   11  C   UNL     1     -45.434 -53.888  15.697  1.00  0.00     0.043 C 
HETATM   12  C   UNL     1     -45.454 -51.413  15.172  1.00  0.00     0.035 C 
HETATM   13  C   UNL     1     -46.727 -51.349  14.335  1.00  0.00     0.004 C 
HETATM   14  C   UNL     1     -46.407 -51.647  12.878  1.00  0.00     0.030 C 
HETATM   15  C   UNL     1     -45.626 -52.952  12.723  1.00  0.00     0.273 C 
ENDBRANCH   8   9
ENDBRANCH   7   8
ENDBRANCH   1   7
BRANCH   4  16
HETATM   16  C   UNL     1     -40.495 -49.791  11.420  1.00  0.00     0.152 A 
HETATM   17  N   UNL     1     -39.344 -49.416  11.920  1.00  0.00    -0.346 N 
HETATM   18  C   UNL     1     -39.264 -48.041  11.912  1.00  0.00     0.097 A 
ATOM     19  HN  UNL     1     -38.618 -50.047  12.262  1.00  0.00     0.167 HD
HETATM   20  C   UNL     1     -40.356 -47.386  11.386  1.00  0.00     0.070 A 
HETATM   21  S   UNL     1     -41.509 -48.540  10.845  1.00  0.00    -0.064 SA
ENDBRANCH   4  16
TORSDOF 4
ENDMDL
MODEL 3
REMARK VINA RESULT:      -5.6      1.729      2.471
REMARK  4 active torsions:
REMARK  status: ('A' for Active; 'I' for Inactive)
REMARK    1  A    between atoms: N_7  and  C_8 
REMARK    2  A    between atoms: C_8  and  C_9 
REMARK    3  A    between atoms: C_9  and  N_10 
REMARK       I    between atoms: N_10  and  C_11 
REMARK       I    between atoms: C_11  and  N_13 
REMARK    4  A    between atoms: N_13  and  C_14 
ROOT
HETATM    1  N   UNL     1     -40.750 -51.156  11.407  1.00  0.00    -0.341 N 
HETATM    2  C   UNL     1     -40.878 -49.784  11.572  1.00  0.00     0.322 C 
HETATM    3  O   UNL     1     -40.691 -49.254  12.658  1.00  0.00    -0.247 OA
HETATM    4  N   UNL     1     -41.285 -49.172  10.415  1.00  0.00    -0.289 N 
HETATM    5  H   UNL     1     -40.322 -51.458  10.540  1.00  0.00     0.164 HD
HETATM    6  H   UNL     1     -41.732 -49.731   9.708  1.00  0.00     0.172 HD
ENDROOT
BRANCH   1   7
HETATM    7  C   UNL     1     -40.378 -51.932  12.576  1.00  0.00     0.154 C 
BRANCH   7   8
HETATM    8  C   UNL     1     -40.906 -53.374  12.551  1.00  0.00     0.292 C 
BRANCH   8   9
HETATM    9  N   UNL     1     -41.753 -53.752  13.706  1.00  0.00     0.094 N 
HETATM   10  C   UNL     1     -43.089 -54.231  13.268  1.00  0.00     0.219 C 
HETATM   11  C   UNL     1     -43.902 -53.242  12.413  1.00  0.00     0.043 C 
HETATM   12  C   UNL     1     -43.911 -54.692  14.487  1.00  0.00     0.035 C 
HETATM   13  C   UNL     1     -44.035 -53.603  15.548  1.00  0.00     0.004 C 
HETATM   14  C   UNL     1     -42.656 -53.086  15.925  1.00  0.00     0.030 C 
HETATM   15  C   UNL     1     -41.849 -52.666  14.697  1.00  0.00     0.273 C 
ENDBRANCH   8   9
ENDBRANCH   7   8
ENDBRANCH   1   7
BRANCH   4  16
HETATM   16  C   UNL     1     -41.496 -47.820  10.379  1.00  0.00     0.152 A 
HETATM   17  N   UNL     1     -40.640 -46.845  10.550  1.00  0.00    -0.346 N 
HETATM   18  C   UNL     1     -41.302 -45.637  10.497  1.00  0.00     0.097 A 
ATOM     19  HN  UNL     1     -39.638 -46.961  10.699  1.00  0.00     0.167 HD
HETATM   20  C   UNL     1     -42.657 -45.713  10.267  1.00  0.00     0.070 A 
HETATM   21  S   UNL     1     -43.113 -47.358  10.070  1.00  0.00    -0.064 SA
ENDBRANCH   4  16
TORSDOF 4
ENDMDL
MODEL 4
REMARK VINA RESULT:      -5.4      2.286      3.461
REMARK  4 active torsions:
REMARK  status: ('A' for Active; 'I' for Inactive)
REMARK    1  A    between atoms: N_7  and  C_8 
REMARK    2  A    between atoms: C_8  and  C_9 
REMARK    3  A    between atoms: C_9  and  N_10 
REMARK       I    between atoms: N_10  and  C_11 
REMARK       I    between atoms: C_11  and  N_13 
REMARK    4  A    between atoms: N_13  and  C_14 
ROOT
HETATM    1  N   UNL     1     -40.302 -49.812  10.681  1.00  0.00    -0.341 N 
HETATM    2  C   UNL     1     -40.943 -48.581  10.687  1.00  0.00     0.322 C 
HETATM    3  O   UNL     1     -40.719 -47.752  11.559  1.00  0.00    -0.247 OA
HETATM    4  N   UNL     1     -41.853 -48.479   9.667  1.00  0.00    -0.289 N 
HETATM    5  H   UNL     1     -40.029 -50.162   9.770  1.00  0.00     0.164 HD
HETATM    6  H   UNL     1     -42.193 -49.324   9.241  1.00  0.00     0.172 HD
ENDROOT
BRANCH   1   7
HETATM    7  C   UNL     1     -39.352 -50.070  11.747  1.00  0.00     0.154 C 
BRANCH   7   8
HETATM    8  C   UNL     1     -39.979 -50.732  12.983  1.00  0.00     0.292 C 
BRANCH   8   9
HETATM    9  N   UNL     1     -40.852 -51.894  12.697  1.00  0.00     0.094 N 
HETATM   10  C   UNL     1     -42.285 -51.560  12.896  1.00  0.00     0.219 C 
HETATM   11  C   UNL     1     -42.660 -51.045  14.298  1.00  0.00     0.043 C 
HETATM   12  C   UNL     1     -43.167 -52.764  12.511  1.00  0.00     0.035 C 
HETATM   13  C   UNL     1     -42.784 -54.029  13.271  1.00  0.00     0.004 C 
HETATM   14  C   UNL     1     -41.298 -54.306  13.104  1.00  0.00     0.030 C 
HETATM   15  C   UNL     1     -40.448 -53.087  13.461  1.00  0.00     0.273 C 
ENDBRANCH   8   9
ENDBRANCH   7   8
ENDBRANCH   1   7
BRANCH   4  16
HETATM   16  C   UNL     1     -42.609 -47.348   9.518  1.00  0.00     0.152 A 
HETATM   17  N   UNL     1     -42.433 -46.161  10.040  1.00  0.00    -0.346 N 
HETATM   18  C   UNL     1     -43.477 -45.338   9.676  1.00  0.00     0.097 A 
ATOM     19  HN  UNL     1     -41.644 -45.887  10.627  1.00  0.00     0.167 HD
HETATM   20  C   UNL     1     -44.428 -45.911   8.862  1.00  0.00     0.070 A 
HETATM   21  S   UNL     1     -43.976 -47.531   8.507  1.00  0.00    -0.064 SA
ENDBRANCH   4  16
TORSDOF 4
ENDMDL
MODEL 5
REMARK VINA RESULT:      -5.2      2.560      3.205
REMARK  4 active torsions:
REMARK  status: ('A' for Active; 'I' for Inactive)
REMARK    1  A    between atoms: N_7  and  C_8 
REMARK    2  A    between atoms: C_8  and  C_9 
REMARK    3  A    between atoms: C_9  and  N_10 
REMARK       I    between atoms: N_10  and  C_11 
REMARK       I    between atoms: C_11  and  N_13 
REMARK    4  A    between atoms: N_13  and  C_14 
ROOT
HETATM    1  N   UNL     1     -40.700 -50.446  11.225  1.00  0.00    -0.341 N 
HETATM    2  C   UNL     1     -40.465 -49.103  11.487  1.00  0.00     0.322 C 
HETATM    3  O   UNL     1     -39.858 -48.748  12.488  1.00  0.00    -0.247 OA
HETATM    4  N   UNL     1     -41.042 -48.295  10.542  1.00  0.00    -0.289 N 
HETATM    5  H   UNL     1     -40.622 -50.725  10.254  1.00  0.00     0.164 HD
HETATM    6  H   UNL     1     -41.787 -48.669   9.980  1.00  0.00     0.172 HD
ENDROOT
BRANCH   1   7
HETATM    7  C   UNL     1     -40.190 -51.407  12.184  1.00  0.00     0.154 C 
BRANCH   7   8
HETATM    8  C   UNL     1     -40.962 -52.736  12.194  1.00  0.00     0.292 C 
BRANCH   8   9
HETATM    9  N   UNL     1     -41.442 -53.172  13.525  1.00  0.00     0.094 N 
HETATM   10  C   UNL     1     -40.312 -53.476  14.440  1.00  0.00     0.219 C 
HETATM   11  C   UNL     1     -39.322 -54.545  13.942  1.00  0.00     0.043 C 
HETATM   12  C   UNL     1     -40.847 -53.846  15.837  1.00  0.00     0.035 C 
HETATM   13  C   UNL     1     -41.844 -54.999  15.789  1.00  0.00     0.004 C 
HETATM   14  C   UNL     1     -42.951 -54.687  14.794  1.00  0.00     0.030 C 
HETATM   15  C   UNL     1     -42.394 -54.292  13.427  1.00  0.00     0.273 C 
ENDBRANCH   8   9
ENDBRANCH   7   8
ENDBRANCH   1   7
BRANCH   4  16
HETATM   16  C   UNL     1     -40.946 -46.933  10.638  1.00  0.00     0.152 A 
HETATM   17  N   UNL     1     -39.919 -46.157  10.396  1.00  0.00    -0.346 N 
HETATM   18  C   UNL     1     -40.248 -44.852  10.691  1.00  0.00     0.097 A 
ATOM     19  HN  UNL     1     -39.014 -46.471  10.044  1.00  0.00     0.167 HD
HETATM   20  C   UNL     1     -41.535 -44.652  11.138  1.00  0.00     0.070 A 
HETATM   21  S   UNL     1     -42.376 -46.151  11.151  1.00  0.00    -0.064 SA
ENDBRANCH   4  16
TORSDOF 4
ENDMDL
MODEL 6
REMARK VINA RESULT:      -5.2      3.377      6.670
REMARK  4 active torsions:
REMARK  status: ('A' for Active; 'I' for Inactive)
REMARK    1  A    between atoms: N_7  and  C_8 
REMARK    2  A    between atoms: C_8  and  C_9 
REMARK    3  A    between atoms: C_9  and  N_10 
REMARK       I    between atoms: N_10  and  C_11 
REMARK       I    between atoms: C_11  and  N_13 
REMARK    4  A    between atoms: N_13  and  C_14 
ROOT
HETATM    1  N   UNL     1     -40.691 -51.227  11.315  1.00  0.00    -0.341 N 
HETATM    2  C   UNL     1     -41.841 -51.425  12.065  1.00  0.00     0.322 C 
HETATM    3  O   UNL     1     -42.204 -50.607  12.900  1.00  0.00    -0.247 OA
HETATM    4  N   UNL     1     -42.425 -52.633  11.787  1.00  0.00    -0.289 N 
HETATM    5  H   UNL     1     -40.744 -51.511  10.344  1.00  0.00     0.164 HD
HETATM    6  H   UNL     1     -41.866 -53.349  11.357  1.00  0.00     0.172 HD
ENDROOT
BRANCH   1   7
HETATM    7  C   UNL     1     -39.943 -50.007  11.557  1.00  0.00     0.154 C 
BRANCH   7   8
HETATM    8  C   UNL     1     -38.502 -50.252  12.030  1.00  0.00     0.292 C 
BRANCH   8   9
HETATM    9  N   UNL     1     -37.992 -49.274  13.018  1.00  0.00     0.094 N 
HETATM   10  C   UNL     1     -37.610 -49.935  14.291  1.00  0.00     0.219 C 
HETATM   11  C   UNL     1     -38.725 -50.740  14.984  1.00  0.00     0.043 C 
HETATM   12  C   UNL     1     -37.008 -48.902  15.264  1.00  0.00     0.035 C 
HETATM   13  C   UNL     1     -37.945 -47.725  15.513  1.00  0.00     0.004 C 
HETATM   14  C   UNL     1     -38.372 -47.113  14.188  1.00  0.00     0.030 C 
HETATM   15  C   UNL     1     -38.935 -48.163  13.230  1.00  0.00     0.273 C 
ENDBRANCH   8   9
ENDBRANCH   7   8
ENDBRANCH   1   7
BRANCH   4  16
HETATM   16  C   UNL     1     -43.559 -53.027  12.445  1.00  0.00     0.152 A 
HETATM   17  N   UNL     1     -44.800 -52.659  12.247  1.00  0.00    -0.346 N 
HETATM   18  C   UNL     1     -45.612 -53.255  13.188  1.00  0.00     0.097 A 
ATOM     19  HN  UNL     1     -45.117 -52.029  11.511  1.00  0.00     0.167 HD
HETATM   20  C   UNL     1     -44.974 -54.087  14.081  1.00  0.00     0.070 A 
HETATM   21  S   UNL     1     -43.298 -54.155  13.702  1.00  0.00    -0.064 SA
ENDBRANCH   4  16
TORSDOF 4
ENDMDL
MODEL 7
REMARK VINA RESULT:      -5.0      3.481      7.012
REMARK  4 active torsions:
REMARK  status: ('A' for Active; 'I' for Inactive)
REMARK    1  A    between atoms: N_7  and  C_8 
REMARK    2  A    between atoms: C_8  and  C_9 
REMARK    3  A    between atoms: C_9  and  N_10 
REMARK       I    between atoms: N_10  and  C_11 
REMARK       I    between atoms: C_11  and  N_13 
REMARK    4  A    between atoms: N_13  and  C_14 
ROOT
HETATM    1  N   UNL     1     -41.985 -52.325  11.596  1.00  0.00    -0.341 N 
HETATM    2  C   UNL     1     -43.044 -52.336  12.493  1.00  0.00     0.322 C 
HETATM    3  O   UNL     1     -43.141 -51.490  13.372  1.00  0.00    -0.247 OA
HETATM    4  N   UNL     1     -43.869 -53.411  12.288  1.00  0.00    -0.289 N 
HETATM    5  H   UNL     1     -42.215 -52.567  10.640  1.00  0.00     0.164 HD
HETATM    6  H   UNL     1     -43.509 -54.203  11.784  1.00  0.00     0.172 HD
ENDROOT
BRANCH   1   7
HETATM    7  C   UNL     1     -41.003 -51.266  11.742  1.00  0.00     0.154 C 
BRANCH   7   8
HETATM    8  C   UNL     1     -39.812 -51.650  12.634  1.00  0.00     0.292 C 
BRANCH   8   9
HETATM    9  N   UNL     1     -39.297 -50.561  13.494  1.00  0.00     0.094 N 
HETATM   10  C   UNL     1     -38.711 -49.460  12.687  1.00  0.00     0.219 C 
HETATM   11  C   UNL     1     -37.570 -49.866  11.737  1.00  0.00     0.043 C 
HETATM   12  C   UNL     1     -38.260 -48.310  13.609  1.00  0.00     0.035 C 
HETATM   13  C   UNL     1     -37.291 -48.779  14.689  1.00  0.00     0.004 C 
HETATM   14  C   UNL     1     -37.891 -49.950  15.452  1.00  0.00     0.030 C 
HETATM   15  C   UNL     1     -38.359 -51.062  14.514  1.00  0.00     0.273 C 
ENDBRANCH   8   9
ENDBRANCH   7   8
ENDBRANCH   1   7
BRANCH   4  16
HETATM   16  C   UNL     1     -44.960 -53.615  13.090  1.00  0.00     0.152 A 
HETATM   17  N   UNL     1     -46.084 -52.947  13.142  1.00  0.00    -0.346 N 
HETATM   18  C   UNL     1     -46.877 -53.457  14.147  1.00  0.00     0.097 A 
ATOM     19  HN  UNL     1     -46.335 -52.168  12.532  1.00  0.00     0.167 HD
HETATM   20  C   UNL     1     -46.346 -54.524  14.837  1.00  0.00     0.070 A 
HETATM   21  S   UNL     1     -44.813 -54.928  14.174  1.00  0.00    -0.064 SA
ENDBRANCH   4  16
TORSDOF 4
ENDMDL
MODEL 8
REMARK VINA RESULT:      -5.0      2.544      3.468
REMARK  4 active torsions:
REMARK  status: ('A' for Active; 'I' for Inactive)
REMARK    1  A    between atoms: N_7  and  C_8 
REMARK    2  A    between atoms: C_8  and  C_9 
REMARK    3  A    between atoms: C_9  and  N_10 
REMARK       I    between atoms: N_10  and  C_11 
REMARK       I    between atoms: C_11  and  N_13 
REMARK    4  A    between atoms: N_13  and  C_14 
ROOT
HETATM    1  N   UNL     1     -41.345 -50.052  11.703  1.00  0.00    -0.341 N 
HETATM    2  C   UNL     1     -42.351 -49.128  11.455  1.00  0.00     0.322 C 
HETATM    3  O   UNL     1     -43.286 -48.983  12.230  1.00  0.00    -0.247 OA
HETATM    4  N   UNL     1     -42.172 -48.497  10.251  1.00  0.00    -0.289 N 
HETATM    5  H   UNL     1     -40.407 -49.756  11.461  1.00  0.00     0.164 HD
HETATM    6  H   UNL     1     -41.583 -48.934   9.564  1.00  0.00     0.172 HD
ENDROOT
BRANCH   1   7
HETATM    7  C   UNL     1     -41.447 -50.831  12.923  1.00  0.00     0.154 C 
BRANCH   7   8
HETATM    8  C   UNL     1     -42.004 -52.246  12.705  1.00  0.00     0.292 C 
BRANCH   8   9
HETATM    9  N   UNL     1     -42.241 -53.025  13.941  1.00  0.00     0.094 N 
HETATM   10  C   UNL     1     -40.964 -53.426  14.585  1.00  0.00     0.219 C 
HETATM   11  C   UNL     1     -40.007 -54.251  13.706  1.00  0.00     0.043 C 
HETATM   12  C   UNL     1     -41.248 -54.162  15.909  1.00  0.00     0.035 C 
HETATM   13  C   UNL     1     -42.172 -55.360  15.720  1.00  0.00     0.004 C 
HETATM   14  C   UNL     1     -43.439 -54.930  14.998  1.00  0.00     0.030 C 
HETATM   15  C   UNL     1     -43.130 -54.175  13.706  1.00  0.00     0.273 C 
ENDBRANCH   8   9
ENDBRANCH   7   8
ENDBRANCH   1   7
BRANCH   4  16
HETATM   16  C   UNL     1     -43.075 -47.567   9.811  1.00  0.00     0.152 A 
HETATM   17  N   UNL     1     -44.287 -47.746   9.348  1.00  0.00    -0.346 N 
HETATM   18  C   UNL     1     -44.813 -46.535   8.955  1.00  0.00     0.097 A 
ATOM     19  HN  UNL     1     -44.767 -48.644   9.288  1.00  0.00     0.167 HD
HETATM   20  C   UNL     1     -43.994 -45.443   9.143  1.00  0.00     0.070 A 
HETATM   21  S   UNL     1     -42.525 -45.951   9.877  1.00  0.00    -0.064 SA
ENDBRANCH   4  16
TORSDOF 4
ENDMDL
MODEL 9
REMARK VINA RESULT:      -5.0      1.751      3.381
REMARK  4 active torsions:
REMARK  status: ('A' for Active; 'I' for Inactive)
REMARK    1  A    between atoms: N_7  and  C_8 
REMARK    2  A    between atoms: C_8  and  C_9 
REMARK    3  A    between atoms: C_9  and  N_10 
REMARK       I    between atoms: N_10  and  C_11 
REMARK       I    between atoms: C_11  and  N_13 
REMARK    4  A    between atoms: N_13  and  C_14 
ROOT
HETATM    1  N   UNL     1     -43.677 -50.270  12.494  1.00  0.00    -0.341 N 
HETATM    2  C   UNL     1     -42.845 -49.160  12.468  1.00  0.00     0.322 C 
HETATM    3  O   UNL     1     -42.573 -48.545  13.491  1.00  0.00    -0.247 OA
HETATM    4  N   UNL     1     -42.457 -48.848  11.191  1.00  0.00    -0.289 N 
HETATM    5  H   UNL     1     -43.412 -51.033  11.883  1.00  0.00     0.164 HD
HETATM    6  H   UNL     1     -43.005 -49.197  10.425  1.00  0.00     0.172 HD
ENDROOT
BRANCH   1   7
HETATM    7  C   UNL     1     -44.205 -50.672  13.785  1.00  0.00     0.154 C 
BRANCH   7   8
HETATM    8  C   UNL     1     -43.766 -52.080  14.217  1.00  0.00     0.292 C 
BRANCH   8   9
HETATM    9  N   UNL     1     -42.424 -52.491  13.745  1.00  0.00     0.094 N 
HETATM   10  C   UNL     1     -42.348 -53.958  13.529  1.00  0.00     0.219 C 
HETATM   11  C   UNL     1     -42.686 -54.830  14.752  1.00  0.00     0.043 C 
HETATM   12  C   UNL     1     -40.967 -54.339  12.961  1.00  0.00     0.035 C 
HETATM   13  C   UNL     1     -39.823 -53.852  13.845  1.00  0.00     0.004 C 
HETATM   14  C   UNL     1     -39.967 -52.360  14.104  1.00  0.00     0.030 C 
HETATM   15  C   UNL     1     -41.355 -52.006  14.635  1.00  0.00     0.273 C 
ENDBRANCH   8   9
ENDBRANCH   7   8
ENDBRANCH   1   7
BRANCH   4  16
HETATM   16  C   UNL     1     -41.653 -47.766  10.951  1.00  0.00     0.152 A 
HETATM   17  N   UNL     1     -40.363 -47.638  11.131  1.00  0.00    -0.346 N 
HETATM   18  C   UNL     1     -39.980 -46.351  10.823  1.00  0.00     0.097 A 
ATOM     19  HN  UNL     1     -39.737 -48.378  11.451  1.00  0.00     0.167 HD
HETATM   20  C   UNL     1     -40.989 -45.519  10.393  1.00  0.00     0.070 A 
HETATM   21  S   UNL     1     -42.467 -46.395  10.335  1.00  0.00    -0.064 SA
ENDBRANCH   4  16
TORSDOF 4
ENDMDL
