MODEL 1
REMARK VINA RESULT:      -6.0      0.000      0.000
REMARK  3 active torsions:
REMARK  status: ('A' for Active; 'I' for Inactive)
REMARK    1  A    between atoms: O_2  and  C_3 
REMARK    2  A    between atoms: C_6  and  N_7 
REMARK       I    between atoms: N_7  and  C_8 
REMARK       I    between atoms: C_8  and  N_10 
REMARK    3  A    between atoms: N_10  and  C_11 
ROOT
HETATM    1  N   UNL     1     -41.582 -49.707  11.085  1.00  0.00    -0.308 N 
HETATM    2  C   UNL     1     -42.344 -50.215  12.102  1.00  0.00     0.321 C 
HETATM    3  O   UNL     1     -42.959 -49.563  12.936  1.00  0.00    -0.247 OA
HETATM    4  N   UNL     1     -42.340 -51.594  12.153  1.00  0.00    -0.337 N 
HETATM    5  H   UNL     1     -41.284 -50.340  10.359  1.00  0.00     0.170 HD
HETATM    6  H   UNL     1     -42.168 -52.099  11.296  1.00  0.00     0.164 HD
ENDROOT
BRANCH   1   7
HETATM    7  C   UNL     1     -41.295 -48.333  10.915  1.00  0.00     0.051 A 
HETATM    8  C   UNL     1     -40.215 -47.692  11.524  1.00  0.00     0.035 A 
HETATM    9  C   UNL     1     -39.994 -46.335  11.306  1.00  0.00     0.058 A 
HETATM   10  C   UNL     1     -40.859 -45.656  10.471  1.00  0.00     0.141 A 
HETATM   11  N   UNL     1     -41.910 -46.235   9.850  1.00  0.00    -0.345 N 
HETATM   12  C   UNL     1     -42.097 -47.557  10.083  1.00  0.00     0.119 A 
ATOM     13  HN  UNL     1     -42.530 -45.705   9.237  1.00  0.00     0.167 HD
BRANCH  10  14
HETATM   14  O   UNL     1     -40.588 -44.317  10.282  1.00  0.00    -0.341 OA
HETATM   15  C   UNL     1     -40.297 -43.637  11.496  1.00  0.00     0.211 C 
ENDBRANCH  10  14
ENDBRANCH   1   7
BRANCH   4  16
HETATM   16  C   UNL     1     -43.055 -52.284  13.228  1.00  0.00     0.101 C 
HETATM   17  C   UNL     1     -42.204 -53.389  13.891  1.00  0.00     0.041 C 
HETATM   18  C   UNL     1     -43.089 -54.555  14.317  1.00  0.00     0.142 C 
HETATM   19  S   UNL     1     -44.770 -54.092  13.992  1.00  0.00     0.146 S 
HETATM   20  O   UNL     1     -45.469 -55.198  13.373  1.00  0.00    -0.228 OA
HETATM   21  O   UNL     1     -45.288 -53.416  15.165  1.00  0.00    -0.228 OA
HETATM   22  C   UNL     1     -44.397 -52.866  12.776  1.00  0.00     0.165 C 
ENDBRANCH   4  16
TORSDOF 3
ENDMDL
MODEL 2
REMARK VINA RESULT:      -5.8      2.814      8.131
REMARK  3 active torsions:
REMARK  status: ('A' for Active; 'I' for Inactive)
REMARK    1  A    between atoms: O_2  and  C_3 
REMARK    2  A    between atoms: C_6  and  N_7 
REMARK       I    between atoms: N_7  and  C_8 
REMARK       I    between atoms: C_8  and  N_10 
REMARK    3  A    between atoms: N_10  and  C_11 
ROOT
HETATM    1  N   UNL     1     -41.956 -51.513  11.763  1.00  0.00    -0.308 N 
HETATM    2  C   UNL     1     -42.049 -50.192  12.110  1.00  0.00     0.321 C 
HETATM    3  O   UNL     1     -42.279 -49.757  13.231  1.00  0.00    -0.247 OA
HETATM    4  N   UNL     1     -41.897 -49.333  11.041  1.00  0.00    -0.337 N 
HETATM    5  H   UNL     1     -41.577 -51.735  10.855  1.00  0.00     0.170 HD
HETATM    6  H   UNL     1     -41.357 -49.651  10.250  1.00  0.00     0.164 HD
ENDROOT
BRANCH   1   7
HETATM    7  C   UNL     1     -42.231 -52.588  12.639  1.00  0.00     0.051 A 
HETATM    8  C   UNL     1     -41.274 -53.162  13.477  1.00  0.00     0.035 A 
HETATM    9  C   UNL     1     -41.621 -54.216  14.316  1.00  0.00     0.058 A 
HETATM   10  C   UNL     1     -42.927 -54.664  14.299  1.00  0.00     0.141 A 
HETATM   11  N   UNL     1     -43.891 -54.134  13.515  1.00  0.00    -0.345 N 
HETATM   12  C   UNL     1     -43.521 -53.108  12.711  1.00  0.00     0.119 A 
ATOM     13  HN  UNL     1     -44.849 -54.486  13.528  1.00  0.00     0.167 HD
BRANCH  10  14
HETATM   14  O   UNL     1     -43.219 -55.705  15.157  1.00  0.00    -0.341 OA
HETATM   15  C   UNL     1     -42.329 -55.772  16.263  1.00  0.00     0.211 C 
ENDBRANCH  10  14
ENDBRANCH   1   7
BRANCH   4  16
HETATM   16  C   UNL     1     -42.038 -47.890  11.243  1.00  0.00     0.101 C 
HETATM   17  C   UNL     1     -43.109 -47.266  10.322  1.00  0.00     0.041 C 
HETATM   18  C   UNL     1     -42.700 -45.855   9.913  1.00  0.00     0.142 C 
HETATM   19  S   UNL     1     -41.208 -45.461  10.789  1.00  0.00     0.146 S 
HETATM   20  O   UNL     1     -40.268 -44.829   9.888  1.00  0.00    -0.228 OA
HETATM   21  O   UNL     1     -41.572 -44.868  12.060  1.00  0.00    -0.228 OA
HETATM   22  C   UNL     1     -40.718 -47.132  11.088  1.00  0.00     0.165 C 
ENDBRANCH   4  16
TORSDOF 3
ENDMDL
MODEL 3
REMARK VINA RESULT:      -5.8      4.731      8.340
REMARK  3 active torsions:
REMARK  status: ('A' for Active; 'I' for Inactive)
REMARK    1  A    between atoms: O_2  and  C_3 
REMARK    2  A    between atoms: C_6  and  N_7 
REMARK       I    between atoms: N_7  and  C_8 
REMARK       I    between atoms: C_8  and  N_10 
REMARK    3  A    between atoms: N_10  and  C_11 
ROOT
HETATM    1  N   UNL     1     -39.958 -52.418  13.713  1.00  0.00    -0.308 N 
HETATM    2  C   UNL     1     -39.734 -51.316  14.491  1.00  0.00     0.321 C 
HETATM    3  O   UNL     1     -40.572 -50.725  15.160  1.00  0.00    -0.247 OA
HETATM    4  N   UNL     1     -38.432 -50.863  14.437  1.00  0.00    -0.337 N 
HETATM    5  H   UNL     1     -39.155 -52.920  13.364  1.00  0.00     0.170 HD
HETATM    6  H   UNL     1     -37.707 -51.529  14.215  1.00  0.00     0.164 HD
ENDROOT
BRANCH   1   7
HETATM    7  C   UNL     1     -41.234 -52.977  13.471  1.00  0.00     0.051 A 
HETATM    8  C   UNL     1     -41.805 -53.967  14.273  1.00  0.00     0.035 A 
HETATM    9  C   UNL     1     -43.069 -54.466  13.974  1.00  0.00     0.058 A 
HETATM   10  C   UNL     1     -43.735 -53.951  12.879  1.00  0.00     0.141 A 
HETATM   11  N   UNL     1     -43.230 -52.984  12.082  1.00  0.00    -0.345 N 
HETATM   12  C   UNL     1     -41.998 -52.520  12.400  1.00  0.00     0.119 A 
ATOM     13  HN  UNL     1     -43.749 -52.623  11.281  1.00  0.00     0.167 HD
BRANCH  10  14
HETATM   14  O   UNL     1     -44.988 -54.474  12.635  1.00  0.00    -0.341 OA
HETATM   15  C   UNL     1     -45.535 -55.142  13.764  1.00  0.00     0.211 C 
ENDBRANCH  10  14
ENDBRANCH   1   7
BRANCH   4  16
HETATM   16  C   UNL     1     -38.053 -49.650  15.165  1.00  0.00     0.101 C 
HETATM   17  C   UNL     1     -37.943 -48.416  14.242  1.00  0.00     0.041 C 
HETATM   18  C   UNL     1     -36.833 -47.490  14.726  1.00  0.00     0.142 C 
HETATM   19  S   UNL     1     -36.212 -48.157  16.248  1.00  0.00     0.146 S 
HETATM   20  O   UNL     1     -34.765 -48.113  16.244  1.00  0.00    -0.228 OA
HETATM   21  O   UNL     1     -36.994 -47.605  17.337  1.00  0.00    -0.228 OA
HETATM   22  C   UNL     1     -36.760 -49.812  15.967  1.00  0.00     0.165 C 
ENDBRANCH   4  16
TORSDOF 3
ENDMDL
MODEL 4
REMARK VINA RESULT:      -5.5      2.800      7.826
REMARK  3 active torsions:
REMARK  status: ('A' for Active; 'I' for Inactive)
REMARK    1  A    between atoms: O_2  and  C_3 
REMARK    2  A    between atoms: C_6  and  N_7 
REMARK       I    between atoms: N_7  and  C_8 
REMARK       I    between atoms: C_8  and  N_10 
REMARK    3  A    between atoms: N_10  and  C_11 
ROOT
HETATM    1  N   UNL     1     -41.662 -52.444  11.763  1.00  0.00    -0.308 N 
HETATM    2  C   UNL     1     -41.314 -51.140  11.983  1.00  0.00     0.321 C 
HETATM    3  O   UNL     1     -41.660 -50.452  12.934  1.00  0.00    -0.247 OA
HETATM    4  N   UNL     1     -40.531 -50.606  10.979  1.00  0.00    -0.337 N 
HETATM    5  H   UNL     1     -41.163 -52.952  11.048  1.00  0.00     0.170 HD
HETATM    6  H   UNL     1     -39.963 -51.237  10.434  1.00  0.00     0.164 HD
ENDROOT
BRANCH   1   7
HETATM    7  C   UNL     1     -42.584 -53.167  12.556  1.00  0.00     0.051 A 
HETATM    8  C   UNL     1     -42.206 -53.984  13.622  1.00  0.00     0.035 A 
HETATM    9  C   UNL     1     -43.171 -54.662  14.360  1.00  0.00     0.058 A 
HETATM   10  C   UNL     1     -44.498 -54.494  14.014  1.00  0.00     0.141 A 
HETATM   11  N   UNL     1     -44.914 -53.705  12.999  1.00  0.00    -0.345 N 
HETATM   12  C   UNL     1     -43.949 -53.059  12.301  1.00  0.00     0.119 A 
ATOM     13  HN  UNL     1     -45.902 -53.601  12.770  1.00  0.00     0.167 HD
BRANCH  10  14
HETATM   14  O   UNL     1     -45.413 -55.181  14.784  1.00  0.00    -0.341 OA
HETATM   15  C   UNL     1     -46.641 -54.481  14.934  1.00  0.00     0.211 C 
ENDBRANCH  10  14
ENDBRANCH   1   7
BRANCH   4  16
HETATM   16  C   UNL     1     -40.133 -49.198  11.039  1.00  0.00     0.101 C 
HETATM   17  C   UNL     1     -39.293 -48.874  12.294  1.00  0.00     0.041 C 
HETATM   18  C   UNL     1     -39.596 -47.462  12.784  1.00  0.00     0.142 C 
HETATM   19  S   UNL     1     -40.702 -46.720  11.612  1.00  0.00     0.146 S 
HETATM   20  O   UNL     1     -41.760 -46.026  12.313  1.00  0.00    -0.228 OA
HETATM   21  O   UNL     1     -39.907 -46.074  10.586  1.00  0.00    -0.228 OA
HETATM   22  C   UNL     1     -41.319 -48.236  10.948  1.00  0.00     0.165 C 
ENDBRANCH   4  16
TORSDOF 3
ENDMDL
MODEL 5
REMARK VINA RESULT:      -5.1      5.281      6.728
REMARK  3 active torsions:
REMARK  status: ('A' for Active; 'I' for Inactive)
REMARK    1  A    between atoms: O_2  and  C_3 
REMARK    2  A    between atoms: C_6  and  N_7 
REMARK       I    between atoms: N_7  and  C_8 
REMARK       I    between atoms: C_8  and  N_10 
REMARK    3  A    between atoms: N_10  and  C_11 
ROOT
HETATM    1  N   UNL     1     -40.707 -48.719  13.518  1.00  0.00    -0.308 N 
HETATM    2  C   UNL     1     -39.398 -48.415  13.774  1.00  0.00     0.321 C 
HETATM    3  O   UNL     1     -38.679 -47.694  13.093  1.00  0.00    -0.247 OA
HETATM    4  N   UNL     1     -38.899 -49.045  14.896  1.00  0.00    -0.337 N 
HETATM    5  H   UNL     1     -41.239 -49.165  14.250  1.00  0.00     0.170 HD
HETATM    6  H   UNL     1     -39.549 -49.305  15.622  1.00  0.00     0.164 HD
ENDROOT
BRANCH   1   7
HETATM    7  C   UNL     1     -41.401 -48.331  12.348  1.00  0.00     0.051 A 
HETATM    8  C   UNL     1     -42.457 -47.420  12.347  1.00  0.00     0.035 A 
HETATM    9  C   UNL     1     -43.090 -47.084  11.153  1.00  0.00     0.058 A 
HETATM   10  C   UNL     1     -42.638 -47.668   9.986  1.00  0.00     0.141 A 
HETATM   11  N   UNL     1     -41.612 -48.546   9.935  1.00  0.00    -0.345 N 
HETATM   12  C   UNL     1     -41.018 -48.850  11.114  1.00  0.00     0.119 A 
ATOM     13  HN  UNL     1     -41.301 -48.958   9.055  1.00  0.00     0.167 HD
BRANCH  10  14
HETATM   14  O   UNL     1     -43.294 -47.293   8.832  1.00  0.00    -0.341 OA
HETATM   15  C   UNL     1     -44.702 -47.465   8.918  1.00  0.00     0.211 C 
ENDBRANCH  10  14
ENDBRANCH   1   7
BRANCH   4  16
HETATM   16  C   UNL     1     -37.491 -48.872  15.261  1.00  0.00     0.101 C 
HETATM   17  C   UNL     1     -36.759 -50.218  15.451  1.00  0.00     0.041 C 
HETATM   18  C   UNL     1     -35.713 -50.102  16.553  1.00  0.00     0.142 C 
HETATM   19  S   UNL     1     -35.677 -48.406  17.073  1.00  0.00     0.146 S 
HETATM   20  O   UNL     1     -35.635 -48.341  18.518  1.00  0.00    -0.228 OA
HETATM   21  O   UNL     1     -34.721 -47.699  16.244  1.00  0.00    -0.228 OA
HETATM   22  C   UNL     1     -37.298 -47.999  16.503  1.00  0.00     0.165 C 
ENDBRANCH   4  16
TORSDOF 3
ENDMDL
MODEL 6
REMARK VINA RESULT:      -5.0      2.197      2.550
REMARK  3 active torsions:
REMARK  status: ('A' for Active; 'I' for Inactive)
REMARK    1  A    between atoms: O_2  and  C_3 
REMARK    2  A    between atoms: C_6  and  N_7 
REMARK       I    between atoms: N_7  and  C_8 
REMARK       I    between atoms: C_8  and  N_10 
REMARK    3  A    between atoms: N_10  and  C_11 
ROOT
HETATM    1  N   UNL     1     -42.901 -48.648  13.927  1.00  0.00    -0.308 N 
HETATM    2  C   UNL     1     -43.422 -49.886  13.670  1.00  0.00     0.321 C 
HETATM    3  O   UNL     1     -43.416 -50.461  12.589  1.00  0.00    -0.247 OA
HETATM    4  N   UNL     1     -44.028 -50.463  14.768  1.00  0.00    -0.337 N 
HETATM    5  H   UNL     1     -42.802 -48.368  14.891  1.00  0.00     0.170 HD
HETATM    6  H   UNL     1     -43.712 -50.184  15.685  1.00  0.00     0.164 HD
ENDROOT
BRANCH   1   7
HETATM    7  C   UNL     1     -42.373 -47.785  12.938  1.00  0.00     0.051 A 
HETATM    8  C   UNL     1     -41.094 -47.926  12.399  1.00  0.00     0.035 A 
HETATM    9  C   UNL     1     -40.644 -47.040  11.425  1.00  0.00     0.058 A 
HETATM   10  C   UNL     1     -41.497 -46.037  11.007  1.00  0.00     0.141 A 
HETATM   11  N   UNL     1     -42.748 -45.869  11.489  1.00  0.00    -0.345 N 
HETATM   12  C   UNL     1     -43.155 -46.748  12.436  1.00  0.00     0.119 A 
ATOM     13  HN  UNL     1     -43.354 -45.118  11.157  1.00  0.00     0.167 HD
BRANCH  10  14
HETATM   14  O   UNL     1     -41.004 -45.194  10.033  1.00  0.00    -0.341 OA
HETATM   15  C   UNL     1     -39.642 -44.845  10.244  1.00  0.00     0.211 C 
ENDBRANCH  10  14
ENDBRANCH   1   7
BRANCH   4  16
HETATM   16  C   UNL     1     -44.691 -51.761  14.634  1.00  0.00     0.101 C 
HETATM   17  C   UNL     1     -46.226 -51.632  14.516  1.00  0.00     0.041 C 
HETATM   18  C   UNL     1     -46.911 -52.813  15.195  1.00  0.00     0.142 C 
HETATM   19  S   UNL     1     -45.639 -53.930  15.727  1.00  0.00     0.146 S 
HETATM   20  O   UNL     1     -45.922 -54.384  17.071  1.00  0.00    -0.228 OA
HETATM   21  O   UNL     1     -45.366 -54.854  14.644  1.00  0.00    -0.228 OA
HETATM   22  C   UNL     1     -44.340 -52.733  15.762  1.00  0.00     0.165 C 
ENDBRANCH   4  16
TORSDOF 3
ENDMDL
MODEL 7
REMARK VINA RESULT:      -5.0      2.902      7.683
REMARK  3 active torsions:
REMARK  status: ('A' for Active; 'I' for Inactive)
REMARK    1  A    between atoms: O_2  and  C_3 
REMARK    2  A    between atoms: C_6  and  N_7 
REMARK       I    between atoms: N_7  and  C_8 
REMARK       I    between atoms: C_8  and  N_10 
REMARK    3  A    between atoms: N_10  and  C_11 
ROOT
HETATM    1  N   UNL     1     -41.096 -50.767  11.178  1.00  0.00    -0.308 N 
HETATM    2  C   UNL     1     -41.167 -49.431  11.463  1.00  0.00     0.321 C 
HETATM    3  O   UNL     1     -41.229 -48.935  12.580  1.00  0.00    -0.247 OA
HETATM    4  N   UNL     1     -41.207 -48.633  10.338  1.00  0.00    -0.337 N 
HETATM    5  H   UNL     1     -40.860 -51.036  10.235  1.00  0.00     0.170 HD
HETATM    6  H   UNL     1     -40.791 -48.987   9.490  1.00  0.00     0.164 HD
ENDROOT
BRANCH   1   7
HETATM    7  C   UNL     1     -41.203 -51.795  12.144  1.00  0.00     0.051 A 
HETATM    8  C   UNL     1     -40.147 -52.190  12.966  1.00  0.00     0.035 A 
HETATM    9  C   UNL     1     -40.329 -53.207  13.897  1.00  0.00     0.058 A 
HETATM   10  C   UNL     1     -41.574 -53.798  13.987  1.00  0.00     0.141 A 
HETATM   11  N   UNL     1     -42.629 -53.442  13.223  1.00  0.00    -0.345 N 
HETATM   12  C   UNL     1     -42.419 -52.448  12.327  1.00  0.00     0.119 A 
ATOM     13  HN  UNL     1     -43.538 -53.897  13.316  1.00  0.00     0.167 HD
BRANCH  10  14
HETATM   14  O   UNL     1     -41.701 -54.794  14.934  1.00  0.00    -0.341 OA
HETATM   15  C   UNL     1     -43.056 -55.147  15.182  1.00  0.00     0.211 C 
ENDBRANCH  10  14
ENDBRANCH   1   7
BRANCH   4  16
HETATM   16  C   UNL     1     -41.352 -47.183  10.480  1.00  0.00     0.101 C 
HETATM   17  C   UNL     1     -40.088 -46.517  11.068  1.00  0.00     0.041 C 
HETATM   18  C   UNL     1     -40.473 -45.335  11.949  1.00  0.00     0.142 C 
HETATM   19  S   UNL     1     -42.231 -45.128  11.822  1.00  0.00     0.146 S 
HETATM   20  O   UNL     1     -42.790 -44.901  13.137  1.00  0.00    -0.228 OA
HETATM   21  O   UNL     1     -42.502 -44.243  10.707  1.00  0.00    -0.228 OA
HETATM   22  C   UNL     1     -42.578 -46.781  11.303  1.00  0.00     0.165 C 
ENDBRANCH   4  16
TORSDOF 3
ENDMDL
MODEL 8
REMARK VINA RESULT:      -4.9      3.064      8.311
REMARK  3 active torsions:
REMARK  status: ('A' for Active; 'I' for Inactive)
REMARK    1  A    between atoms: O_2  and  C_3 
REMARK    2  A    between atoms: C_6  and  N_7 
REMARK       I    between atoms: N_7  and  C_8 
REMARK       I    between atoms: C_8  and  N_10 
REMARK    3  A    between atoms: N_10  and  C_11 
ROOT
HETATM    1  N   UNL     1     -43.128 -50.498  12.491  1.00  0.00    -0.308 N 
HETATM    2  C   UNL     1     -42.747 -49.217  12.781  1.00  0.00     0.321 C 
HETATM    3  O   UNL     1     -42.996 -48.608  13.813  1.00  0.00    -0.247 OA
HETATM    4  N   UNL     1     -42.055 -48.606  11.755  1.00  0.00    -0.337 N 
HETATM    5  H   UNL     1     -42.703 -50.948  11.695  1.00  0.00     0.170 HD
HETATM    6  H   UNL     1     -41.547 -49.193  11.111  1.00  0.00     0.164 HD
ENDROOT
BRANCH   1   7
HETATM    7  C   UNL     1     -43.980 -51.280  13.306  1.00  0.00     0.051 A 
HETATM    8  C   UNL     1     -45.372 -51.209  13.254  1.00  0.00     0.035 A 
HETATM    9  C   UNL     1     -46.145 -52.013  14.086  1.00  0.00     0.058 A 
HETATM   10  C   UNL     1     -45.498 -52.879  14.946  1.00  0.00     0.141 A 
HETATM   11  N   UNL     1     -44.154 -52.992  15.024  1.00  0.00    -0.345 N 
HETATM   12  C   UNL     1     -43.431 -52.195  14.201  1.00  0.00     0.119 A 
ATOM     13  HN  UNL     1     -43.707 -53.643  15.669  1.00  0.00     0.167 HD
BRANCH  10  14
HETATM   14  O   UNL     1     -46.312 -53.660  15.740  1.00  0.00    -0.341 OA
HETATM   15  C   UNL     1     -45.744 -53.927  17.016  1.00  0.00     0.211 C 
ENDBRANCH  10  14
ENDBRANCH   1   7
BRANCH   4  16
HETATM   16  C   UNL     1     -41.638 -47.209  11.890  1.00  0.00     0.101 C 
HETATM   17  C   UNL     1     -42.740 -46.218  11.457  1.00  0.00     0.041 C 
HETATM   18  C   UNL     1     -42.120 -44.984  10.812  1.00  0.00     0.142 C 
HETATM   19  S   UNL     1     -40.358 -45.141  10.952  1.00  0.00     0.146 S 
HETATM   20  O   UNL     1     -39.736 -44.778   9.697  1.00  0.00    -0.228 OA
HETATM   21  O   UNL     1     -39.951 -44.551  12.212  1.00  0.00    -0.228 OA
HETATM   22  C   UNL     1     -40.340 -46.898  11.142  1.00  0.00     0.165 C 
ENDBRANCH   4  16
TORSDOF 3
ENDMDL
MODEL 9
REMARK VINA RESULT:      -4.9      2.153      2.628
REMARK  3 active torsions:
REMARK  status: ('A' for Active; 'I' for Inactive)
REMARK    1  A    between atoms: O_2  and  C_3 
REMARK    2  A    between atoms: C_6  and  N_7 
REMARK       I    between atoms: N_7  and  C_8 
REMARK       I    between atoms: C_8  and  N_10 
REMARK    3  A    between atoms: N_10  and  C_11 
ROOT
HETATM    1  N   UNL     1     -42.754 -48.316  14.060  1.00  0.00    -0.308 N 
HETATM    2  C   UNL     1     -43.198 -49.472  13.478  1.00  0.00     0.321 C 
HETATM    3  O   UNL     1     -42.957 -49.841  12.336  1.00  0.00    -0.247 OA
HETATM    4  N   UNL     1     -44.019 -50.218  14.299  1.00  0.00    -0.337 N 
HETATM    5  H   UNL     1     -42.864 -48.218  15.058  1.00  0.00     0.170 HD
HETATM    6  H   UNL     1     -43.907 -50.119  15.297  1.00  0.00     0.164 HD
ENDROOT
BRANCH   1   7
HETATM    7  C   UNL     1     -42.035 -47.306  13.379  1.00  0.00     0.051 A 
HETATM    8  C   UNL     1     -42.645 -46.291  12.643  1.00  0.00     0.035 A 
HETATM    9  C   UNL     1     -41.871 -45.329  12.002  1.00  0.00     0.058 A 
HETATM   10  C   UNL     1     -40.497 -45.405  12.125  1.00  0.00     0.141 A 
HETATM   11  N   UNL     1     -39.861 -46.361  12.836  1.00  0.00    -0.345 N 
HETATM   12  C   UNL     1     -40.644 -47.283  13.448  1.00  0.00     0.119 A 
ATOM     13  HN  UNL     1     -38.844 -46.389  12.910  1.00  0.00     0.167 HD
BRANCH  10  14
HETATM   14  O   UNL     1     -39.778 -44.421  11.479  1.00  0.00    -0.341 OA
HETATM   15  C   UNL     1     -40.462 -43.176  11.439  1.00  0.00     0.211 C 
ENDBRANCH  10  14
ENDBRANCH   1   7
BRANCH   4  16
HETATM   16  C   UNL     1     -44.628 -51.449  13.793  1.00  0.00     0.101 C 
HETATM   17  C   UNL     1     -46.167 -51.445  13.923  1.00  0.00     0.041 C 
HETATM   18  C   UNL     1     -46.678 -52.851  14.215  1.00  0.00     0.142 C 
HETATM   19  S   UNL     1     -45.284 -53.947  14.147  1.00  0.00     0.146 S 
HETATM   20  O   UNL     1     -45.333 -54.867  15.263  1.00  0.00    -0.228 OA
HETATM   21  O   UNL     1     -45.135 -54.405  12.780  1.00  0.00    -0.228 OA
HETATM   22  C   UNL     1     -44.058 -52.711  14.445  1.00  0.00     0.165 C 
ENDBRANCH   4  16
TORSDOF 3
ENDMDL
