MODEL 1
REMARK VINA RESULT:      -5.9      0.000      0.000
REMARK  4 active torsions:
REMARK  status: ('A' for Active; 'I' for Inactive)
REMARK       I    between atoms: C_2  and  N_3 
REMARK       I    between atoms: C_2  and  N_8 
REMARK    1  A    between atoms: N_3  and  C_4 
REMARK    2  A    between atoms: C_4  and  C_5 
REMARK    3  A    between atoms: N_8  and  C_9 
REMARK    4  A    between atoms: C_12  and  N_16 
ROOT
HETATM    1  C   UNL     1     -40.623 -50.644  11.705  1.00  0.00     0.051 A 
HETATM    2  C   UNL     1     -39.588 -50.697  12.626  1.00  0.00     0.035 A 
HETATM    3  C   UNL     1     -39.448 -51.816  13.449  1.00  0.00     0.051 A 
HETATM    4  C   UNL     1     -40.340 -52.881  13.357  1.00  0.00     0.103 A 
HETATM    5  N   UNL     1     -41.362 -52.827  12.475  1.00  0.00    -0.350 N 
ATOM      6  HN  UNL     1     -42.022 -53.600  12.397  1.00  0.00     0.166 HD
HETATM    7  C   UNL     1     -41.492 -51.724  11.694  1.00  0.00     0.119 A 
ENDROOT
BRANCH   1   8
HETATM    8  N   UNL     1     -40.811 -49.578  10.800  1.00  0.00    -0.308 N 
HETATM    9  C   UNL     1     -41.691 -48.534  10.974  1.00  0.00     0.320 C 
HETATM   10  O   UNL     1     -42.432 -48.360  11.935  1.00  0.00    -0.247 OA
HETATM   11  N   UNL     1     -41.605 -47.630   9.941  1.00  0.00    -0.342 N 
HETATM   12  H   UNL     1     -41.400 -48.008   9.029  1.00  0.00     0.164 HD
HETATM   13  H   UNL     1     -40.084 -49.421  10.118  1.00  0.00     0.170 HD
BRANCH  11  14
HETATM   14  C   UNL     1     -42.403 -46.425   9.986  1.00  0.00     0.129 C 
BRANCH  14  15
HETATM   15  C   UNL     1     -43.313 -46.392   8.802  1.00  0.00     0.003 A 
HETATM   16  C   UNL     1     -44.699 -46.986   8.889  1.00  0.00     0.007 A 
HETATM   17  C   UNL     1     -43.645 -47.665   8.064  1.00  0.00     0.007 A 
ENDBRANCH  14  15
ENDBRANCH  11  14
ENDBRANCH   1   8
BRANCH   4  18
HETATM   18  N   UNL     1     -40.233 -53.995  14.162  1.00  0.00    -0.367 N 
HETATM   19  C   UNL     1     -41.423 -54.489  14.848  1.00  0.00     0.124 C 
HETATM   20  C   UNL     1     -41.089 -54.790  16.309  1.00  0.00     0.020 C 
HETATM   21  C   UNL     1     -39.858 -55.686  16.434  1.00  0.00     0.003 C 
HETATM   22  C   UNL     1     -38.678 -55.103  15.660  1.00  0.00     0.020 C 
HETATM   23  C   UNL     1     -39.049 -54.842  14.201  1.00  0.00     0.124 C 
ENDBRANCH   4  18
TORSDOF 4
ENDMDL
MODEL 2
REMARK VINA RESULT:      -5.8      3.110      7.801
REMARK  4 active torsions:
REMARK  status: ('A' for Active; 'I' for Inactive)
REMARK       I    between atoms: C_2  and  N_3 
REMARK       I    between atoms: C_2  and  N_8 
REMARK    1  A    between atoms: N_3  and  C_4 
REMARK    2  A    between atoms: C_4  and  C_5 
REMARK    3  A    between atoms: N_8  and  C_9 
REMARK    4  A    between atoms: C_12  and  N_16 
ROOT
HETATM    1  C   UNL     1     -40.992 -49.608  11.546  1.00  0.00     0.051 A 
HETATM    2  C   UNL     1     -39.753 -49.274  12.070  1.00  0.00     0.035 A 
HETATM    3  C   UNL     1     -39.380 -47.932  12.167  1.00  0.00     0.051 A 
HETATM    4  C   UNL     1     -40.240 -46.924  11.742  1.00  0.00     0.103 A 
HETATM    5  N   UNL     1     -41.442 -47.243  11.214  1.00  0.00    -0.350 N 
ATOM      6  HN  UNL     1     -42.081 -46.515  10.898  1.00  0.00     0.166 HD
HETATM    7  C   UNL     1     -41.780 -48.554  11.111  1.00  0.00     0.119 A 
ENDROOT
BRANCH   1   8
HETATM    8  N   UNL     1     -41.473 -50.932  11.455  1.00  0.00    -0.308 N 
HETATM    9  C   UNL     1     -41.922 -51.688  12.515  1.00  0.00     0.320 C 
HETATM   10  O   UNL     1     -41.985 -51.334  13.686  1.00  0.00    -0.247 OA
HETATM   11  N   UNL     1     -42.372 -52.918  12.094  1.00  0.00    -0.342 N 
HETATM   12  H   UNL     1     -41.888 -53.330  11.312  1.00  0.00     0.164 HD
HETATM   13  H   UNL     1     -41.756 -51.256  10.542  1.00  0.00     0.170 HD
BRANCH  11  14
HETATM   14  C   UNL     1     -42.951 -53.827  13.059  1.00  0.00     0.129 C 
BRANCH  14  15
HETATM   15  C   UNL     1     -44.419 -53.942  12.808  1.00  0.00     0.003 A 
HETATM   16  C   UNL     1     -45.409 -53.436  13.829  1.00  0.00     0.007 A 
HETATM   17  C   UNL     1     -45.253 -54.912  13.609  1.00  0.00     0.007 A 
ENDBRANCH  14  15
ENDBRANCH  11  14
ENDBRANCH   1   8
BRANCH   4  18
HETATM   18  N   UNL     1     -39.897 -45.591  11.819  1.00  0.00    -0.367 N 
HETATM   19  C   UNL     1     -39.213 -45.104  13.013  1.00  0.00     0.124 C 
HETATM   20  C   UNL     1     -39.861 -43.803  13.485  1.00  0.00     0.020 C 
HETATM   21  C   UNL     1     -39.976 -42.784  12.352  1.00  0.00     0.003 C 
HETATM   22  C   UNL     1     -40.675 -43.395  11.139  1.00  0.00     0.020 C 
HETATM   23  C   UNL     1     -39.979 -44.678  10.687  1.00  0.00     0.124 C 
ENDBRANCH   4  18
TORSDOF 4
ENDMDL
MODEL 3
REMARK VINA RESULT:      -5.8      2.462      8.487
REMARK  4 active torsions:
REMARK  status: ('A' for Active; 'I' for Inactive)
REMARK       I    between atoms: C_2  and  N_3 
REMARK       I    between atoms: C_2  and  N_8 
REMARK    1  A    between atoms: N_3  and  C_4 
REMARK    2  A    between atoms: C_4  and  C_5 
REMARK    3  A    between atoms: N_8  and  C_9 
REMARK    4  A    between atoms: C_12  and  N_16 
ROOT
HETATM    1  C   UNL     1     -40.838 -48.881  10.997  1.00  0.00     0.051 A 
HETATM    2  C   UNL     1     -39.926 -48.092  11.681  1.00  0.00     0.035 A 
HETATM    3  C   UNL     1     -40.087 -46.705  11.700  1.00  0.00     0.051 A 
HETATM    4  C   UNL     1     -41.153 -46.105  11.038  1.00  0.00     0.103 A 
HETATM    5  N   UNL     1     -42.035 -46.866  10.354  1.00  0.00    -0.350 N 
ATOM      6  HN  UNL     1     -42.820 -46.439   9.865  1.00  0.00     0.166 HD
HETATM    7  C   UNL     1     -41.854 -48.211  10.332  1.00  0.00     0.119 A 
ENDROOT
BRANCH   1   8
HETATM    8  N   UNL     1     -40.784 -50.290  10.964  1.00  0.00    -0.308 N 
HETATM    9  C   UNL     1     -41.276 -51.127  11.941  1.00  0.00     0.320 C 
HETATM   10  O   UNL     1     -41.839 -50.786  12.974  1.00  0.00    -0.247 OA
HETATM   11  N   UNL     1     -41.117 -52.449  11.593  1.00  0.00    -0.342 N 
HETATM   12  H   UNL     1     -40.292 -52.677  11.061  1.00  0.00     0.164 HD
HETATM   13  H   UNL     1     -40.621 -50.723  10.067  1.00  0.00     0.170 HD
BRANCH  11  14
HETATM   14  C   UNL     1     -41.640 -53.477  12.464  1.00  0.00     0.129 C 
BRANCH  14  15
HETATM   15  C   UNL     1     -40.506 -54.168  13.149  1.00  0.00     0.003 A 
HETATM   16  C   UNL     1     -40.528 -54.368  14.646  1.00  0.00     0.007 A 
HETATM   17  C   UNL     1     -39.568 -53.388  14.037  1.00  0.00     0.007 A 
ENDBRANCH  14  15
ENDBRANCH  11  14
ENDBRANCH   1   8
BRANCH   4  18
HETATM   18  N   UNL     1     -41.333 -44.737  11.033  1.00  0.00    -0.367 N 
HETATM   19  C   UNL     1     -40.164 -43.871  10.908  1.00  0.00     0.124 C 
HETATM   20  C   UNL     1     -40.243 -42.745  11.939  1.00  0.00     0.020 C 
HETATM   21  C   UNL     1     -41.587 -42.021  11.884  1.00  0.00     0.003 C 
HETATM   22  C   UNL     1     -42.745 -43.012  11.991  1.00  0.00     0.020 C 
HETATM   23  C   UNL     1     -42.639 -44.104  10.927  1.00  0.00     0.124 C 
ENDBRANCH   4  18
TORSDOF 4
ENDMDL
MODEL 4
REMARK VINA RESULT:      -5.8      3.427      4.325
REMARK  4 active torsions:
REMARK  status: ('A' for Active; 'I' for Inactive)
REMARK       I    between atoms: C_2  and  N_3 
REMARK       I    between atoms: C_2  and  N_8 
REMARK    1  A    between atoms: N_3  and  C_4 
REMARK    2  A    between atoms: C_4  and  C_5 
REMARK    3  A    between atoms: N_8  and  C_9 
REMARK    4  A    between atoms: C_12  and  N_16 
ROOT
HETATM    1  C   UNL     1     -40.345 -48.914  11.779  1.00  0.00     0.051 A 
HETATM    2  C   UNL     1     -38.999 -48.602  11.660  1.00  0.00     0.035 A 
HETATM    3  C   UNL     1     -38.170 -48.668  12.782  1.00  0.00     0.051 A 
HETATM    4  C   UNL     1     -38.681 -49.043  14.021  1.00  0.00     0.103 A 
HETATM    5  N   UNL     1     -39.995 -49.332  14.147  1.00  0.00    -0.350 N 
ATOM      6  HN  UNL     1     -40.382 -49.608  15.049  1.00  0.00     0.166 HD
HETATM    7  C   UNL     1     -40.789 -49.246  13.050  1.00  0.00     0.119 A 
ENDROOT
BRANCH   1   8
HETATM    8  N   UNL     1     -41.245 -48.924  10.692  1.00  0.00    -0.308 N 
HETATM    9  C   UNL     1     -42.204 -47.966  10.446  1.00  0.00     0.320 C 
HETATM   10  O   UNL     1     -42.417 -46.963  11.116  1.00  0.00    -0.247 OA
HETATM   11  N   UNL     1     -42.887 -48.232   9.283  1.00  0.00    -0.342 N 
HETATM   12  H   UNL     1     -43.035 -49.204   9.060  1.00  0.00     0.164 HD
HETATM   13  H   UNL     1     -41.009 -49.511   9.906  1.00  0.00     0.170 HD
BRANCH  11  14
HETATM   14  C   UNL     1     -43.887 -47.295   8.820  1.00  0.00     0.129 C 
BRANCH  14  15
HETATM   15  C   UNL     1     -45.213 -47.661   9.402  1.00  0.00     0.003 A 
HETATM   16  C   UNL     1     -46.278 -48.290   8.535  1.00  0.00     0.007 A 
HETATM   17  C   UNL     1     -46.449 -46.882   9.026  1.00  0.00     0.007 A 
ENDBRANCH  14  15
ENDBRANCH  11  14
ENDBRANCH   1   8
BRANCH   4  18
HETATM   18  N   UNL     1     -37.889 -49.110  15.148  1.00  0.00    -0.367 N 
HETATM   19  C   UNL     1     -37.605 -47.882  15.886  1.00  0.00     0.124 C 
HETATM   20  C   UNL     1     -36.115 -47.811  16.216  1.00  0.00     0.020 C 
HETATM   21  C   UNL     1     -35.622 -49.092  16.887  1.00  0.00     0.003 C 
HETATM   22  C   UNL     1     -35.993 -50.320  16.058  1.00  0.00     0.020 C 
HETATM   23  C   UNL     1     -37.494 -50.363  15.774  1.00  0.00     0.124 C 
ENDBRANCH   4  18
TORSDOF 4
ENDMDL
MODEL 5
REMARK VINA RESULT:      -5.7      3.161      8.654
REMARK  4 active torsions:
REMARK  status: ('A' for Active; 'I' for Inactive)
REMARK       I    between atoms: C_2  and  N_3 
REMARK       I    between atoms: C_2  and  N_8 
REMARK    1  A    between atoms: N_3  and  C_4 
REMARK    2  A    between atoms: C_4  and  C_5 
REMARK    3  A    between atoms: N_8  and  C_9 
REMARK    4  A    between atoms: C_12  and  N_16 
ROOT
HETATM    1  C   UNL     1     -41.751 -48.093  11.165  1.00  0.00     0.051 A 
HETATM    2  C   UNL     1     -40.559 -47.400  11.302  1.00  0.00     0.035 A 
HETATM    3  C   UNL     1     -40.565 -46.003  11.303  1.00  0.00     0.051 A 
HETATM    4  C   UNL     1     -41.757 -45.299  11.166  1.00  0.00     0.103 A 
HETATM    5  N   UNL     1     -42.921 -45.968  11.015  1.00  0.00    -0.350 N 
ATOM      6  HN  UNL     1     -43.801 -45.465  10.914  1.00  0.00     0.166 HD
HETATM    7  C   UNL     1     -42.894 -47.325  10.999  1.00  0.00     0.119 A 
ENDROOT
BRANCH   1   8
HETATM    8  N   UNL     1     -41.847 -49.500  11.203  1.00  0.00    -0.308 N 
HETATM    9  C   UNL     1     -42.282 -50.238  12.281  1.00  0.00     0.320 C 
HETATM   10  O   UNL     1     -42.660 -49.797  13.360  1.00  0.00    -0.247 OA
HETATM   11  N   UNL     1     -42.310 -51.582  11.988  1.00  0.00    -0.342 N 
HETATM   12  H   UNL     1     -41.594 -51.921  11.364  1.00  0.00     0.164 HD
HETATM   13  H   UNL     1     -41.855 -49.984  10.317  1.00  0.00     0.170 HD
BRANCH  11  14
HETATM   14  C   UNL     1     -42.810 -52.512  12.976  1.00  0.00     0.129 C 
BRANCH  14  15
HETATM   15  C   UNL     1     -43.963 -53.269  12.402  1.00  0.00     0.003 A 
HETATM   16  C   UNL     1     -45.354 -53.075  12.956  1.00  0.00     0.007 A 
HETATM   17  C   UNL     1     -44.625 -54.364  13.200  1.00  0.00     0.007 A 
ENDBRANCH  14  15
ENDBRANCH  11  14
ENDBRANCH   1   8
BRANCH   4  18
HETATM   18  N   UNL     1     -41.794 -43.920  11.156  1.00  0.00    -0.367 N 
HETATM   19  C   UNL     1     -40.536 -43.180  11.127  1.00  0.00     0.124 C 
HETATM   20  C   UNL     1     -40.578 -42.050  12.156  1.00  0.00     0.020 C 
HETATM   21  C   UNL     1     -41.832 -41.191  12.000  1.00  0.00     0.003 C 
HETATM   22  C   UNL     1     -43.091 -42.056  12.010  1.00  0.00     0.020 C 
HETATM   23  C   UNL     1     -43.015 -43.155  10.951  1.00  0.00     0.124 C 
ENDBRANCH   4  18
TORSDOF 4
ENDMDL
MODEL 6
REMARK VINA RESULT:      -5.6      2.349      3.134
REMARK  4 active torsions:
REMARK  status: ('A' for Active; 'I' for Inactive)
REMARK       I    between atoms: C_2  and  N_3 
REMARK       I    between atoms: C_2  and  N_8 
REMARK    1  A    between atoms: N_3  and  C_4 
REMARK    2  A    between atoms: C_4  and  C_5 
REMARK    3  A    between atoms: N_8  and  C_9 
REMARK    4  A    between atoms: C_12  and  N_16 
ROOT
HETATM    1  C   UNL     1     -40.874 -49.167  11.362  1.00  0.00     0.051 A 
HETATM    2  C   UNL     1     -41.970 -49.658  12.055  1.00  0.00     0.035 A 
HETATM    3  C   UNL     1     -41.873 -50.873  12.735  1.00  0.00     0.051 A 
HETATM    4  C   UNL     1     -40.687 -51.600  12.724  1.00  0.00     0.103 A 
HETATM    5  N   UNL     1     -39.621 -51.137  12.036  1.00  0.00    -0.350 N 
ATOM      6  HN  UNL     1     -38.746 -51.659  12.020  1.00  0.00     0.166 HD
HETATM    7  C   UNL     1     -39.738 -49.962  11.367  1.00  0.00     0.119 A 
ENDROOT
BRANCH   1   8
HETATM    8  N   UNL     1     -40.864 -47.927  10.689  1.00  0.00    -0.308 N 
HETATM    9  C   UNL     1     -40.303 -46.766  11.172  1.00  0.00     0.320 C 
HETATM   10  O   UNL     1     -39.722 -46.629  12.242  1.00  0.00    -0.247 OA
HETATM   11  N   UNL     1     -40.412 -45.742  10.259  1.00  0.00    -0.342 N 
HETATM   12  H   UNL     1     -41.243 -45.736   9.688  1.00  0.00     0.164 HD
HETATM   13  H   UNL     1     -41.037 -47.943   9.695  1.00  0.00     0.170 HD
BRANCH  11  14
HETATM   14  C   UNL     1     -39.814 -44.460  10.559  1.00  0.00     0.129 C 
BRANCH  14  15
HETATM   15  C   UNL     1     -40.863 -43.538  11.087  1.00  0.00     0.003 A 
HETATM   16  C   UNL     1     -40.471 -42.276  11.818  1.00  0.00     0.007 A 
HETATM   17  C   UNL     1     -41.090 -43.416  12.574  1.00  0.00     0.007 A 
ENDBRANCH  14  15
ENDBRANCH  11  14
ENDBRANCH   1   8
BRANCH   4  18
HETATM   18  N   UNL     1     -40.564 -52.807  13.380  1.00  0.00    -0.367 N 
HETATM   19  C   UNL     1     -41.590 -53.827  13.182  1.00  0.00     0.124 C 
HETATM   20  C   UNL     1     -41.998 -54.418  14.531  1.00  0.00     0.020 C 
HETATM   21  C   UNL     1     -40.784 -54.877  15.338  1.00  0.00     0.003 C 
HETATM   22  C   UNL     1     -39.756 -53.754  15.463  1.00  0.00     0.020 C 
HETATM   23  C   UNL     1     -39.360 -53.211  14.091  1.00  0.00     0.124 C 
ENDBRANCH   4  18
TORSDOF 4
ENDMDL
MODEL 7
REMARK VINA RESULT:      -5.6      2.677      3.793
REMARK  4 active torsions:
REMARK  status: ('A' for Active; 'I' for Inactive)
REMARK       I    between atoms: C_2  and  N_3 
REMARK       I    between atoms: C_2  and  N_8 
REMARK    1  A    between atoms: N_3  and  C_4 
REMARK    2  A    between atoms: C_4  and  C_5 
REMARK    3  A    between atoms: N_8  and  C_9 
REMARK    4  A    between atoms: C_12  and  N_16 
ROOT
HETATM    1  C   UNL     1     -41.509 -49.182  11.467  1.00  0.00     0.051 A 
HETATM    2  C   UNL     1     -40.749 -50.323  11.676  1.00  0.00     0.035 A 
HETATM    3  C   UNL     1     -41.298 -51.405  12.366  1.00  0.00     0.051 A 
HETATM    4  C   UNL     1     -42.602 -51.352  12.849  1.00  0.00     0.103 A 
HETATM    5  N   UNL     1     -43.342 -50.237  12.665  1.00  0.00    -0.350 N 
ATOM      6  HN  UNL     1     -44.299 -50.184  13.013  1.00  0.00     0.166 HD
HETATM    7  C   UNL     1     -42.787 -49.188  12.007  1.00  0.00     0.119 A 
ENDROOT
BRANCH   1   8
HETATM    8  N   UNL     1     -41.057 -48.062  10.739  1.00  0.00    -0.308 N 
HETATM    9  C   UNL     1     -40.501 -46.928  11.289  1.00  0.00     0.320 C 
HETATM   10  O   UNL     1     -40.305 -46.719  12.480  1.00  0.00    -0.247 OA
HETATM   11  N   UNL     1     -40.114 -46.038  10.314  1.00  0.00    -0.342 N 
HETATM   12  H   UNL     1     -40.686 -46.004   9.484  1.00  0.00     0.164 HD
HETATM   13  H   UNL     1     -40.880 -48.196   9.754  1.00  0.00     0.170 HD
BRANCH  11  14
HETATM   14  C   UNL     1     -39.442 -44.817  10.698  1.00  0.00     0.129 C 
BRANCH  14  15
HETATM   15  C   UNL     1     -40.429 -43.696  10.717  1.00  0.00     0.003 A 
HETATM   16  C   UNL     1     -40.330 -42.612  11.764  1.00  0.00     0.007 A 
HETATM   17  C   UNL     1     -41.454 -43.605  11.820  1.00  0.00     0.007 A 
ENDBRANCH  14  15
ENDBRANCH  11  14
ENDBRANCH   1   8
BRANCH   4  18
HETATM   18  N   UNL     1     -43.168 -52.402  13.541  1.00  0.00    -0.367 N 
HETATM   19  C   UNL     1     -42.403 -53.039  14.609  1.00  0.00     0.124 C 
HETATM   20  C   UNL     1     -42.489 -54.558  14.471  1.00  0.00     0.020 C 
HETATM   21  C   UNL     1     -43.935 -55.034  14.345  1.00  0.00     0.003 C 
HETATM   22  C   UNL     1     -44.659 -54.290  13.225  1.00  0.00     0.020 C 
HETATM   23  C   UNL     1     -44.569 -52.777  13.418  1.00  0.00     0.124 C 
ENDBRANCH   4  18
TORSDOF 4
ENDMDL
MODEL 8
REMARK VINA RESULT:      -5.5      1.540      2.300
REMARK  4 active torsions:
REMARK  status: ('A' for Active; 'I' for Inactive)
REMARK       I    between atoms: C_2  and  N_3 
REMARK       I    between atoms: C_2  and  N_8 
REMARK    1  A    between atoms: N_3  and  C_4 
REMARK    2  A    between atoms: C_4  and  C_5 
REMARK    3  A    between atoms: N_8  and  C_9 
REMARK    4  A    between atoms: C_12  and  N_16 
ROOT
HETATM    1  C   UNL     1     -40.578 -51.123  11.879  1.00  0.00     0.051 A 
HETATM    2  C   UNL     1     -41.540 -52.121  11.887  1.00  0.00     0.035 A 
HETATM    3  C   UNL     1     -41.436 -53.178  12.794  1.00  0.00     0.051 A 
HETATM    4  C   UNL     1     -40.373 -53.243  13.690  1.00  0.00     0.103 A 
HETATM    5  N   UNL     1     -39.422 -52.284  13.675  1.00  0.00    -0.350 N 
ATOM      6  HN  UNL     1     -38.638 -52.319  14.326  1.00  0.00     0.166 HD
HETATM    7  C   UNL     1     -39.530 -51.273  12.776  1.00  0.00     0.119 A 
ENDROOT
BRANCH   1   8
HETATM    8  N   UNL     1     -40.628 -49.994  11.035  1.00  0.00    -0.308 N 
HETATM    9  C   UNL     1     -41.106 -48.754  11.395  1.00  0.00     0.320 C 
HETATM   10  O   UNL     1     -41.549 -48.436  12.493  1.00  0.00    -0.247 OA
HETATM   11  N   UNL     1     -40.973 -47.850  10.367  1.00  0.00    -0.342 N 
HETATM   12  H   UNL     1     -41.081 -48.213   9.433  1.00  0.00     0.164 HD
HETATM   13  H   UNL     1     -40.043 -50.009  10.213  1.00  0.00     0.170 HD
BRANCH  11  14
HETATM   14  C   UNL     1     -41.355 -46.472  10.583  1.00  0.00     0.129 C 
BRANCH  14  15
HETATM   15  C   UNL     1     -40.142 -45.671  10.925  1.00  0.00     0.003 A 
HETATM   16  C   UNL     1     -40.193 -44.162  10.904  1.00  0.00     0.007 A 
HETATM   17  C   UNL     1     -39.414 -44.898   9.853  1.00  0.00     0.007 A 
ENDBRANCH  14  15
ENDBRANCH  11  14
ENDBRANCH   1   8
BRANCH   4  18
HETATM   18  N   UNL     1     -40.239 -54.278  14.590  1.00  0.00    -0.367 N 
HETATM   19  C   UNL     1     -41.427 -54.773  15.281  1.00  0.00     0.124 C 
HETATM   20  C   UNL     1     -41.128 -54.933  16.771  1.00  0.00     0.020 C 
HETATM   21  C   UNL     1     -39.860 -55.751  17.009  1.00  0.00     0.003 C 
HETATM   22  C   UNL     1     -38.684 -55.176  16.222  1.00  0.00     0.020 C 
HETATM   23  C   UNL     1     -39.018 -55.058  14.736  1.00  0.00     0.124 C 
ENDBRANCH   4  18
TORSDOF 4
ENDMDL
MODEL 9
REMARK VINA RESULT:      -5.4      4.198     10.139
REMARK  4 active torsions:
REMARK  status: ('A' for Active; 'I' for Inactive)
REMARK       I    between atoms: C_2  and  N_3 
REMARK       I    between atoms: C_2  and  N_8 
REMARK    1  A    between atoms: N_3  and  C_4 
REMARK    2  A    between atoms: C_4  and  C_5 
REMARK    3  A    between atoms: N_8  and  C_9 
REMARK    4  A    between atoms: C_12  and  N_16 
ROOT
HETATM    1  C   UNL     1     -40.910 -45.428  10.768  1.00  0.00     0.051 A 
HETATM    2  C   UNL     1     -40.045 -44.348  10.845  1.00  0.00     0.035 A 
HETATM    3  C   UNL     1     -40.547 -43.076  11.131  1.00  0.00     0.051 A 
HETATM    4  C   UNL     1     -41.909 -42.881  11.338  1.00  0.00     0.103 A 
HETATM    5  N   UNL     1     -42.760 -43.927  11.245  1.00  0.00    -0.350 N 
ATOM      6  HN  UNL     1     -43.760 -43.798  11.394  1.00  0.00     0.166 HD
HETATM    7  C   UNL     1     -42.256 -45.152  10.950  1.00  0.00     0.119 A 
ENDROOT
BRANCH   1   8
HETATM    8  N   UNL     1     -40.487 -46.754  10.534  1.00  0.00    -0.308 N 
HETATM    9  C   UNL     1     -40.132 -47.658  11.510  1.00  0.00     0.320 C 
HETATM   10  O   UNL     1     -40.137 -47.462  12.719  1.00  0.00    -0.247 OA
HETATM   11  N   UNL     1     -39.817 -48.882  10.966  1.00  0.00    -0.342 N 
HETATM   12  H   UNL     1     -39.371 -48.870  10.062  1.00  0.00     0.164 HD
HETATM   13  H   UNL     1     -40.707 -47.154   9.634  1.00  0.00     0.170 HD
BRANCH  11  14
HETATM   14  C   UNL     1     -39.489 -49.983  11.844  1.00  0.00     0.129 C 
BRANCH  14  15
HETATM   15  C   UNL     1     -38.043 -49.908  12.210  1.00  0.00     0.003 A 
HETATM   16  C   UNL     1     -37.312 -51.142  12.683  1.00  0.00     0.007 A 
HETATM   17  C   UNL     1     -37.617 -50.037  13.652  1.00  0.00     0.007 A 
ENDBRANCH  14  15
ENDBRANCH  11  14
ENDBRANCH   1   8
BRANCH   4  18
HETATM   18  N   UNL     1     -42.435 -41.637  11.613  1.00  0.00    -0.367 N 
HETATM   19  C   UNL     1     -43.782 -41.545  12.170  1.00  0.00     0.124 C 
HETATM   20  C   UNL     1     -44.577 -40.473  11.426  1.00  0.00     0.020 C 
HETATM   21  C   UNL     1     -43.817 -39.148  11.362  1.00  0.00     0.003 C 
HETATM   22  C   UNL     1     -42.413 -39.351  10.797  1.00  0.00     0.020 C 
HETATM   23  C   UNL     1     -41.647 -40.413  11.586  1.00  0.00     0.124 C 
ENDBRANCH   4  18
TORSDOF 4
ENDMDL
