MODEL 1
REMARK VINA RESULT:      -6.2      0.000      0.000
REMARK  7 active torsions:
REMARK  status: ('A' for Active; 'I' for Inactive)
REMARK    1  A    between atoms: O_2  and  C_3 
REMARK    2  A    between atoms: C_3  and  C_4 
REMARK    3  A    between atoms: C_4  and  N_5 
REMARK    4  A    between atoms: C_6  and  C_15 
REMARK    5  A    between atoms: C_17  and  O_18 
REMARK    6  A    between atoms: C_20  and  O_21 
REMARK    7  A    between atoms: C_22  and  O_23 
ROOT
HETATM    1  N   UNL     1     -40.879 -49.321  12.619  1.00  0.00    -0.329 N 
HETATM    2  C   UNL     1     -40.695 -48.435  11.556  1.00  0.00     0.119 A 
HETATM    3  N   UNL     1     -39.450 -48.594  11.097  1.00  0.00    -0.340 N 
ATOM      4  HN  UNL     1     -39.021 -48.070  10.334  1.00  0.00     0.167 HD
HETATM    5  C   UNL     1     -38.850 -49.584  11.832  1.00  0.00     0.060 A 
HETATM    6  C   UNL     1     -37.544 -50.095  11.790  1.00  0.00     0.032 A 
HETATM    7  C   UNL     1     -37.170 -51.094  12.702  1.00  0.00     0.002 A 
HETATM    8  C   UNL     1     -38.089 -51.614  13.609  1.00  0.00     0.002 A 
HETATM    9  C   UNL     1     -39.402 -51.146  13.632  1.00  0.00     0.032 A 
HETATM   10  C   UNL     1     -39.739 -50.101  12.757  1.00  0.00     0.063 A 
ENDROOT
BRANCH   2  11
HETATM   11  C   UNL     1     -41.611 -47.408  10.968  1.00  0.00     0.014 A 
HETATM   12  C   UNL     1     -41.525 -46.037  11.225  1.00  0.00     0.055 A 
HETATM   13  C   UNL     1     -42.350 -45.097  10.604  1.00  0.00     0.105 A 
HETATM   14  C   UNL     1     -43.350 -45.523   9.730  1.00  0.00     0.133 A 
HETATM   15  C   UNL     1     -43.525 -46.883   9.472  1.00  0.00     0.105 A 
HETATM   16  C   UNL     1     -42.646 -47.804  10.090  1.00  0.00     0.055 A 
BRANCH  13  17
HETATM   17  O   UNL     1     -42.269 -43.735  10.793  1.00  0.00    -0.353 OA
HETATM   18  C   UNL     1     -40.992 -43.214  11.165  1.00  0.00     0.210 C 
ENDBRANCH  13  17
BRANCH  14  19
HETATM   19  O   UNL     1     -44.139 -44.557   9.162  1.00  0.00    -0.356 OA
HETATM   20  H   UNL     1     -43.513 -43.895   8.795  1.00  0.00     0.218 HD
ENDBRANCH  14  19
BRANCH  15  21
HETATM   21  O   UNL     1     -44.463 -47.467   8.667  1.00  0.00    -0.353 OA
HETATM   22  C   UNL     1     -45.769 -47.668   9.202  1.00  0.00     0.210 C 
ENDBRANCH  15  21
ENDBRANCH   2  11
BRANCH   1  23
HETATM   23  C   UNL     1     -41.950 -49.477  13.583  1.00  0.00     0.157 C 
BRANCH  23  24
HETATM   24  C   UNL     1     -43.118 -50.309  13.061  1.00  0.00     0.187 C 
BRANCH  24  25
HETATM   25  O   UNL     1     -42.984 -51.646  13.547  1.00  0.00    -0.394 OA
HETATM   26  C   UNL     1     -42.727 -52.549  12.477  1.00  0.00     0.201 C 
ENDBRANCH  24  25
ENDBRANCH  23  24
ENDBRANCH   1  23
TORSDOF 7
ENDMDL
MODEL 2
REMARK VINA RESULT:      -6.2      3.643      6.550
REMARK  7 active torsions:
REMARK  status: ('A' for Active; 'I' for Inactive)
REMARK    1  A    between atoms: O_2  and  C_3 
REMARK    2  A    between atoms: C_3  and  C_4 
REMARK    3  A    between atoms: C_4  and  N_5 
REMARK    4  A    between atoms: C_6  and  C_15 
REMARK    5  A    between atoms: C_17  and  O_18 
REMARK    6  A    between atoms: C_20  and  O_21 
REMARK    7  A    between atoms: C_22  and  O_23 
ROOT
HETATM    1  N   UNL     1     -45.539 -51.184  14.216  1.00  0.00    -0.329 N 
HETATM    2  C   UNL     1     -44.248 -50.666  14.343  1.00  0.00     0.119 A 
HETATM    3  N   UNL     1     -44.095 -50.243  15.600  1.00  0.00    -0.340 N 
ATOM      4  HN  UNL     1     -43.261 -49.800  15.986  1.00  0.00     0.167 HD
HETATM    5  C   UNL     1     -45.254 -50.508  16.282  1.00  0.00     0.060 A 
HETATM    6  C   UNL     1     -45.630 -50.219  17.603  1.00  0.00     0.032 A 
HETATM    7  C   UNL     1     -46.917 -50.565  18.040  1.00  0.00     0.002 A 
HETATM    8  C   UNL     1     -47.803 -51.231  17.198  1.00  0.00     0.002 A 
HETATM    9  C   UNL     1     -47.427 -51.563  15.898  1.00  0.00     0.032 A 
HETATM   10  C   UNL     1     -46.160 -51.150  15.457  1.00  0.00     0.063 A 
ENDROOT
BRANCH   2  11
HETATM   11  C   UNL     1     -43.156 -50.503  13.332  1.00  0.00     0.014 A 
HETATM   12  C   UNL     1     -42.972 -49.361  12.549  1.00  0.00     0.055 A 
HETATM   13  C   UNL     1     -41.900 -49.212  11.667  1.00  0.00     0.105 A 
HETATM   14  C   UNL     1     -40.991 -50.258  11.497  1.00  0.00     0.133 A 
HETATM   15  C   UNL     1     -41.151 -51.448  12.209  1.00  0.00     0.105 A 
HETATM   16  C   UNL     1     -42.227 -51.548  13.122  1.00  0.00     0.055 A 
BRANCH  13  17
HETATM   17  O   UNL     1     -41.654 -48.086  10.913  1.00  0.00    -0.353 OA
HETATM   18  C   UNL     1     -42.663 -47.711   9.973  1.00  0.00     0.210 C 
ENDBRANCH  13  17
BRANCH  14  19
HETATM   19  O   UNL     1     -39.969 -50.060  10.607  1.00  0.00    -0.356 OA
HETATM   20  H   UNL     1     -40.321 -50.354   9.739  1.00  0.00     0.218 HD
ENDBRANCH  14  19
BRANCH  15  21
HETATM   21  O   UNL     1     -40.372 -52.570  12.143  1.00  0.00    -0.353 OA
HETATM   22  C   UNL     1     -40.846 -53.748  12.790  1.00  0.00     0.210 C 
ENDBRANCH  15  21
ENDBRANCH   2  11
BRANCH   1  23
HETATM   23  C   UNL     1     -46.303 -51.627  13.067  1.00  0.00     0.157 C 
BRANCH  23  24
HETATM   24  C   UNL     1     -45.687 -52.832  12.359  1.00  0.00     0.187 C 
BRANCH  24  25
HETATM   25  O   UNL     1     -45.800 -53.973  13.212  1.00  0.00    -0.394 OA
HETATM   26  C   UNL     1     -44.516 -54.518  13.500  1.00  0.00     0.201 C 
ENDBRANCH  24  25
ENDBRANCH  23  24
ENDBRANCH   1  23
TORSDOF 7
ENDMDL
MODEL 3
REMARK VINA RESULT:      -6.1      0.394      2.531
REMARK  7 active torsions:
REMARK  status: ('A' for Active; 'I' for Inactive)
REMARK    1  A    between atoms: O_2  and  C_3 
REMARK    2  A    between atoms: C_3  and  C_4 
REMARK    3  A    between atoms: C_4  and  N_5 
REMARK    4  A    between atoms: C_6  and  C_15 
REMARK    5  A    between atoms: C_17  and  O_18 
REMARK    6  A    between atoms: C_20  and  O_21 
REMARK    7  A    between atoms: C_22  and  O_23 
ROOT
HETATM    1  N   UNL     1     -40.925 -49.325  12.603  1.00  0.00    -0.329 N 
HETATM    2  C   UNL     1     -40.715 -48.491  11.502  1.00  0.00     0.119 A 
HETATM    3  N   UNL     1     -39.466 -48.685  11.070  1.00  0.00    -0.340 N 
ATOM      4  HN  UNL     1     -39.021 -48.202  10.290  1.00  0.00     0.167 HD
HETATM    5  C   UNL     1     -38.888 -49.648  11.857  1.00  0.00     0.060 A 
HETATM    6  C   UNL     1     -37.588 -50.175  11.858  1.00  0.00     0.032 A 
HETATM    7  C   UNL     1     -37.239 -51.135  12.819  1.00  0.00     0.002 A 
HETATM    8  C   UNL     1     -38.177 -51.602  13.736  1.00  0.00     0.002 A 
HETATM    9  C   UNL     1     -39.484 -51.118  13.719  1.00  0.00     0.032 A 
HETATM   10  C   UNL     1     -39.796 -50.111  12.792  1.00  0.00     0.063 A 
ENDROOT
BRANCH   2  11
HETATM   11  C   UNL     1     -41.610 -47.481  10.855  1.00  0.00     0.014 A 
HETATM   12  C   UNL     1     -42.669 -47.800  10.000  1.00  0.00     0.055 A 
HETATM   13  C   UNL     1     -43.530 -46.837   9.470  1.00  0.00     0.105 A 
HETATM   14  C   UNL     1     -43.311 -45.486   9.742  1.00  0.00     0.133 A 
HETATM   15  C   UNL     1     -42.237 -45.097  10.543  1.00  0.00     0.105 A 
HETATM   16  C   UNL     1     -41.408 -46.103  11.094  1.00  0.00     0.055 A 
BRANCH  13  17
HETATM   17  O   UNL     1     -44.612 -47.111   8.663  1.00  0.00    -0.353 OA
HETATM   18  C   UNL     1     -45.749 -47.703   9.294  1.00  0.00     0.210 C 
ENDBRANCH  13  17
BRANCH  14  19
HETATM   19  O   UNL     1     -44.179 -44.586   9.181  1.00  0.00    -0.356 OA
HETATM   20  H   UNL     1     -44.576 -45.052   8.414  1.00  0.00     0.218 HD
ENDBRANCH  14  19
BRANCH  15  21
HETATM   21  O   UNL     1     -41.869 -43.825  10.886  1.00  0.00    -0.353 OA
HETATM   22  C   UNL     1     -42.562 -43.198  11.962  1.00  0.00     0.210 C 
ENDBRANCH  15  21
ENDBRANCH   2  11
BRANCH   1  23
HETATM   23  C   UNL     1     -42.011 -49.424  13.557  1.00  0.00     0.157 C 
BRANCH  23  24
HETATM   24  C   UNL     1     -43.218 -50.190  13.023  1.00  0.00     0.187 C 
BRANCH  24  25
HETATM   25  O   UNL     1     -43.185 -51.521  13.544  1.00  0.00    -0.394 OA
HETATM   26  C   UNL     1     -42.782 -52.447  12.539  1.00  0.00     0.201 C 
ENDBRANCH  24  25
ENDBRANCH  23  24
ENDBRANCH   1  23
TORSDOF 7
ENDMDL
MODEL 4
REMARK VINA RESULT:      -6.0      4.562      7.059
REMARK  7 active torsions:
REMARK  status: ('A' for Active; 'I' for Inactive)
REMARK    1  A    between atoms: O_2  and  C_3 
REMARK    2  A    between atoms: C_3  and  C_4 
REMARK    3  A    between atoms: C_4  and  N_5 
REMARK    4  A    between atoms: C_6  and  C_15 
REMARK    5  A    between atoms: C_17  and  O_18 
REMARK    6  A    between atoms: C_20  and  O_21 
REMARK    7  A    between atoms: C_22  and  O_23 
ROOT
HETATM    1  N   UNL     1     -39.978 -52.423  13.541  1.00  0.00    -0.329 N 
HETATM    2  C   UNL     1     -41.258 -52.234  13.016  1.00  0.00     0.119 A 
HETATM    3  N   UNL     1     -41.223 -51.163  12.218  1.00  0.00    -0.340 N 
ATOM      4  HN  UNL     1     -42.014 -50.770  11.708  1.00  0.00     0.167 HD
HETATM    5  C   UNL     1     -39.938 -50.686  12.204  1.00  0.00     0.060 A 
HETATM    6  C   UNL     1     -39.381 -49.563  11.573  1.00  0.00     0.032 A 
HETATM    7  C   UNL     1     -38.022 -49.273  11.765  1.00  0.00     0.002 A 
HETATM    8  C   UNL     1     -37.215 -50.108  12.531  1.00  0.00     0.002 A 
HETATM    9  C   UNL     1     -37.744 -51.251  13.128  1.00  0.00     0.032 A 
HETATM   10  C   UNL     1     -39.119 -51.489  12.979  1.00  0.00     0.063 A 
ENDROOT
BRANCH   2  11
HETATM   11  C   UNL     1     -42.535 -52.978  13.257  1.00  0.00     0.014 A 
HETATM   12  C   UNL     1     -43.754 -52.667  12.651  1.00  0.00     0.055 A 
HETATM   13  C   UNL     1     -44.911 -53.426  12.842  1.00  0.00     0.105 A 
HETATM   14  C   UNL     1     -44.890 -54.512  13.718  1.00  0.00     0.133 A 
HETATM   15  C   UNL     1     -43.717 -54.841  14.399  1.00  0.00     0.105 A 
HETATM   16  C   UNL     1     -42.555 -54.073  14.151  1.00  0.00     0.055 A 
BRANCH  13  17
HETATM   17  O   UNL     1     -46.119 -53.183  12.228  1.00  0.00    -0.353 OA
HETATM   18  C   UNL     1     -46.643 -51.859  12.343  1.00  0.00     0.210 C 
ENDBRANCH  13  17
BRANCH  14  19
HETATM   19  O   UNL     1     -46.058 -55.210  13.878  1.00  0.00    -0.356 OA
HETATM   20  H   UNL     1     -46.740 -54.531  14.074  1.00  0.00     0.218 HD
ENDBRANCH  14  19
BRANCH  15  21
HETATM   21  O   UNL     1     -43.533 -55.851  15.303  1.00  0.00    -0.353 OA
HETATM   22  C   UNL     1     -42.376 -55.798  16.134  1.00  0.00     0.210 C 
ENDBRANCH  15  21
ENDBRANCH   2  11
BRANCH   1  23
HETATM   23  C   UNL     1     -39.467 -53.309  14.568  1.00  0.00     0.157 C 
BRANCH  23  24
HETATM   24  C   UNL     1     -39.058 -54.680  14.036  1.00  0.00     0.187 C 
BRANCH  24  25
HETATM   25  O   UNL     1     -38.797 -55.544  15.144  1.00  0.00    -0.394 OA
HETATM   26  C   UNL     1     -38.706 -54.800  16.354  1.00  0.00     0.201 C 
ENDBRANCH  24  25
ENDBRANCH  23  24
ENDBRANCH   1  23
TORSDOF 7
ENDMDL
MODEL 5
REMARK VINA RESULT:      -5.9      2.000      3.436
REMARK  7 active torsions:
REMARK  status: ('A' for Active; 'I' for Inactive)
REMARK    1  A    between atoms: O_2  and  C_3 
REMARK    2  A    between atoms: C_3  and  C_4 
REMARK    3  A    between atoms: C_4  and  N_5 
REMARK    4  A    between atoms: C_6  and  C_15 
REMARK    5  A    between atoms: C_17  and  O_18 
REMARK    6  A    between atoms: C_20  and  O_21 
REMARK    7  A    between atoms: C_22  and  O_23 
ROOT
HETATM    1  N   UNL     1     -41.021 -50.346  11.993  1.00  0.00    -0.329 N 
HETATM    2  C   UNL     1     -42.200 -49.599  11.983  1.00  0.00     0.119 A 
HETATM    3  N   UNL     1     -43.191 -50.386  12.411  1.00  0.00    -0.340 N 
ATOM      4  HN  UNL     1     -44.173 -50.122  12.494  1.00  0.00     0.167 HD
HETATM    5  C   UNL     1     -42.658 -51.611  12.721  1.00  0.00     0.060 A 
HETATM    6  C   UNL     1     -43.269 -52.795  13.159  1.00  0.00     0.032 A 
HETATM    7  C   UNL     1     -42.482 -53.939  13.360  1.00  0.00     0.002 A 
HETATM    8  C   UNL     1     -41.103 -53.897  13.177  1.00  0.00     0.002 A 
HETATM    9  C   UNL     1     -40.476 -52.716  12.784  1.00  0.00     0.032 A 
HETATM   10  C   UNL     1     -41.288 -51.601  12.524  1.00  0.00     0.063 A 
ENDROOT
BRANCH   2  11
HETATM   11  C   UNL     1     -42.463 -48.191  11.548  1.00  0.00     0.014 A 
HETATM   12  C   UNL     1     -42.377 -47.078  12.388  1.00  0.00     0.055 A 
HETATM   13  C   UNL     1     -42.558 -45.770  11.933  1.00  0.00     0.105 A 
HETATM   14  C   UNL     1     -42.899 -45.541  10.600  1.00  0.00     0.133 A 
HETATM   15  C   UNL     1     -43.056 -46.614   9.722  1.00  0.00     0.105 A 
HETATM   16  C   UNL     1     -42.827 -47.922  10.209  1.00  0.00     0.055 A 
BRANCH  13  17
HETATM   17  O   UNL     1     -42.435 -44.643  12.716  1.00  0.00    -0.353 OA
HETATM   18  C   UNL     1     -42.807 -44.772  14.089  1.00  0.00     0.210 C 
ENDBRANCH  13  17
BRANCH  14  19
HETATM   19  O   UNL     1     -43.079 -44.239  10.215  1.00  0.00    -0.356 OA
HETATM   20  H   UNL     1     -43.437 -44.286   9.301  1.00  0.00     0.218 HD
ENDBRANCH  14  19
BRANCH  15  21
HETATM   21  O   UNL     1     -43.408 -46.567   8.401  1.00  0.00    -0.353 OA
HETATM   22  C   UNL     1     -43.461 -47.796   7.681  1.00  0.00     0.210 C 
ENDBRANCH  15  21
ENDBRANCH   2  11
BRANCH   1  23
HETATM   23  C   UNL     1     -39.689 -50.073  11.491  1.00  0.00     0.157 C 
BRANCH  23  24
HETATM   24  C   UNL     1     -38.929 -49.041  12.321  1.00  0.00     0.187 C 
BRANCH  24  25
HETATM   25  O   UNL     1     -37.538 -49.371  12.302  1.00  0.00    -0.394 OA
HETATM   26  C   UNL     1     -37.351 -50.754  12.016  1.00  0.00     0.201 C 
ENDBRANCH  24  25
ENDBRANCH  23  24
ENDBRANCH   1  23
TORSDOF 7
ENDMDL
MODEL 6
REMARK VINA RESULT:      -5.9      3.537      7.090
REMARK  7 active torsions:
REMARK  status: ('A' for Active; 'I' for Inactive)
REMARK    1  A    between atoms: O_2  and  C_3 
REMARK    2  A    between atoms: C_3  and  C_4 
REMARK    3  A    between atoms: C_4  and  N_5 
REMARK    4  A    between atoms: C_6  and  C_15 
REMARK    5  A    between atoms: C_17  and  O_18 
REMARK    6  A    between atoms: C_20  and  O_21 
REMARK    7  A    between atoms: C_22  and  O_23 
ROOT
HETATM    1  N   UNL     1     -44.652 -51.590  14.179  1.00  0.00    -0.329 N 
HETATM    2  C   UNL     1     -43.403 -51.133  14.603  1.00  0.00     0.119 A 
HETATM    3  N   UNL     1     -43.548 -50.608  15.822  1.00  0.00    -0.340 N 
ATOM      4  HN  UNL     1     -42.810 -50.177  16.381  1.00  0.00     0.167 HD
HETATM    5  C   UNL     1     -44.860 -50.748  16.193  1.00  0.00     0.060 A 
HETATM    6  C   UNL     1     -45.541 -50.322  17.343  1.00  0.00     0.032 A 
HETATM    7  C   UNL     1     -46.920 -50.558  17.451  1.00  0.00     0.002 A 
HETATM    8  C   UNL     1     -47.605 -51.249  16.455  1.00  0.00     0.002 A 
HETATM    9  C   UNL     1     -46.934 -51.715  15.327  1.00  0.00     0.032 A 
HETATM   10  C   UNL     1     -45.568 -51.412  15.207  1.00  0.00     0.063 A 
ENDROOT
BRANCH   2  11
HETATM   11  C   UNL     1     -42.078 -51.120  13.906  1.00  0.00     0.014 A 
HETATM   12  C   UNL     1     -41.076 -52.074  14.101  1.00  0.00     0.055 A 
HETATM   13  C   UNL     1     -39.879 -52.073  13.382  1.00  0.00     0.105 A 
HETATM   14  C   UNL     1     -39.622 -51.053  12.466  1.00  0.00     0.133 A 
HETATM   15  C   UNL     1     -40.558 -50.038  12.265  1.00  0.00     0.105 A 
HETATM   16  C   UNL     1     -41.776 -50.093  12.984  1.00  0.00     0.055 A 
BRANCH  13  17
HETATM   17  O   UNL     1     -38.887 -53.020  13.509  1.00  0.00    -0.353 OA
HETATM   18  C   UNL     1     -39.282 -54.302  14.000  1.00  0.00     0.210 C 
ENDBRANCH  13  17
BRANCH  14  19
HETATM   19  O   UNL     1     -38.425 -51.096  11.801  1.00  0.00    -0.356 OA
HETATM   20  H   UNL     1     -37.933 -51.845  12.202  1.00  0.00     0.218 HD
ENDBRANCH  14  19
BRANCH  15  21
HETATM   21  O   UNL     1     -40.455 -48.960  11.430  1.00  0.00    -0.353 OA
HETATM   22  C   UNL     1     -41.647 -48.471  10.822  1.00  0.00     0.210 C 
ENDBRANCH  15  21
ENDBRANCH   2  11
BRANCH   1  23
HETATM   23  C   UNL     1     -45.125 -52.093  12.905  1.00  0.00     0.157 C 
BRANCH  23  24
HETATM   24  C   UNL     1     -44.452 -53.396  12.480  1.00  0.00     0.187 C 
BRANCH  24  25
HETATM   25  O   UNL     1     -45.341 -54.481  12.750  1.00  0.00    -0.394 OA
HETATM   26  C   UNL     1     -45.055 -55.066  14.018  1.00  0.00     0.201 C 
ENDBRANCH  24  25
ENDBRANCH  23  24
ENDBRANCH   1  23
TORSDOF 7
ENDMDL
MODEL 7
REMARK VINA RESULT:      -5.7      4.467      7.051
REMARK  7 active torsions:
REMARK  status: ('A' for Active; 'I' for Inactive)
REMARK    1  A    between atoms: O_2  and  C_3 
REMARK    2  A    between atoms: C_3  and  C_4 
REMARK    3  A    between atoms: C_4  and  N_5 
REMARK    4  A    between atoms: C_6  and  C_15 
REMARK    5  A    between atoms: C_17  and  O_18 
REMARK    6  A    between atoms: C_20  and  O_21 
REMARK    7  A    between atoms: C_22  and  O_23 
ROOT
HETATM    1  N   UNL     1     -39.813 -52.285  13.418  1.00  0.00    -0.329 N 
HETATM    2  C   UNL     1     -41.133 -52.237  12.966  1.00  0.00     0.119 A 
HETATM    3  N   UNL     1     -41.262 -51.163  12.182  1.00  0.00    -0.340 N 
ATOM      4  HN  UNL     1     -42.119 -50.857  11.720  1.00  0.00     0.167 HD
HETATM    5  C   UNL     1     -40.041 -50.544  12.104  1.00  0.00     0.060 A 
HETATM    6  C   UNL     1     -39.649 -49.362  11.459  1.00  0.00     0.032 A 
HETATM    7  C   UNL     1     -38.323 -48.921  11.581  1.00  0.00     0.002 A 
HETATM    8  C   UNL     1     -37.386 -49.666  12.292  1.00  0.00     0.002 A 
HETATM    9  C   UNL     1     -37.750 -50.865  12.901  1.00  0.00     0.032 A 
HETATM   10  C   UNL     1     -39.097 -51.256  12.823  1.00  0.00     0.063 A 
ENDROOT
BRANCH   2  11
HETATM   11  C   UNL     1     -42.303 -53.121  13.265  1.00  0.00     0.014 A 
HETATM   12  C   UNL     1     -42.266 -54.205  14.147  1.00  0.00     0.055 A 
HETATM   13  C   UNL     1     -43.394 -54.966  14.458  1.00  0.00     0.105 A 
HETATM   14  C   UNL     1     -44.611 -54.692  13.832  1.00  0.00     0.133 A 
HETATM   15  C   UNL     1     -44.702 -53.658  12.899  1.00  0.00     0.105 A 
HETATM   16  C   UNL     1     -43.547 -52.883  12.637  1.00  0.00     0.055 A 
BRANCH  13  17
HETATM   17  O   UNL     1     -43.413 -56.011  15.356  1.00  0.00    -0.353 OA
HETATM   18  C   UNL     1     -42.421 -55.991  16.384  1.00  0.00     0.210 C 
ENDBRANCH  13  17
BRANCH  14  19
HETATM   19  O   UNL     1     -45.679 -55.481  14.166  1.00  0.00    -0.356 OA
HETATM   20  H   UNL     1     -45.704 -56.187  13.483  1.00  0.00     0.218 HD
ENDBRANCH  14  19
BRANCH  15  21
HETATM   21  O   UNL     1     -45.802 -53.274  12.183  1.00  0.00    -0.353 OA
HETATM   22  C   UNL     1     -46.458 -52.067  12.564  1.00  0.00     0.210 C 
ENDBRANCH  15  21
ENDBRANCH   2  11
BRANCH   1  23
HETATM   23  C   UNL     1     -39.150 -53.115  14.404  1.00  0.00     0.157 C 
BRANCH  23  24
HETATM   24  C   UNL     1     -39.392 -52.660  15.841  1.00  0.00     0.187 C 
BRANCH  24  25
HETATM   25  O   UNL     1     -38.269 -51.889  16.273  1.00  0.00    -0.394 OA
HETATM   26  C   UNL     1     -38.651 -50.542  16.536  1.00  0.00     0.201 C 
ENDBRANCH  24  25
ENDBRANCH  23  24
ENDBRANCH   1  23
TORSDOF 7
ENDMDL
MODEL 8
REMARK VINA RESULT:      -5.7      1.953      4.003
REMARK  7 active torsions:
REMARK  status: ('A' for Active; 'I' for Inactive)
REMARK    1  A    between atoms: O_2  and  C_3 
REMARK    2  A    between atoms: C_3  and  C_4 
REMARK    3  A    between atoms: C_4  and  N_5 
REMARK    4  A    between atoms: C_6  and  C_15 
REMARK    5  A    between atoms: C_17  and  O_18 
REMARK    6  A    between atoms: C_20  and  O_21 
REMARK    7  A    between atoms: C_22  and  O_23 
ROOT
HETATM    1  N   UNL     1     -40.632 -50.262  12.747  1.00  0.00    -0.329 N 
HETATM    2  C   UNL     1     -41.795 -49.754  12.164  1.00  0.00     0.119 A 
HETATM    3  N   UNL     1     -42.689 -50.745  12.095  1.00  0.00    -0.340 N 
ATOM      4  HN  UNL     1     -43.626 -50.679  11.698  1.00  0.00     0.167 HD
HETATM    5  C   UNL     1     -42.126 -51.865  12.650  1.00  0.00     0.060 A 
HETATM    6  C   UNL     1     -42.617 -53.173  12.779  1.00  0.00     0.032 A 
HETATM    7  C   UNL     1     -41.801 -54.157  13.356  1.00  0.00     0.002 A 
HETATM    8  C   UNL     1     -40.536 -53.841  13.843  1.00  0.00     0.002 A 
HETATM    9  C   UNL     1     -40.052 -52.537  13.761  1.00  0.00     0.032 A 
HETATM   10  C   UNL     1     -40.856 -51.580  13.121  1.00  0.00     0.063 A 
ENDROOT
BRANCH   2  11
HETATM   11  C   UNL     1     -42.104 -48.394  11.620  1.00  0.00     0.014 A 
HETATM   12  C   UNL     1     -42.462 -48.138  10.294  1.00  0.00     0.055 A 
HETATM   13  C   UNL     1     -42.813 -46.867   9.836  1.00  0.00     0.105 A 
HETATM   14  C   UNL     1     -42.756 -45.777  10.706  1.00  0.00     0.133 A 
HETATM   15  C   UNL     1     -42.352 -45.956  12.029  1.00  0.00     0.105 A 
HETATM   16  C   UNL     1     -42.040 -47.264  12.467  1.00  0.00     0.055 A 
BRANCH  13  17
HETATM   17  O   UNL     1     -43.217 -46.579   8.551  1.00  0.00    -0.353 OA
HETATM   18  C   UNL     1     -43.492 -47.694   7.701  1.00  0.00     0.210 C 
ENDBRANCH  13  17
BRANCH  14  19
HETATM   19  O   UNL     1     -43.098 -44.552  10.197  1.00  0.00    -0.356 OA
HETATM   20  H   UNL     1     -42.245 -44.095  10.028  1.00  0.00     0.218 HD
ENDBRANCH  14  19
BRANCH  15  21
HETATM   21  O   UNL     1     -42.219 -45.000  12.998  1.00  0.00    -0.353 OA
HETATM   22  C   UNL     1     -40.917 -44.763  13.527  1.00  0.00     0.210 C 
ENDBRANCH  15  21
ENDBRANCH   2  11
BRANCH   1  23
HETATM   23  C   UNL     1     -39.307 -49.704  12.924  1.00  0.00     0.157 C 
BRANCH  23  24
HETATM   24  C   UNL     1     -38.571 -49.463  11.608  1.00  0.00     0.187 C 
BRANCH  24  25
HETATM   25  O   UNL     1     -37.577 -50.476  11.445  1.00  0.00    -0.394 OA
HETATM   26  C   UNL     1     -37.122 -50.946  12.711  1.00  0.00     0.201 C 
ENDBRANCH  24  25
ENDBRANCH  23  24
ENDBRANCH   1  23
TORSDOF 7
ENDMDL
MODEL 9
REMARK VINA RESULT:      -5.7      2.726      5.191
REMARK  7 active torsions:
REMARK  status: ('A' for Active; 'I' for Inactive)
REMARK    1  A    between atoms: O_2  and  C_3 
REMARK    2  A    between atoms: C_3  and  C_4 
REMARK    3  A    between atoms: C_4  and  N_5 
REMARK    4  A    between atoms: C_6  and  C_15 
REMARK    5  A    between atoms: C_17  and  O_18 
REMARK    6  A    between atoms: C_20  and  O_21 
REMARK    7  A    between atoms: C_22  and  O_23 
ROOT
HETATM    1  N   UNL     1     -42.844 -52.026  12.936  1.00  0.00    -0.329 N 
HETATM    2  C   UNL     1     -43.086 -50.664  12.741  1.00  0.00     0.119 A 
HETATM    3  N   UNL     1     -44.351 -50.416  13.090  1.00  0.00    -0.340 N 
ATOM      4  HN  UNL     1     -44.821 -49.512  13.039  1.00  0.00     0.167 HD
HETATM    5  C   UNL     1     -44.909 -51.589  13.530  1.00  0.00     0.060 A 
HETATM    6  C   UNL     1     -46.212 -51.884  13.956  1.00  0.00     0.032 A 
HETATM    7  C   UNL     1     -46.535 -53.201  14.314  1.00  0.00     0.002 A 
HETATM    8  C   UNL     1     -45.568 -54.203  14.297  1.00  0.00     0.002 A 
HETATM    9  C   UNL     1     -44.259 -53.916  13.917  1.00  0.00     0.032 A 
HETATM   10  C   UNL     1     -43.971 -52.606  13.500  1.00  0.00     0.063 A 
ENDROOT
BRANCH   2  11
HETATM   11  C   UNL     1     -42.206 -49.581  12.200  1.00  0.00     0.014 A 
HETATM   12  C   UNL     1     -40.813 -49.568  12.311  1.00  0.00     0.055 A 
HETATM   13  C   UNL     1     -40.016 -48.579  11.732  1.00  0.00     0.105 A 
HETATM   14  C   UNL     1     -40.614 -47.514  11.058  1.00  0.00     0.133 A 
HETATM   15  C   UNL     1     -42.004 -47.438  10.959  1.00  0.00     0.105 A 
HETATM   16  C   UNL     1     -42.777 -48.478  11.525  1.00  0.00     0.055 A 
BRANCH  13  17
HETATM   17  O   UNL     1     -38.639 -48.554  11.777  1.00  0.00    -0.353 OA
HETATM   18  C   UNL     1     -37.968 -49.796  11.561  1.00  0.00     0.210 C 
ENDBRANCH  13  17
BRANCH  14  19
HETATM   19  O   UNL     1     -39.782 -46.565  10.523  1.00  0.00    -0.356 OA
HETATM   20  H   UNL     1     -40.242 -46.241   9.719  1.00  0.00     0.218 HD
ENDBRANCH  14  19
BRANCH  15  21
HETATM   21  O   UNL     1     -42.746 -46.458  10.359  1.00  0.00    -0.353 OA
HETATM   22  C   UNL     1     -43.396 -46.772   9.131  1.00  0.00     0.210 C 
ENDBRANCH  15  21
ENDBRANCH   2  11
BRANCH   1  23
HETATM   23  C   UNL     1     -41.725 -52.876  12.583  1.00  0.00     0.157 C 
BRANCH  23  24
HETATM   24  C   UNL     1     -40.676 -52.985  13.687  1.00  0.00     0.187 C 
BRANCH  24  25
HETATM   25  O   UNL     1     -39.673 -53.918  13.277  1.00  0.00    -0.394 OA
HETATM   26  C   UNL     1     -39.151 -54.624  14.399  1.00  0.00     0.201 C 
ENDBRANCH  24  25
ENDBRANCH  23  24
ENDBRANCH   1  23
TORSDOF 7
ENDMDL
