MODEL 1
REMARK VINA RESULT:      -5.7      0.000      0.000
REMARK  4 active torsions:
REMARK  status: ('A' for Active; 'I' for Inactive)
REMARK    1  A    between atoms: C_2  and  C_5 
REMARK    2  A    between atoms: N_9  and  C_10 
REMARK    3  A    between atoms: C_10  and  C_11 
REMARK       I    between atoms: C_11  and  N_13 
REMARK    4  A    between atoms: N_13  and  C_14 
ROOT
HETATM    1  C   UNL     1     -41.043 -44.533  12.565  1.00  0.00     0.115 C 
HETATM    2  C   UNL     1     -41.879 -44.806  13.587  1.00  0.00     0.023 C 
HETATM    3  C   UNL     1     -42.873 -45.842  13.480  1.00  0.00     0.018 C 
HETATM    4  C   UNL     1     -42.883 -46.637  12.404  1.00  0.00     0.095 C 
HETATM    5  N   UNL     1     -42.032 -46.395  11.339  1.00  0.00    -0.315 N 
HETATM    6  C   UNL     1     -41.210 -45.265  11.287  1.00  0.00     0.263 C 
HETATM    7  O   UNL     1     -40.643 -44.919  10.252  1.00  0.00    -0.267 OA
ENDROOT
BRANCH   5   8
HETATM    8  C   UNL     1     -42.080 -47.248  10.155  1.00  0.00     0.234 C 
BRANCH   8   9
HETATM    9  C   UNL     1     -43.298 -46.919   9.283  1.00  0.00     0.236 C 
HETATM   10  O   UNL     1     -43.345 -45.917   8.575  1.00  0.00    -0.272 OA
HETATM   11  N   UNL     1     -44.334 -47.832   9.398  1.00  0.00    -0.355 N 
HETATM   12  H   UNL     1     -44.329 -48.449  10.212  1.00  0.00     0.162 HD
BRANCH  11  13
HETATM   13  C   UNL     1     -45.515 -47.762   8.597  1.00  0.00     0.084 A 
HETATM   14  C   UNL     1     -46.752 -47.053   9.070  1.00  0.00     0.027 A 
HETATM   15  C   UNL     1     -46.743 -48.550   8.968  1.00  0.00     0.027 A 
ENDBRANCH  11  13
ENDBRANCH   8   9
ENDBRANCH   5   8
BRANCH   1  16
HETATM   16  C   UNL     1     -39.890 -43.608  12.682  1.00  0.00     0.422 C 
HETATM   17  F   UNL     1     -38.665 -44.153  12.493  1.00  0.00    -0.166 F 
HETATM   18  F   UNL     1     -39.860 -43.046  13.924  1.00  0.00    -0.166 F 
HETATM   19  F   UNL     1     -39.994 -42.572  11.808  1.00  0.00    -0.166 F 
ENDBRANCH   1  16
TORSDOF 4
ENDMDL
MODEL 2
REMARK VINA RESULT:      -5.7      8.302      9.709
REMARK  4 active torsions:
REMARK  status: ('A' for Active; 'I' for Inactive)
REMARK    1  A    between atoms: C_2  and  C_5 
REMARK    2  A    between atoms: N_9  and  C_10 
REMARK    3  A    between atoms: C_10  and  C_11 
REMARK       I    between atoms: C_11  and  N_13 
REMARK    4  A    between atoms: N_13  and  C_14 
ROOT
HETATM    1  C   UNL     1     -44.190 -54.484  14.151  1.00  0.00     0.115 C 
HETATM    2  C   UNL     1     -43.283 -54.925  15.046  1.00  0.00     0.023 C 
HETATM    3  C   UNL     1     -41.882 -54.629  14.896  1.00  0.00     0.018 C 
HETATM    4  C   UNL     1     -41.486 -53.791  13.930  1.00  0.00     0.095 C 
HETATM    5  N   UNL     1     -42.390 -53.309  12.999  1.00  0.00    -0.315 N 
HETATM    6  C   UNL     1     -43.717 -53.747  12.955  1.00  0.00     0.263 C 
HETATM    7  O   UNL     1     -44.449 -53.513  11.994  1.00  0.00    -0.267 OA
ENDROOT
BRANCH   5   8
HETATM    8  C   UNL     1     -41.936 -52.425  11.928  1.00  0.00     0.234 C 
BRANCH   8   9
HETATM    9  C   UNL     1     -41.040 -51.307  12.475  1.00  0.00     0.236 C 
HETATM   10  O   UNL     1     -41.413 -50.545  13.363  1.00  0.00    -0.272 OA
HETATM   11  N   UNL     1     -39.802 -51.226  11.857  1.00  0.00    -0.355 N 
HETATM   12  H   UNL     1     -39.698 -51.690  10.953  1.00  0.00     0.162 HD
BRANCH  11  13
HETATM   13  C   UNL     1     -38.785 -50.320  12.287  1.00  0.00     0.084 A 
HETATM   14  C   UNL     1     -37.558 -50.058  11.460  1.00  0.00     0.027 A 
HETATM   15  C   UNL     1     -37.443 -50.832  12.741  1.00  0.00     0.027 A 
ENDBRANCH  11  13
ENDBRANCH   8   9
ENDBRANCH   5   8
BRANCH   1  16
HETATM   16  C   UNL     1     -45.654 -54.604  14.350  1.00  0.00     0.422 C 
HETATM   17  F   UNL     1     -46.408 -53.586  13.870  1.00  0.00    -0.166 F 
HETATM   18  F   UNL     1     -45.944 -54.686  15.680  1.00  0.00    -0.166 F 
HETATM   19  F   UNL     1     -46.140 -55.745  13.793  1.00  0.00    -0.166 F 
ENDBRANCH   1  16
TORSDOF 4
ENDMDL
MODEL 3
REMARK VINA RESULT:      -5.7      7.146      8.482
REMARK  4 active torsions:
REMARK  status: ('A' for Active; 'I' for Inactive)
REMARK    1  A    between atoms: C_2  and  C_5 
REMARK    2  A    between atoms: N_9  and  C_10 
REMARK    3  A    between atoms: C_10  and  C_11 
REMARK       I    between atoms: C_11  and  N_13 
REMARK    4  A    between atoms: N_13  and  C_14 
ROOT
HETATM    1  C   UNL     1     -45.013 -51.541  13.873  1.00  0.00     0.115 C 
HETATM    2  C   UNL     1     -44.536 -50.725  14.834  1.00  0.00     0.023 C 
HETATM    3  C   UNL     1     -43.128 -50.445  14.943  1.00  0.00     0.018 C 
HETATM    4  C   UNL     1     -42.293 -50.890  13.998  1.00  0.00     0.095 C 
HETATM    5  N   UNL     1     -42.748 -51.721  12.988  1.00  0.00    -0.315 N 
HETATM    6  C   UNL     1     -44.055 -52.216  12.965  1.00  0.00     0.263 C 
HETATM    7  O   UNL     1     -44.391 -53.136  12.220  1.00  0.00    -0.267 OA
ENDROOT
BRANCH   5   8
HETATM    8  C   UNL     1     -41.817 -52.230  11.984  1.00  0.00     0.234 C 
BRANCH   8   9
HETATM    9  C   UNL     1     -40.365 -52.104  12.461  1.00  0.00     0.236 C 
HETATM   10  O   UNL     1     -39.840 -52.943  13.190  1.00  0.00    -0.272 OA
HETATM   11  N   UNL     1     -39.726 -50.956  12.022  1.00  0.00    -0.355 N 
HETATM   12  H   UNL     1     -40.314 -50.192  11.683  1.00  0.00     0.162 HD
BRANCH  11  13
HETATM   13  C   UNL     1     -38.343 -50.700  12.271  1.00  0.00     0.084 A 
HETATM   14  C   UNL     1     -37.835 -49.319  12.575  1.00  0.00     0.027 A 
HETATM   15  C   UNL     1     -37.503 -49.964  11.261  1.00  0.00     0.027 A 
ENDBRANCH  11  13
ENDBRANCH   8   9
ENDBRANCH   5   8
BRANCH   1  16
HETATM   16  C   UNL     1     -46.460 -51.721  13.602  1.00  0.00     0.422 C 
HETATM   17  F   UNL     1     -46.884 -51.374  12.364  1.00  0.00    -0.166 F 
HETATM   18  F   UNL     1     -47.199 -50.975  14.471  1.00  0.00    -0.166 F 
HETATM   19  F   UNL     1     -46.845 -53.010  13.798  1.00  0.00    -0.166 F 
ENDBRANCH   1  16
TORSDOF 4
ENDMDL
MODEL 4
REMARK VINA RESULT:      -5.3      7.663      8.956
REMARK  4 active torsions:
REMARK  status: ('A' for Active; 'I' for Inactive)
REMARK    1  A    between atoms: C_2  and  C_5 
REMARK    2  A    between atoms: N_9  and  C_10 
REMARK    3  A    between atoms: C_10  and  C_11 
REMARK       I    between atoms: C_11  and  N_13 
REMARK    4  A    between atoms: N_13  and  C_14 
ROOT
HETATM    1  C   UNL     1     -45.040 -51.524  13.898  1.00  0.00     0.115 C 
HETATM    2  C   UNL     1     -44.581 -50.669  14.833  1.00  0.00     0.023 C 
HETATM    3  C   UNL     1     -43.179 -50.358  14.936  1.00  0.00     0.018 C 
HETATM    4  C   UNL     1     -42.333 -50.819  14.007  1.00  0.00     0.095 C 
HETATM    5  N   UNL     1     -42.769 -51.691  13.024  1.00  0.00    -0.315 N 
HETATM    6  C   UNL     1     -44.067 -52.211  13.015  1.00  0.00     0.263 C 
HETATM    7  O   UNL     1     -44.384 -53.161  12.300  1.00  0.00    -0.267 OA
ENDROOT
BRANCH   5   8
HETATM    8  C   UNL     1     -41.827 -52.215  12.040  1.00  0.00     0.234 C 
BRANCH   8   9
HETATM    9  C   UNL     1     -40.445 -52.448  12.665  1.00  0.00     0.236 C 
HETATM   10  O   UNL     1     -39.491 -51.710  12.435  1.00  0.00    -0.272 OA
HETATM   11  N   UNL     1     -40.376 -53.572  13.473  1.00  0.00    -0.355 N 
HETATM   12  H   UNL     1     -41.112 -54.272  13.367  1.00  0.00     0.162 HD
BRANCH  11  13
HETATM   13  C   UNL     1     -39.210 -53.908  14.226  1.00  0.00     0.084 A 
HETATM   14  C   UNL     1     -39.187 -55.076  15.171  1.00  0.00     0.027 A 
HETATM   15  C   UNL     1     -39.163 -53.677  15.713  1.00  0.00     0.027 A 
ENDBRANCH  11  13
ENDBRANCH   8   9
ENDBRANCH   5   8
BRANCH   1  16
HETATM   16  C   UNL     1     -46.483 -51.740  13.630  1.00  0.00     0.422 C 
HETATM   17  F   UNL     1     -46.906 -51.462  12.374  1.00  0.00    -0.166 F 
HETATM   18  F   UNL     1     -47.238 -50.963  14.458  1.00  0.00    -0.166 F 
HETATM   19  F   UNL     1     -46.849 -53.023  13.890  1.00  0.00    -0.166 F 
ENDBRANCH   1  16
TORSDOF 4
ENDMDL
MODEL 5
REMARK VINA RESULT:      -5.3      6.356      7.434
REMARK  4 active torsions:
REMARK  status: ('A' for Active; 'I' for Inactive)
REMARK    1  A    between atoms: C_2  and  C_5 
REMARK    2  A    between atoms: N_9  and  C_10 
REMARK    3  A    between atoms: C_10  and  C_11 
REMARK       I    between atoms: C_11  and  N_13 
REMARK    4  A    between atoms: N_13  and  C_14 
ROOT
HETATM    1  C   UNL     1     -45.010 -51.457  14.177  1.00  0.00     0.115 C 
HETATM    2  C   UNL     1     -44.621 -50.768  15.268  1.00  0.00     0.023 C 
HETATM    3  C   UNL     1     -43.233 -50.467  15.506  1.00  0.00     0.018 C 
HETATM    4  C   UNL     1     -42.327 -50.758  14.565  1.00  0.00     0.095 C 
HETATM    5  N   UNL     1     -42.690 -51.455  13.425  1.00  0.00    -0.315 N 
HETATM    6  C   UNL     1     -43.976 -51.976  13.251  1.00  0.00     0.263 C 
HETATM    7  O   UNL     1     -44.233 -52.795  12.370  1.00  0.00    -0.267 OA
ENDROOT
BRANCH   5   8
HETATM    8  C   UNL     1     -41.683 -51.797  12.424  1.00  0.00     0.234 C 
BRANCH   8   9
HETATM    9  C   UNL     1     -41.065 -50.537  11.807  1.00  0.00     0.236 C 
HETATM   10  O   UNL     1     -39.850 -50.360  11.760  1.00  0.00    -0.272 OA
HETATM   11  N   UNL     1     -41.997 -49.621  11.347  1.00  0.00    -0.355 N 
HETATM   12  H   UNL     1     -42.954 -49.712  11.691  1.00  0.00     0.162 HD
BRANCH  11  13
HETATM   13  C   UNL     1     -41.627 -48.430  10.649  1.00  0.00     0.084 A 
HETATM   14  C   UNL     1     -42.181 -47.086  11.029  1.00  0.00     0.027 A 
HETATM   15  C   UNL     1     -42.609 -47.734   9.745  1.00  0.00     0.027 A 
ENDBRANCH  11  13
ENDBRANCH   8   9
ENDBRANCH   5   8
BRANCH   1  16
HETATM   16  C   UNL     1     -46.431 -51.637  13.792  1.00  0.00     0.422 C 
HETATM   17  F   UNL     1     -47.346 -51.019  14.576  1.00  0.00    -0.166 F 
HETATM   18  F   UNL     1     -46.760 -52.960  13.806  1.00  0.00    -0.166 F 
HETATM   19  F   UNL     1     -46.657 -51.211  12.520  1.00  0.00    -0.166 F 
ENDBRANCH   1  16
TORSDOF 4
ENDMDL
MODEL 6
REMARK VINA RESULT:      -5.2      3.711      6.233
REMARK  4 active torsions:
REMARK  status: ('A' for Active; 'I' for Inactive)
REMARK    1  A    between atoms: C_2  and  C_5 
REMARK    2  A    between atoms: N_9  and  C_10 
REMARK    3  A    between atoms: C_10  and  C_11 
REMARK       I    between atoms: C_11  and  N_13 
REMARK    4  A    between atoms: N_13  and  C_14 
ROOT
HETATM    1  C   UNL     1     -43.857 -47.298  10.080  1.00  0.00     0.115 C 
HETATM    2  C   UNL     1     -43.752 -47.975  11.241  1.00  0.00     0.023 C 
HETATM    3  C   UNL     1     -42.660 -47.735  12.149  1.00  0.00     0.018 C 
HETATM    4  C   UNL     1     -41.810 -46.731  11.904  1.00  0.00     0.095 C 
HETATM    5  N   UNL     1     -41.893 -46.005  10.728  1.00  0.00    -0.315 N 
HETATM    6  C   UNL     1     -42.784 -46.347   9.706  1.00  0.00     0.263 C 
HETATM    7  O   UNL     1     -42.695 -45.867   8.577  1.00  0.00    -0.267 OA
ENDROOT
BRANCH   5   8
HETATM    8  C   UNL     1     -40.935 -44.937  10.458  1.00  0.00     0.234 C 
BRANCH   8   9
HETATM    9  C   UNL     1     -41.406 -43.606  11.057  1.00  0.00     0.236 C 
HETATM   10  O   UNL     1     -42.480 -43.094  10.750  1.00  0.00    -0.272 OA
HETATM   11  N   UNL     1     -40.502 -43.034  11.937  1.00  0.00    -0.355 N 
HETATM   12  H   UNL     1     -39.537 -43.366  11.901  1.00  0.00     0.162 HD
BRANCH  11  13
HETATM   13  C   UNL     1     -40.793 -41.847  12.677  1.00  0.00     0.084 A 
HETATM   14  C   UNL     1     -40.608 -40.479  12.085  1.00  0.00     0.027 A 
HETATM   15  C   UNL     1     -39.683 -40.955  13.166  1.00  0.00     0.027 A 
ENDBRANCH  11  13
ENDBRANCH   8   9
ENDBRANCH   5   8
BRANCH   1  16
HETATM   16  C   UNL     1     -45.047 -47.374   9.199  1.00  0.00     0.422 C 
HETATM   17  F   UNL     1     -45.654 -46.198   8.912  1.00  0.00    -0.166 F 
HETATM   18  F   UNL     1     -46.006 -48.159   9.767  1.00  0.00    -0.166 F 
HETATM   19  F   UNL     1     -44.747 -47.957   8.008  1.00  0.00    -0.166 F 
ENDBRANCH   1  16
TORSDOF 4
ENDMDL
MODEL 7
REMARK VINA RESULT:      -5.1      9.228     10.675
REMARK  4 active torsions:
REMARK  status: ('A' for Active; 'I' for Inactive)
REMARK    1  A    between atoms: C_2  and  C_5 
REMARK    2  A    between atoms: N_9  and  C_10 
REMARK    3  A    between atoms: C_10  and  C_11 
REMARK       I    between atoms: C_11  and  N_13 
REMARK    4  A    between atoms: N_13  and  C_14 
ROOT
HETATM    1  C   UNL     1     -45.758 -53.670  14.164  1.00  0.00     0.115 C 
HETATM    2  C   UNL     1     -46.095 -52.637  13.366  1.00  0.00     0.023 C 
HETATM    3  C   UNL     1     -46.743 -51.466  13.897  1.00  0.00     0.018 C 
HETATM    4  C   UNL     1     -46.893 -51.339  15.220  1.00  0.00     0.095 C 
HETATM    5  N   UNL     1     -46.548 -52.374  16.073  1.00  0.00    -0.315 N 
HETATM    6  C   UNL     1     -46.134 -53.621  15.597  1.00  0.00     0.263 C 
HETATM    7  O   UNL     1     -46.063 -54.607  16.330  1.00  0.00    -0.267 OA
ENDROOT
BRANCH   5   8
HETATM    8  C   UNL     1     -46.752 -52.235  17.512  1.00  0.00     0.234 C 
BRANCH   8   9
HETATM    9  C   UNL     1     -46.398 -50.820  17.988  1.00  0.00     0.236 C 
HETATM   10  O   UNL     1     -45.245 -50.396  17.977  1.00  0.00    -0.272 OA
HETATM   11  N   UNL     1     -47.483 -50.095  18.453  1.00  0.00    -0.355 N 
HETATM   12  H   UNL     1     -48.325 -50.618  18.701  1.00  0.00     0.162 HD
BRANCH  11  13
HETATM   13  C   UNL     1     -47.383 -48.726  18.847  1.00  0.00     0.084 A 
HETATM   14  C   UNL     1     -47.989 -48.223  20.126  1.00  0.00     0.027 A 
HETATM   15  C   UNL     1     -48.589 -47.826  18.809  1.00  0.00     0.027 A 
ENDBRANCH  11  13
ENDBRANCH   8   9
ENDBRANCH   5   8
BRANCH   1  16
HETATM   16  C   UNL     1     -44.932 -54.815  13.709  1.00  0.00     0.422 C 
HETATM   17  F   UNL     1     -43.877 -55.140  14.492  1.00  0.00    -0.166 F 
HETATM   18  F   UNL     1     -44.415 -54.561  12.473  1.00  0.00    -0.166 F 
HETATM   19  F   UNL     1     -45.679 -55.943  13.574  1.00  0.00    -0.166 F 
ENDBRANCH   1  16
TORSDOF 4
ENDMDL
MODEL 8
REMARK VINA RESULT:      -5.1      7.540      8.783
REMARK  4 active torsions:
REMARK  status: ('A' for Active; 'I' for Inactive)
REMARK    1  A    between atoms: C_2  and  C_5 
REMARK    2  A    between atoms: N_9  and  C_10 
REMARK    3  A    between atoms: C_10  and  C_11 
REMARK       I    between atoms: C_11  and  N_13 
REMARK    4  A    between atoms: N_13  and  C_14 
ROOT
HETATM    1  C   UNL     1     -45.369 -52.732  14.385  1.00  0.00     0.115 C 
HETATM    2  C   UNL     1     -45.528 -54.061  14.230  1.00  0.00     0.023 C 
HETATM    3  C   UNL     1     -44.393 -54.943  14.139  1.00  0.00     0.018 C 
HETATM    4  C   UNL     1     -43.164 -54.456  14.345  1.00  0.00     0.095 C 
HETATM    5  N   UNL     1     -42.961 -53.097  14.518  1.00  0.00    -0.315 N 
HETATM    6  C   UNL     1     -43.998 -52.169  14.383  1.00  0.00     0.263 C 
HETATM    7  O   UNL     1     -43.783 -50.961  14.293  1.00  0.00    -0.267 OA
ENDROOT
BRANCH   5   8
HETATM    8  C   UNL     1     -41.610 -52.576  14.705  1.00  0.00     0.234 C 
BRANCH   8   9
HETATM    9  C   UNL     1     -40.934 -52.294  13.357  1.00  0.00     0.236 C 
HETATM   10  O   UNL     1     -40.347 -53.168  12.724  1.00  0.00    -0.272 OA
HETATM   11  N   UNL     1     -41.024 -50.973  12.949  1.00  0.00    -0.355 N 
HETATM   12  H   UNL     1     -41.259 -50.277  13.659  1.00  0.00     0.162 HD
BRANCH  11  13
HETATM   13  C   UNL     1     -40.548 -50.526  11.678  1.00  0.00     0.084 A 
HETATM   14  C   UNL     1     -39.342 -49.639  11.552  1.00  0.00     0.027 A 
HETATM   15  C   UNL     1     -40.707 -49.087  11.262  1.00  0.00     0.027 A 
ENDBRANCH  11  13
ENDBRANCH   8   9
ENDBRANCH   5   8
BRANCH   1  16
HETATM   16  C   UNL     1     -46.492 -51.805  14.665  1.00  0.00     0.422 C 
HETATM   17  F   UNL     1     -46.263 -50.854  15.600  1.00  0.00    -0.166 F 
HETATM   18  F   UNL     1     -47.581 -52.501  15.099  1.00  0.00    -0.166 F 
HETATM   19  F   UNL     1     -46.892 -51.155  13.539  1.00  0.00    -0.166 F 
ENDBRANCH   1  16
TORSDOF 4
ENDMDL
MODEL 9
REMARK VINA RESULT:      -5.1      8.294      9.636
REMARK  4 active torsions:
REMARK  status: ('A' for Active; 'I' for Inactive)
REMARK    1  A    between atoms: C_2  and  C_5 
REMARK    2  A    between atoms: N_9  and  C_10 
REMARK    3  A    between atoms: C_10  and  C_11 
REMARK       I    between atoms: C_11  and  N_13 
REMARK    4  A    between atoms: N_13  and  C_14 
ROOT
HETATM    1  C   UNL     1     -46.318 -51.768  15.077  1.00  0.00     0.115 C 
HETATM    2  C   UNL     1     -46.918 -51.304  13.963  1.00  0.00     0.023 C 
HETATM    3  C   UNL     1     -46.515 -51.755  12.656  1.00  0.00     0.018 C 
HETATM    4  C   UNL     1     -45.625 -52.748  12.547  1.00  0.00     0.095 C 
HETATM    5  N   UNL     1     -44.996 -53.258  13.670  1.00  0.00    -0.315 N 
HETATM    6  C   UNL     1     -45.174 -52.700  14.939  1.00  0.00     0.263 C 
HETATM    7  O   UNL     1     -44.441 -52.987  15.885  1.00  0.00    -0.267 OA
ENDROOT
BRANCH   5   8
HETATM    8  C   UNL     1     -43.999 -54.316  13.532  1.00  0.00     0.234 C 
BRANCH   8   9
HETATM    9  C   UNL     1     -42.609 -53.734  13.243  1.00  0.00     0.236 C 
HETATM   10  O   UNL     1     -42.425 -52.877  12.383  1.00  0.00    -0.272 OA
HETATM   11  N   UNL     1     -41.597 -54.286  14.012  1.00  0.00    -0.355 N 
HETATM   12  H   UNL     1     -41.790 -55.178  14.472  1.00  0.00     0.162 HD
BRANCH  11  13
HETATM   13  C   UNL     1     -40.251 -53.812  13.968  1.00  0.00     0.084 A 
HETATM   14  C   UNL     1     -39.082 -54.722  14.219  1.00  0.00     0.027 A 
HETATM   15  C   UNL     1     -39.443 -53.675  15.231  1.00  0.00     0.027 A 
ENDBRANCH  11  13
ENDBRANCH   8   9
ENDBRANCH   5   8
BRANCH   1  16
HETATM   16  C   UNL     1     -46.808 -51.480  16.446  1.00  0.00     0.422 C 
HETATM   17  F   UNL     1     -46.930 -52.544  17.274  1.00  0.00    -0.166 F 
HETATM   18  F   UNL     1     -48.044 -50.906  16.393  1.00  0.00    -0.166 F 
HETATM   19  F   UNL     1     -46.009 -50.582  17.081  1.00  0.00    -0.166 F 
ENDBRANCH   1  16
TORSDOF 4
ENDMDL
