MODEL 1
REMARK VINA RESULT:      -5.3      0.000      0.000
REMARK  4 active torsions:
REMARK  status: ('A' for Active; 'I' for Inactive)
REMARK    1  A    between atoms: C_2  and  N_3 
REMARK    2  A    between atoms: C_2  and  C_16 
REMARK       I    between atoms: N_3  and  C_4 
REMARK    3  A    between atoms: C_4  and  C_6 
REMARK    4  A    between atoms: C_6  and  C_7 
ROOT
HETATM    1  N   UNL     1     -45.076 -52.621  12.526  1.00  0.00    -0.354 N 
HETATM    2  C   UNL     1     -44.554 -53.870  12.792  1.00  0.00     0.222 C 
HETATM    3  O   UNL     1     -45.251 -54.805  13.183  1.00  0.00    -0.273 OA
HETATM    4  H   UNL     1     -44.440 -51.848  12.376  1.00  0.00     0.162 HD
ENDROOT
BRANCH   2   5
HETATM    5  C   UNL     1     -43.053 -54.007  12.583  1.00  0.00     0.145 C 
BRANCH   5   6
HETATM    6  C   UNL     1     -42.238 -53.398  13.678  1.00  0.00    -0.002 A 
HETATM    7  C   UNL     1     -41.973 -53.924  14.977  1.00  0.00     0.030 A 
HETATM    8  C   UNL     1     -42.412 -55.205  15.589  1.00  0.00     0.070 C 
HETATM    9  N   UNL     1     -41.228 -53.089  15.709  1.00  0.00    -0.303 N 
HETATM   10  N   UNL     1     -41.035 -52.025  14.919  1.00  0.00    -0.300 N 
ATOM     11  HN  UNL     1     -40.884 -53.231  16.659  1.00  0.00     0.186 HD
HETATM   12  C   UNL     1     -40.282 -50.905  15.435  1.00  0.00     0.177 C 
HETATM   13  C   UNL     1     -41.635 -52.143  13.691  1.00  0.00     0.033 A 
HETATM   14  C   UNL     1     -41.615 -51.074  12.659  1.00  0.00     0.070 C 
ENDBRANCH   5   6
ENDBRANCH   2   5
BRANCH   1  15
HETATM   15  C   UNL     1     -46.493 -52.313  12.745  1.00  0.00     0.109 C 
HETATM   16  C   UNL     1     -47.036 -51.595  11.509  1.00  0.00     0.035 C 
BRANCH  15  17
HETATM   17  C   UNL     1     -46.712 -51.519  14.057  1.00  0.00     0.143 C 
HETATM   18  C   UNL     1     -45.436 -50.978  14.703  1.00  0.00     0.036 C 
HETATM   19  C   UNL     1     -45.630 -51.195  16.192  1.00  0.00     0.029 C 
HETATM   20  C   UNL     1     -47.052 -51.688  16.320  1.00  0.00     0.168 C 
HETATM   21  O   UNL     1     -47.342 -52.327  15.072  1.00  0.00    -0.384 OA
ENDBRANCH  15  17
ENDBRANCH   1  15
TORSDOF 4
ENDMDL
MODEL 2
REMARK VINA RESULT:      -5.2      0.651      1.971
REMARK  4 active torsions:
REMARK  status: ('A' for Active; 'I' for Inactive)
REMARK    1  A    between atoms: C_2  and  N_3 
REMARK    2  A    between atoms: C_2  and  C_16 
REMARK       I    between atoms: N_3  and  C_4 
REMARK    3  A    between atoms: C_4  and  C_6 
REMARK    4  A    between atoms: C_6  and  C_7 
ROOT
HETATM    1  N   UNL     1     -45.103 -52.694  12.448  1.00  0.00    -0.354 N 
HETATM    2  C   UNL     1     -44.609 -53.936  12.792  1.00  0.00     0.222 C 
HETATM    3  O   UNL     1     -45.321 -54.819  13.266  1.00  0.00    -0.273 OA
HETATM    4  H   UNL     1     -44.450 -51.953  12.226  1.00  0.00     0.162 HD
ENDROOT
BRANCH   2   5
HETATM    5  C   UNL     1     -43.119 -54.131  12.555  1.00  0.00     0.145 C 
BRANCH   5   6
HETATM    6  C   UNL     1     -42.260 -53.540  13.626  1.00  0.00    -0.002 A 
HETATM    7  C   UNL     1     -41.411 -52.396  13.545  1.00  0.00     0.030 A 
HETATM    8  C   UNL     1     -41.157 -51.484  12.401  1.00  0.00     0.070 C 
HETATM    9  N   UNL     1     -40.765 -52.175  14.694  1.00  0.00    -0.303 N 
HETATM   10  N   UNL     1     -41.157 -53.168  15.502  1.00  0.00    -0.300 N 
ATOM     11  HN  UNL     1     -40.116 -51.417  14.908  1.00  0.00     0.186 HD
HETATM   12  C   UNL     1     -40.605 -53.239  16.835  1.00  0.00     0.177 C 
HETATM   13  C   UNL     1     -42.042 -54.033  14.910  1.00  0.00     0.033 A 
HETATM   14  C   UNL     1     -42.579 -55.247  15.579  1.00  0.00     0.070 C 
ENDBRANCH   5   6
ENDBRANCH   2   5
BRANCH   1  15
HETATM   15  C   UNL     1     -46.505 -52.330  12.679  1.00  0.00     0.109 C 
HETATM   16  C   UNL     1     -47.032 -51.598  11.445  1.00  0.00     0.035 C 
BRANCH  15  17
HETATM   17  C   UNL     1     -46.679 -51.520  13.988  1.00  0.00     0.143 C 
HETATM   18  C   UNL     1     -45.381 -50.981  14.591  1.00  0.00     0.036 C 
HETATM   19  C   UNL     1     -45.531 -51.181  16.087  1.00  0.00     0.029 C 
HETATM   20  C   UNL     1     -46.952 -51.663  16.262  1.00  0.00     0.168 C 
HETATM   21  O   UNL     1     -47.284 -52.314  15.031  1.00  0.00    -0.384 OA
ENDBRANCH  15  17
ENDBRANCH   1  15
TORSDOF 4
ENDMDL
MODEL 3
REMARK VINA RESULT:      -5.1      3.657      5.362
REMARK  4 active torsions:
REMARK  status: ('A' for Active; 'I' for Inactive)
REMARK    1  A    between atoms: C_2  and  N_3 
REMARK    2  A    between atoms: C_2  and  C_16 
REMARK       I    between atoms: N_3  and  C_4 
REMARK    3  A    between atoms: C_4  and  C_6 
REMARK    4  A    between atoms: C_6  and  C_7 
ROOT
HETATM    1  N   UNL     1     -41.957 -50.411  11.832  1.00  0.00    -0.354 N 
HETATM    2  C   UNL     1     -40.938 -51.285  12.155  1.00  0.00     0.222 C 
HETATM    3  O   UNL     1     -39.889 -50.908  12.674  1.00  0.00    -0.273 OA
HETATM    4  H   UNL     1     -42.719 -50.743  11.254  1.00  0.00     0.162 HD
ENDROOT
BRANCH   2   5
HETATM    5  C   UNL     1     -41.197 -52.744  11.811  1.00  0.00     0.145 C 
BRANCH   5   6
HETATM    6  C   UNL     1     -41.799 -53.526  12.934  1.00  0.00    -0.002 A 
HETATM    7  C   UNL     1     -43.179 -53.767  13.201  1.00  0.00     0.030 A 
HETATM    8  C   UNL     1     -44.381 -53.330  12.446  1.00  0.00     0.070 C 
HETATM    9  N   UNL     1     -43.351 -54.484  14.316  1.00  0.00    -0.303 N 
HETATM   10  N   UNL     1     -42.113 -54.683  14.787  1.00  0.00    -0.300 N 
ATOM     11  HN  UNL     1     -44.231 -54.808  14.719  1.00  0.00     0.186 HD
HETATM   12  C   UNL     1     -41.950 -55.411  16.025  1.00  0.00     0.177 C 
HETATM   13  C   UNL     1     -41.137 -54.113  14.010  1.00  0.00     0.033 A 
HETATM   14  C   UNL     1     -39.692 -54.144  14.350  1.00  0.00     0.070 C 
ENDBRANCH   5   6
ENDBRANCH   2   5
BRANCH   1  15
HETATM   15  C   UNL     1     -41.829 -48.965  12.039  1.00  0.00     0.109 C 
HETATM   16  C   UNL     1     -42.847 -48.529  13.092  1.00  0.00     0.035 C 
BRANCH  15  17
HETATM   17  C   UNL     1     -41.953 -48.182  10.708  1.00  0.00     0.143 C 
HETATM   18  C   UNL     1     -41.320 -46.791  10.717  1.00  0.00     0.036 C 
HETATM   19  C   UNL     1     -42.294 -45.912   9.955  1.00  0.00     0.029 C 
HETATM   20  C   UNL     1     -43.330 -46.874   9.421  1.00  0.00     0.168 C 
HETATM   21  O   UNL     1     -43.332 -47.973  10.338  1.00  0.00    -0.384 OA
ENDBRANCH  15  17
ENDBRANCH   1  15
TORSDOF 4
ENDMDL
MODEL 4
REMARK VINA RESULT:      -5.0      3.799      5.336
REMARK  4 active torsions:
REMARK  status: ('A' for Active; 'I' for Inactive)
REMARK    1  A    between atoms: C_2  and  N_3 
REMARK    2  A    between atoms: C_2  and  C_16 
REMARK       I    between atoms: N_3  and  C_4 
REMARK    3  A    between atoms: C_4  and  C_6 
REMARK    4  A    between atoms: C_6  and  C_7 
ROOT
HETATM    1  N   UNL     1     -42.116 -49.829  11.663  1.00  0.00    -0.354 N 
HETATM    2  C   UNL     1     -41.130 -50.666  12.146  1.00  0.00     0.222 C 
HETATM    3  O   UNL     1     -40.215 -50.260  12.861  1.00  0.00    -0.273 OA
HETATM    4  H   UNL     1     -42.740 -50.175  10.945  1.00  0.00     0.162 HD
ENDROOT
BRANCH   2   5
HETATM    5  C   UNL     1     -41.246 -52.122  11.721  1.00  0.00     0.145 C 
BRANCH   5   6
HETATM    6  C   UNL     1     -41.654 -53.038  12.829  1.00  0.00    -0.002 A 
HETATM    7  C   UNL     1     -40.825 -53.674  13.799  1.00  0.00     0.030 A 
HETATM    8  C   UNL     1     -39.353 -53.595  13.986  1.00  0.00     0.070 C 
HETATM    9  N   UNL     1     -41.532 -54.454  14.623  1.00  0.00    -0.303 N 
HETATM   10  N   UNL     1     -42.793 -54.357  14.183  1.00  0.00    -0.300 N 
ATOM     11  HN  UNL     1     -41.187 -55.002  15.412  1.00  0.00     0.186 HD
HETATM   12  C   UNL     1     -43.822 -55.122  14.851  1.00  0.00     0.177 C 
HETATM   13  C   UNL     1     -42.928 -53.535  13.094  1.00  0.00     0.033 A 
HETATM   14  C   UNL     1     -44.215 -53.310  12.387  1.00  0.00     0.070 C 
ENDBRANCH   5   6
ENDBRANCH   2   5
BRANCH   1  15
HETATM   15  C   UNL     1     -42.103 -48.387  11.930  1.00  0.00     0.109 C 
HETATM   16  C   UNL     1     -42.875 -48.121  13.222  1.00  0.00     0.035 C 
BRANCH  15  17
HETATM   17  C   UNL     1     -42.637 -47.577  10.722  1.00  0.00     0.143 C 
HETATM   18  C   UNL     1     -44.155 -47.402  10.682  1.00  0.00     0.036 C 
HETATM   19  C   UNL     1     -44.531 -47.574   9.223  1.00  0.00     0.029 C 
HETATM   20  C   UNL     1     -43.207 -47.670   8.501  1.00  0.00     0.168 C 
HETATM   21  O   UNL     1     -42.290 -48.197   9.466  1.00  0.00    -0.384 OA
ENDBRANCH  15  17
ENDBRANCH   1  15
TORSDOF 4
ENDMDL
MODEL 5
REMARK VINA RESULT:      -5.0      3.725      5.168
REMARK  4 active torsions:
REMARK  status: ('A' for Active; 'I' for Inactive)
REMARK    1  A    between atoms: C_2  and  N_3 
REMARK    2  A    between atoms: C_2  and  C_16 
REMARK       I    between atoms: N_3  and  C_4 
REMARK    3  A    between atoms: C_4  and  C_6 
REMARK    4  A    between atoms: C_6  and  C_7 
ROOT
HETATM    1  N   UNL     1     -42.370 -51.095  12.129  1.00  0.00    -0.354 N 
HETATM    2  C   UNL     1     -41.042 -50.778  12.330  1.00  0.00     0.222 C 
HETATM    3  O   UNL     1     -40.426 -51.129  13.335  1.00  0.00    -0.273 OA
HETATM    4  H   UNL     1     -42.872 -50.640  11.377  1.00  0.00     0.162 HD
ENDROOT
BRANCH   2   5
HETATM    5  C   UNL     1     -40.396 -49.951  11.227  1.00  0.00     0.145 C 
BRANCH   5   6
HETATM    6  C   UNL     1     -40.506 -48.476  11.443  1.00  0.00    -0.002 A 
HETATM    7  C   UNL     1     -39.781 -47.663  12.363  1.00  0.00     0.030 A 
HETATM    8  C   UNL     1     -38.724 -48.042  13.335  1.00  0.00     0.070 C 
HETATM    9  N   UNL     1     -40.164 -46.383  12.304  1.00  0.00    -0.303 N 
HETATM   10  N   UNL     1     -41.141 -46.363  11.388  1.00  0.00    -0.300 N 
ATOM     11  HN  UNL     1     -39.794 -45.597  12.839  1.00  0.00     0.186 HD
HETATM   12  C   UNL     1     -41.804 -45.110  11.108  1.00  0.00     0.177 C 
HETATM   13  C   UNL     1     -41.407 -47.595  10.848  1.00  0.00     0.033 A 
HETATM   14  C   UNL     1     -42.483 -47.845   9.856  1.00  0.00     0.070 C 
ENDBRANCH   5   6
ENDBRANCH   2   5
BRANCH   1  15
HETATM   15  C   UNL     1     -43.148 -51.829  13.132  1.00  0.00     0.109 C 
HETATM   16  C   UNL     1     -43.214 -53.300  12.723  1.00  0.00     0.035 C 
BRANCH  15  17
HETATM   17  C   UNL     1     -44.544 -51.194  13.351  1.00  0.00     0.143 C 
HETATM   18  C   UNL     1     -44.954 -51.023  14.814  1.00  0.00     0.036 C 
HETATM   19  C   UNL     1     -46.423 -51.397  14.856  1.00  0.00     0.029 C 
HETATM   20  C   UNL     1     -46.803 -51.596  13.407  1.00  0.00     0.168 C 
HETATM   21  O   UNL     1     -45.592 -51.985  12.750  1.00  0.00    -0.384 OA
ENDBRANCH  15  17
ENDBRANCH   1  15
TORSDOF 4
ENDMDL
MODEL 6
REMARK VINA RESULT:      -5.0      4.139      5.872
REMARK  4 active torsions:
REMARK  status: ('A' for Active; 'I' for Inactive)
REMARK    1  A    between atoms: C_2  and  N_3 
REMARK    2  A    between atoms: C_2  and  C_16 
REMARK       I    between atoms: N_3  and  C_4 
REMARK    3  A    between atoms: C_4  and  C_6 
REMARK    4  A    between atoms: C_6  and  C_7 
ROOT
HETATM    1  N   UNL     1     -41.845 -49.558  11.224  1.00  0.00    -0.354 N 
HETATM    2  C   UNL     1     -41.534 -50.403  12.270  1.00  0.00     0.222 C 
HETATM    3  O   UNL     1     -41.509 -50.021  13.438  1.00  0.00    -0.273 OA
HETATM    4  H   UNL     1     -41.685 -49.875  10.276  1.00  0.00     0.162 HD
ENDROOT
BRANCH   2   5
HETATM    5  C   UNL     1     -41.210 -51.836  11.875  1.00  0.00     0.145 C 
BRANCH   5   6
HETATM    6  C   UNL     1     -41.486 -52.832  12.955  1.00  0.00    -0.002 A 
HETATM    7  C   UNL     1     -40.571 -53.387  13.898  1.00  0.00     0.030 A 
HETATM    8  C   UNL     1     -39.120 -53.127  14.076  1.00  0.00     0.070 C 
HETATM    9  N   UNL     1     -41.164 -54.276  14.701  1.00  0.00    -0.303 N 
HETATM   10  N   UNL     1     -42.433 -54.327  14.274  1.00  0.00    -0.300 N 
ATOM     11  HN  UNL     1     -40.743 -54.801  15.468  1.00  0.00     0.186 HD
HETATM   12  C   UNL     1     -43.348 -55.237  14.924  1.00  0.00     0.177 C 
HETATM   13  C   UNL     1     -42.684 -53.494  13.214  1.00  0.00     0.033 A 
HETATM   14  C   UNL     1     -43.997 -53.412  12.525  1.00  0.00     0.070 C 
ENDBRANCH   5   6
ENDBRANCH   2   5
BRANCH   1  15
HETATM   15  C   UNL     1     -42.114 -48.132  11.437  1.00  0.00     0.109 C 
HETATM   16  C   UNL     1     -43.392 -47.756  10.686  1.00  0.00     0.035 C 
BRANCH  15  17
HETATM   17  C   UNL     1     -40.898 -47.255  11.049  1.00  0.00     0.143 C 
HETATM   18  C   UNL     1     -40.073 -46.739  12.228  1.00  0.00     0.036 C 
HETATM   19  C   UNL     1     -39.721 -45.309  11.863  1.00  0.00     0.029 C 
HETATM   20  C   UNL     1     -40.217 -45.149  10.445  1.00  0.00     0.168 C 
HETATM   21  O   UNL     1     -41.299 -46.077  10.318  1.00  0.00    -0.384 OA
ENDBRANCH  15  17
ENDBRANCH   1  15
TORSDOF 4
ENDMDL
MODEL 7
REMARK VINA RESULT:      -5.0      3.268      6.235
REMARK  4 active torsions:
REMARK  status: ('A' for Active; 'I' for Inactive)
REMARK    1  A    between atoms: C_2  and  N_3 
REMARK    2  A    between atoms: C_2  and  C_16 
REMARK       I    between atoms: N_3  and  C_4 
REMARK    3  A    between atoms: C_4  and  C_6 
REMARK    4  A    between atoms: C_6  and  C_7 
ROOT
HETATM    1  N   UNL     1     -39.944 -52.442  14.055  1.00  0.00    -0.354 N 
HETATM    2  C   UNL     1     -39.930 -53.754  13.626  1.00  0.00     0.222 C 
HETATM    3  O   UNL     1     -38.936 -54.470  13.730  1.00  0.00    -0.273 OA
HETATM    4  H   UNL     1     -40.722 -51.850  13.791  1.00  0.00     0.162 HD
ENDROOT
BRANCH   2   5
HETATM    5  C   UNL     1     -41.227 -54.248  13.001  1.00  0.00     0.145 C 
BRANCH   5   6
HETATM    6  C   UNL     1     -42.383 -54.253  13.948  1.00  0.00    -0.002 A 
HETATM    7  C   UNL     1     -42.428 -54.751  15.283  1.00  0.00     0.030 A 
HETATM    8  C   UNL     1     -41.356 -55.380  16.097  1.00  0.00     0.070 C 
HETATM    9  N   UNL     1     -43.644 -54.619  15.823  1.00  0.00    -0.303 N 
HETATM   10  N   UNL     1     -44.389 -54.074  14.853  1.00  0.00    -0.300 N 
ATOM     11  HN  UNL     1     -43.939 -54.876  16.766  1.00  0.00     0.186 HD
HETATM   12  C   UNL     1     -45.790 -53.828  15.108  1.00  0.00     0.177 C 
HETATM   13  C   UNL     1     -43.692 -53.848  13.693  1.00  0.00     0.033 A 
HETATM   14  C   UNL     1     -44.307 -53.306  12.455  1.00  0.00     0.070 C 
ENDBRANCH   5   6
ENDBRANCH   2   5
BRANCH   1  15
HETATM   15  C   UNL     1     -38.751 -51.801  14.617  1.00  0.00     0.109 C 
HETATM   16  C   UNL     1     -39.101 -51.231  15.991  1.00  0.00     0.035 C 
BRANCH  15  17
HETATM   17  C   UNL     1     -38.159 -50.745  13.650  1.00  0.00     0.143 C 
HETATM   18  C   UNL     1     -39.186 -49.816  13.003  1.00  0.00     0.036 C 
HETATM   19  C   UNL     1     -38.725 -49.662  11.566  1.00  0.00     0.029 C 
HETATM   20  C   UNL     1     -37.390 -50.369  11.522  1.00  0.00     0.168 C 
HETATM   21  O   UNL     1     -37.454 -51.360  12.552  1.00  0.00    -0.384 OA
ENDBRANCH  15  17
ENDBRANCH   1  15
TORSDOF 4
ENDMDL
MODEL 8
REMARK VINA RESULT:      -5.0      3.139      5.485
REMARK  4 active torsions:
REMARK  status: ('A' for Active; 'I' for Inactive)
REMARK    1  A    between atoms: C_2  and  N_3 
REMARK    2  A    between atoms: C_2  and  C_16 
REMARK       I    between atoms: N_3  and  C_4 
REMARK    3  A    between atoms: C_4  and  C_6 
REMARK    4  A    between atoms: C_6  and  C_7 
ROOT
HETATM    1  N   UNL     1     -40.690 -51.807  12.845  1.00  0.00    -0.354 N 
HETATM    2  C   UNL     1     -40.168 -53.038  13.188  1.00  0.00     0.222 C 
HETATM    3  O   UNL     1     -39.028 -53.169  13.629  1.00  0.00    -0.273 OA
HETATM    4  H   UNL     1     -41.561 -51.772  12.330  1.00  0.00     0.162 HD
ENDROOT
BRANCH   2   5
HETATM    5  C   UNL     1     -41.098 -54.222  12.971  1.00  0.00     0.145 C 
BRANCH   5   6
HETATM    6  C   UNL     1     -42.224 -54.288  13.953  1.00  0.00    -0.002 A 
HETATM    7  C   UNL     1     -42.190 -54.744  15.304  1.00  0.00     0.030 A 
HETATM    8  C   UNL     1     -41.048 -55.259  16.102  1.00  0.00     0.070 C 
HETATM    9  N   UNL     1     -43.397 -54.690  15.877  1.00  0.00    -0.303 N 
HETATM   10  N   UNL     1     -44.210 -54.238  14.913  1.00  0.00    -0.300 N 
ATOM     11  HN  UNL     1     -43.644 -54.939  16.835  1.00  0.00     0.186 HD
HETATM   12  C   UNL     1     -45.619 -54.096  15.204  1.00  0.00     0.177 C 
HETATM   13  C   UNL     1     -43.567 -53.996  13.726  1.00  0.00     0.033 A 
HETATM   14  C   UNL     1     -44.259 -53.546  12.491  1.00  0.00     0.070 C 
ENDBRANCH   5   6
ENDBRANCH   2   5
BRANCH   1  15
HETATM   15  C   UNL     1     -39.893 -50.579  12.933  1.00  0.00     0.109 C 
HETATM   16  C   UNL     1     -40.198 -49.891  14.264  1.00  0.00     0.035 C 
BRANCH  15  17
HETATM   17  C   UNL     1     -40.116 -49.661  11.706  1.00  0.00     0.143 C 
HETATM   18  C   UNL     1     -39.529 -48.256  11.836  1.00  0.00     0.036 C 
HETATM   19  C   UNL     1     -40.572 -47.337  11.227  1.00  0.00     0.029 C 
HETATM   20  C   UNL     1     -41.604 -48.274  10.644  1.00  0.00     0.168 C 
HETATM   21  O   UNL     1     -41.520 -49.465  11.433  1.00  0.00    -0.384 OA
ENDBRANCH  15  17
ENDBRANCH   1  15
TORSDOF 4
ENDMDL
MODEL 9
REMARK VINA RESULT:      -4.9      4.378      5.871
REMARK  4 active torsions:
REMARK  status: ('A' for Active; 'I' for Inactive)
REMARK    1  A    between atoms: C_2  and  N_3 
REMARK    2  A    between atoms: C_2  and  C_16 
REMARK       I    between atoms: N_3  and  C_4 
REMARK    3  A    between atoms: C_4  and  C_6 
REMARK    4  A    between atoms: C_6  and  C_7 
ROOT
HETATM    1  N   UNL     1     -42.329 -50.920  11.993  1.00  0.00    -0.354 N 
HETATM    2  C   UNL     1     -41.676 -49.733  12.256  1.00  0.00     0.222 C 
HETATM    3  O   UNL     1     -41.608 -49.257  13.388  1.00  0.00    -0.273 OA
HETATM    4  H   UNL     1     -42.504 -51.177  11.029  1.00  0.00     0.162 HD
ENDROOT
BRANCH   2   5
HETATM    5  C   UNL     1     -41.058 -49.047  11.047  1.00  0.00     0.145 C 
BRANCH   5   6
HETATM    6  C   UNL     1     -41.433 -47.606  10.920  1.00  0.00    -0.002 A 
HETATM    7  C   UNL     1     -42.405 -47.020  10.056  1.00  0.00     0.030 A 
HETATM    8  C   UNL     1     -43.310 -47.665   9.071  1.00  0.00     0.070 C 
HETATM    9  N   UNL     1     -42.451 -45.690  10.189  1.00  0.00    -0.303 N 
HETATM   10  N   UNL     1     -41.508 -45.407  11.097  1.00  0.00    -0.300 N 
ATOM     11  HN  UNL     1     -43.068 -45.036   9.706  1.00  0.00     0.186 HD
HETATM   12  C   UNL     1     -41.275 -44.024  11.448  1.00  0.00     0.177 C 
HETATM   13  C   UNL     1     -40.847 -46.516  11.560  1.00  0.00     0.033 A 
HETATM   14  C   UNL     1     -39.721 -46.459  12.527  1.00  0.00     0.070 C 
ENDBRANCH   5   6
ENDBRANCH   2   5
BRANCH   1  15
HETATM   15  C   UNL     1     -43.032 -51.664  13.043  1.00  0.00     0.109 C 
HETATM   16  C   UNL     1     -43.042 -53.146  12.671  1.00  0.00     0.035 C 
BRANCH  15  17
HETATM   17  C   UNL     1     -44.448 -51.090  13.301  1.00  0.00     0.143 C 
HETATM   18  C   UNL     1     -44.812 -50.911  14.775  1.00  0.00     0.036 C 
HETATM   19  C   UNL     1     -46.260 -51.352  14.877  1.00  0.00     0.029 C 
HETATM   20  C   UNL     1     -46.681 -51.595  13.446  1.00  0.00     0.168 C 
HETATM   21  O   UNL     1     -45.477 -51.940  12.753  1.00  0.00    -0.384 OA
ENDBRANCH  15  17
ENDBRANCH   1  15
TORSDOF 4
ENDMDL
