MODEL 1
REMARK VINA RESULT:      -6.1      0.000      0.000
REMARK  5 active torsions:
REMARK  status: ('A' for Active; 'I' for Inactive)
REMARK    1  A    between atoms: N_2  and  C_4 
REMARK    2  A    between atoms: C_4  and  C_5 
REMARK    3  A    between atoms: C_5  and  N_6 
REMARK       I    between atoms: N_6  and  C_7 
REMARK    4  A    between atoms: C_7  and  C_9 
REMARK    5  A    between atoms: C_9  and  N_10 
ROOT
HETATM    1  N   UNL     1     -42.350 -52.486  11.790  1.00  0.00    -0.357 N 
HETATM    2  C   UNL     1     -42.806 -53.316  12.792  1.00  0.00     0.235 C 
HETATM    3  O   UNL     1     -42.194 -53.573  13.825  1.00  0.00    -0.272 OA
HETATM    4  H   UNL     1     -43.020 -52.250  11.062  1.00  0.00     0.162 HD
ENDROOT
BRANCH   1   5
HETATM    5  C   UNL     1     -41.085 -51.740  11.799  1.00  0.00     0.164 C 
BRANCH   5   6
HETATM    6  C   UNL     1     -41.060 -50.325  12.516  1.00  0.00     0.174 C 
HETATM    7  C   UNL     1     -40.535 -50.454  13.992  1.00  0.00     0.043 C 
HETATM    8  C   UNL     1     -39.300 -51.315  14.268  1.00  0.00     0.003 C 
HETATM    9  C   UNL     1     -37.924 -50.875  13.774  1.00  0.00     0.000 C 
HETATM   10  C   UNL     1     -37.808 -49.705  12.813  1.00  0.00     0.000 C 
HETATM   11  C   UNL     1     -38.657 -49.817  11.557  1.00  0.00     0.003 C 
HETATM   12  C   UNL     1     -40.095 -49.343  11.782  1.00  0.00     0.043 C 
BRANCH   6  13
HETATM   13  N   UNL     1     -42.459 -49.734  12.497  1.00  0.00     0.091 N 
HETATM   14  C   UNL     1     -43.054 -49.481  13.811  1.00  0.00     0.310 C 
HETATM   15  C   UNL     1     -42.629 -48.557  11.647  1.00  0.00     0.310 C 
ENDBRANCH   6  13
ENDBRANCH   5   6
ENDBRANCH   1   5
BRANCH   2  16
HETATM   16  C   UNL     1     -44.225 -53.852  12.593  1.00  0.00     0.234 C 
BRANCH  16  17
HETATM   17  N   UNL     1     -45.190 -53.214  13.482  1.00  0.00    -0.316 N 
HETATM   18  C   UNL     1     -45.699 -51.971  13.151  1.00  0.00     0.095 A 
HETATM   19  C   UNL     1     -46.575 -51.354  13.956  1.00  0.00     0.017 A 
HETATM   20  C   UNL     1     -47.001 -51.978  15.178  1.00  0.00     0.007 A 
HETATM   21  C   UNL     1     -46.517 -53.174  15.533  1.00  0.00     0.074 A 
HETATM   22  C   UNL     1     -45.520 -53.864  14.667  1.00  0.00     0.247 A 
HETATM   23  O   UNL     1     -45.035 -54.931  15.027  1.00  0.00    -0.268 OA
ENDBRANCH  16  17
ENDBRANCH   2  16
TORSDOF 5
ENDMDL
MODEL 2
REMARK VINA RESULT:      -5.8      2.157      6.588
REMARK  5 active torsions:
REMARK  status: ('A' for Active; 'I' for Inactive)
REMARK    1  A    between atoms: N_2  and  C_4 
REMARK    2  A    between atoms: C_4  and  C_5 
REMARK    3  A    between atoms: C_5  and  N_6 
REMARK       I    between atoms: N_6  and  C_7 
REMARK    4  A    between atoms: C_7  and  C_9 
REMARK    5  A    between atoms: C_9  and  N_10 
ROOT
HETATM    1  N   UNL     1     -42.261 -52.030  11.983  1.00  0.00    -0.357 N 
HETATM    2  C   UNL     1     -41.937 -50.700  12.152  1.00  0.00     0.235 C 
HETATM    3  O   UNL     1     -42.598 -49.892  12.798  1.00  0.00    -0.272 OA
HETATM    4  H   UNL     1     -41.551 -52.613  11.547  1.00  0.00     0.162 HD
ENDROOT
BRANCH   1   5
HETATM    5  C   UNL     1     -43.418 -52.716  12.572  1.00  0.00     0.164 C 
BRANCH   5   6
HETATM    6  C   UNL     1     -43.339 -53.130  14.102  1.00  0.00     0.174 C 
HETATM    7  C   UNL     1     -44.204 -52.163  14.990  1.00  0.00     0.043 C 
HETATM    8  C   UNL     1     -45.610 -51.782  14.518  1.00  0.00     0.003 C 
HETATM    9  C   UNL     1     -46.727 -52.824  14.492  1.00  0.00     0.000 C 
HETATM   10  C   UNL     1     -46.394 -54.289  14.712  1.00  0.00     0.000 C 
HETATM   11  C   UNL     1     -45.316 -54.849  13.798  1.00  0.00     0.003 C 
HETATM   12  C   UNL     1     -43.905 -54.567  14.322  1.00  0.00     0.043 C 
BRANCH   6  13
HETATM   13  N   UNL     1     -41.887 -53.107  14.548  1.00  0.00     0.091 N 
HETATM   14  C   UNL     1     -41.570 -52.152  15.612  1.00  0.00     0.310 C 
HETATM   15  C   UNL     1     -41.312 -54.411  14.872  1.00  0.00     0.310 C 
ENDBRANCH   6  13
ENDBRANCH   5   6
ENDBRANCH   1   5
BRANCH   2  16
HETATM   16  C   UNL     1     -40.596 -50.279  11.549  1.00  0.00     0.234 C 
BRANCH  16  17
HETATM   17  N   UNL     1     -39.586 -50.016  12.567  1.00  0.00    -0.316 N 
HETATM   18  C   UNL     1     -39.272 -48.707  12.889  1.00  0.00     0.095 A 
HETATM   19  C   UNL     1     -38.337 -48.434  13.810  1.00  0.00     0.017 A 
HETATM   20  C   UNL     1     -37.647 -49.500  14.481  1.00  0.00     0.007 A 
HETATM   21  C   UNL     1     -37.918 -50.776  14.182  1.00  0.00     0.074 A 
HETATM   22  C   UNL     1     -38.932 -51.101  13.141  1.00  0.00     0.247 A 
HETATM   23  O   UNL     1     -39.133 -52.270  12.830  1.00  0.00    -0.268 OA
ENDBRANCH  16  17
ENDBRANCH   2  16
TORSDOF 5
ENDMDL
MODEL 3
REMARK VINA RESULT:      -5.7      2.574      6.660
REMARK  5 active torsions:
REMARK  status: ('A' for Active; 'I' for Inactive)
REMARK    1  A    between atoms: N_2  and  C_4 
REMARK    2  A    between atoms: C_4  and  C_5 
REMARK    3  A    between atoms: C_5  and  N_6 
REMARK       I    between atoms: N_6  and  C_7 
REMARK    4  A    between atoms: C_7  and  C_9 
REMARK    5  A    between atoms: C_9  and  N_10 
ROOT
HETATM    1  N   UNL     1     -40.675 -51.605  11.723  1.00  0.00    -0.357 N 
HETATM    2  C   UNL     1     -40.533 -50.236  11.645  1.00  0.00     0.235 C 
HETATM    3  O   UNL     1     -41.449 -49.426  11.758  1.00  0.00    -0.272 OA
HETATM    4  H   UNL     1     -39.814 -52.145  11.756  1.00  0.00     0.162 HD
ENDROOT
BRANCH   1   5
HETATM    5  C   UNL     1     -41.925 -52.327  11.993  1.00  0.00     0.164 C 
BRANCH   5   6
HETATM    6  C   UNL     1     -42.275 -52.673  13.502  1.00  0.00     0.174 C 
HETATM    7  C   UNL     1     -43.130 -51.527  14.155  1.00  0.00     0.043 C 
HETATM    8  C   UNL     1     -44.298 -50.930  13.364  1.00  0.00     0.003 C 
HETATM    9  C   UNL     1     -45.549 -51.761  13.085  1.00  0.00     0.000 C 
HETATM   10  C   UNL     1     -45.546 -53.249  13.388  1.00  0.00     0.000 C 
HETATM   11  C   UNL     1     -44.407 -54.033  12.757  1.00  0.00     0.003 C 
HETATM   12  C   UNL     1     -43.127 -53.976  13.594  1.00  0.00     0.043 C 
BRANCH   6  13
HETATM   13  N   UNL     1     -40.984 -52.881  14.276  1.00  0.00     0.091 N 
HETATM   14  C   UNL     1     -40.721 -51.907  15.337  1.00  0.00     0.310 C 
HETATM   15  C   UNL     1     -40.775 -54.234  14.788  1.00  0.00     0.310 C 
ENDBRANCH   6  13
ENDBRANCH   5   6
ENDBRANCH   1   5
BRANCH   2  16
HETATM   16  C   UNL     1     -39.093 -49.742  11.501  1.00  0.00     0.234 C 
BRANCH  16  17
HETATM   17  N   UNL     1     -38.454 -49.508  12.791  1.00  0.00    -0.316 N 
HETATM   18  C   UNL     1     -38.454 -48.232  13.327  1.00  0.00     0.095 A 
HETATM   19  C   UNL     1     -37.861 -47.983  14.503  1.00  0.00     0.017 A 
HETATM   20  C   UNL     1     -37.216 -49.043  15.228  1.00  0.00     0.007 A 
HETATM   21  C   UNL     1     -37.187 -50.284  14.730  1.00  0.00     0.074 A 
HETATM   22  C   UNL     1     -37.815 -50.576  13.411  1.00  0.00     0.247 A 
HETATM   23  O   UNL     1     -37.733 -51.702  12.933  1.00  0.00    -0.268 OA
ENDBRANCH  16  17
ENDBRANCH   2  16
TORSDOF 5
ENDMDL
MODEL 4
REMARK VINA RESULT:      -5.7      1.269      2.809
REMARK  5 active torsions:
REMARK  status: ('A' for Active; 'I' for Inactive)
REMARK    1  A    between atoms: N_2  and  C_4 
REMARK    2  A    between atoms: C_4  and  C_5 
REMARK    3  A    between atoms: C_5  and  N_6 
REMARK       I    between atoms: N_6  and  C_7 
REMARK    4  A    between atoms: C_7  and  C_9 
REMARK    5  A    between atoms: C_9  and  N_10 
ROOT
HETATM    1  N   UNL     1     -42.917 -52.779  12.145  1.00  0.00    -0.357 N 
HETATM    2  C   UNL     1     -43.213 -53.836  12.979  1.00  0.00     0.235 C 
HETATM    3  O   UNL     1     -42.407 -54.397  13.717  1.00  0.00    -0.272 OA
HETATM    4  H   UNL     1     -43.710 -52.322  11.701  1.00  0.00     0.162 HD
ENDROOT
BRANCH   1   5
HETATM    5  C   UNL     1     -41.611 -52.119  12.021  1.00  0.00     0.164 C 
BRANCH   5   6
HETATM    6  C   UNL     1     -41.211 -51.048  13.122  1.00  0.00     0.174 C 
HETATM    7  C   UNL     1     -40.263 -49.949  12.516  1.00  0.00     0.043 C 
HETATM    8  C   UNL     1     -40.607 -49.344  11.153  1.00  0.00     0.003 C 
HETATM    9  C   UNL     1     -41.827 -48.439  10.993  1.00  0.00     0.000 C 
HETATM   10  C   UNL     1     -42.831 -48.323  12.127  1.00  0.00     0.000 C 
HETATM   11  C   UNL     1     -43.388 -49.644  12.632  1.00  0.00     0.003 C 
HETATM   12  C   UNL     1     -42.471 -50.305  13.664  1.00  0.00     0.043 C 
BRANCH   6  13
HETATM   13  N   UNL     1     -40.530 -51.758  14.280  1.00  0.00     0.091 N 
HETATM   14  C   UNL     1     -39.389 -52.602  13.920  1.00  0.00     0.310 C 
HETATM   15  C   UNL     1     -40.172 -50.904  15.411  1.00  0.00     0.310 C 
ENDBRANCH   6  13
ENDBRANCH   5   6
ENDBRANCH   1   5
BRANCH   2  16
HETATM   16  C   UNL     1     -44.689 -54.236  13.020  1.00  0.00     0.234 C 
BRANCH  16  17
HETATM   17  N   UNL     1     -45.484 -53.341  13.852  1.00  0.00    -0.316 N 
HETATM   18  C   UNL     1     -46.022 -52.194  13.295  1.00  0.00     0.095 A 
HETATM   19  C   UNL     1     -46.744 -51.344  14.039  1.00  0.00     0.017 A 
HETATM   20  C   UNL     1     -46.973 -51.615  15.431  1.00  0.00     0.007 A 
HETATM   21  C   UNL     1     -46.456 -52.708  16.004  1.00  0.00     0.074 A 
HETATM   22  C   UNL     1     -45.626 -53.650  15.201  1.00  0.00     0.247 A 
HETATM   23  O   UNL     1     -45.105 -54.618  15.745  1.00  0.00    -0.268 OA
ENDBRANCH  16  17
ENDBRANCH   2  16
TORSDOF 5
ENDMDL
MODEL 5
REMARK VINA RESULT:      -5.6      2.284      6.818
REMARK  5 active torsions:
REMARK  status: ('A' for Active; 'I' for Inactive)
REMARK    1  A    between atoms: N_2  and  C_4 
REMARK    2  A    between atoms: C_4  and  C_5 
REMARK    3  A    between atoms: C_5  and  N_6 
REMARK       I    between atoms: N_6  and  C_7 
REMARK    4  A    between atoms: C_7  and  C_9 
REMARK    5  A    between atoms: C_9  and  N_10 
ROOT
HETATM    1  N   UNL     1     -42.284 -52.096  11.949  1.00  0.00    -0.357 N 
HETATM    2  C   UNL     1     -41.876 -50.797  12.167  1.00  0.00     0.235 C 
HETATM    3  O   UNL     1     -42.459 -49.989  12.885  1.00  0.00    -0.272 OA
HETATM    4  H   UNL     1     -41.629 -52.693  11.450  1.00  0.00     0.162 HD
ENDROOT
BRANCH   1   5
HETATM    5  C   UNL     1     -43.449 -52.748  12.560  1.00  0.00     0.164 C 
BRANCH   5   6
HETATM    6  C   UNL     1     -43.355 -53.158  14.090  1.00  0.00     0.174 C 
HETATM    7  C   UNL     1     -44.262 -52.228  14.976  1.00  0.00     0.043 C 
HETATM    8  C   UNL     1     -45.682 -51.905  14.502  1.00  0.00     0.003 C 
HETATM    9  C   UNL     1     -46.754 -52.993  14.474  1.00  0.00     0.000 C 
HETATM   10  C   UNL     1     -46.360 -54.444  14.695  1.00  0.00     0.000 C 
HETATM   11  C   UNL     1     -45.258 -54.958  13.784  1.00  0.00     0.003 C 
HETATM   12  C   UNL     1     -43.861 -54.618  14.310  1.00  0.00     0.043 C 
BRANCH   6  13
HETATM   13  N   UNL     1     -41.907 -53.074  14.540  1.00  0.00     0.091 N 
HETATM   14  C   UNL     1     -41.664 -52.270  15.739  1.00  0.00     0.310 C 
HETATM   15  C   UNL     1     -41.215 -54.356  14.660  1.00  0.00     0.310 C 
ENDBRANCH   6  13
ENDBRANCH   5   6
ENDBRANCH   1   5
BRANCH   2  16
HETATM   16  C   UNL     1     -40.543 -50.418  11.520  1.00  0.00     0.234 C 
BRANCH  16  17
HETATM   17  N   UNL     1     -39.503 -50.147  12.505  1.00  0.00    -0.316 N 
HETATM   18  C   UNL     1     -39.054 -51.173  13.318  1.00  0.00     0.095 A 
HETATM   19  C   UNL     1     -38.111 -50.950  14.244  1.00  0.00     0.017 A 
HETATM   20  C   UNL     1     -37.548 -49.638  14.404  1.00  0.00     0.007 A 
HETATM   21  C   UNL     1     -37.971 -48.621  13.643  1.00  0.00     0.074 A 
HETATM   22  C   UNL     1     -39.039 -48.841  12.629  1.00  0.00     0.247 A 
HETATM   23  O   UNL     1     -39.464 -47.894  11.976  1.00  0.00    -0.268 OA
ENDBRANCH  16  17
ENDBRANCH   2  16
TORSDOF 5
ENDMDL
MODEL 6
REMARK VINA RESULT:      -5.4      2.417      6.050
REMARK  5 active torsions:
REMARK  status: ('A' for Active; 'I' for Inactive)
REMARK    1  A    between atoms: N_2  and  C_4 
REMARK    2  A    between atoms: C_4  and  C_5 
REMARK    3  A    between atoms: C_5  and  N_6 
REMARK       I    between atoms: N_6  and  C_7 
REMARK    4  A    between atoms: C_7  and  C_9 
REMARK    5  A    between atoms: C_9  and  N_10 
ROOT
HETATM    1  N   UNL     1     -42.095 -51.493  12.015  1.00  0.00    -0.357 N 
HETATM    2  C   UNL     1     -40.780 -51.093  11.901  1.00  0.00     0.235 C 
HETATM    3  O   UNL     1     -39.809 -51.772  12.223  1.00  0.00    -0.272 OA
HETATM    4  H   UNL     1     -42.787 -50.890  11.577  1.00  0.00     0.162 HD
ENDROOT
BRANCH   1   5
HETATM    5  C   UNL     1     -42.559 -52.800  12.498  1.00  0.00     0.164 C 
BRANCH   5   6
HETATM    6  C   UNL     1     -43.026 -52.913  14.010  1.00  0.00     0.174 C 
HETATM    7  C   UNL     1     -43.674 -51.566  14.498  1.00  0.00     0.043 C 
HETATM    8  C   UNL     1     -44.676 -50.852  13.587  1.00  0.00     0.003 C 
HETATM    9  C   UNL     1     -46.050 -51.464  13.318  1.00  0.00     0.000 C 
HETATM   10  C   UNL     1     -46.340 -52.886  13.764  1.00  0.00     0.000 C 
HETATM   11  C   UNL     1     -45.346 -53.929  13.279  1.00  0.00     0.003 C 
HETATM   12  C   UNL     1     -44.112 -54.020  14.179  1.00  0.00     0.043 C 
BRANCH   6  13
HETATM   13  N   UNL     1     -41.828 -53.271  14.874  1.00  0.00     0.091 N 
HETATM   14  C   UNL     1     -40.868 -54.196  14.269  1.00  0.00     0.310 C 
HETATM   15  C   UNL     1     -41.115 -52.134  15.454  1.00  0.00     0.310 C 
ENDBRANCH   6  13
ENDBRANCH   5   6
ENDBRANCH   1   5
BRANCH   2  16
HETATM   16  C   UNL     1     -40.572 -49.735  11.228  1.00  0.00     0.234 C 
BRANCH  16  17
HETATM   17  N   UNL     1     -41.402 -48.691  11.816  1.00  0.00    -0.316 N 
HETATM   18  C   UNL     1     -41.409 -48.522  13.190  1.00  0.00     0.095 A 
HETATM   19  C   UNL     1     -42.174 -47.581  13.760  1.00  0.00     0.017 A 
HETATM   20  C   UNL     1     -42.999 -46.728  12.950  1.00  0.00     0.007 A 
HETATM   21  C   UNL     1     -43.025 -46.874  11.620  1.00  0.00     0.074 A 
HETATM   22  C   UNL     1     -42.205 -47.934  10.969  1.00  0.00     0.247 A 
HETATM   23  O   UNL     1     -42.279 -48.102   9.756  1.00  0.00    -0.268 OA
ENDBRANCH  16  17
ENDBRANCH   2  16
TORSDOF 5
ENDMDL
MODEL 7
REMARK VINA RESULT:      -5.2      2.317      6.204
REMARK  5 active torsions:
REMARK  status: ('A' for Active; 'I' for Inactive)
REMARK    1  A    between atoms: N_2  and  C_4 
REMARK    2  A    between atoms: C_4  and  C_5 
REMARK    3  A    between atoms: C_5  and  N_6 
REMARK       I    between atoms: N_6  and  C_7 
REMARK    4  A    between atoms: C_7  and  C_9 
REMARK    5  A    between atoms: C_9  and  N_10 
ROOT
HETATM    1  N   UNL     1     -42.520 -51.642  12.154  1.00  0.00    -0.357 N 
HETATM    2  C   UNL     1     -41.147 -51.647  12.022  1.00  0.00     0.235 C 
HETATM    3  O   UNL     1     -40.425 -52.618  12.230  1.00  0.00    -0.272 OA
HETATM    4  H   UNL     1     -43.000 -50.814  11.811  1.00  0.00     0.162 HD
ENDROOT
BRANCH   1   5
HETATM    5  C   UNL     1     -43.354 -52.793  12.521  1.00  0.00     0.164 C 
BRANCH   5   6
HETATM    6  C   UNL     1     -44.330 -52.639  13.762  1.00  0.00     0.174 C 
HETATM    7  C   UNL     1     -44.840 -54.043  14.252  1.00  0.00     0.043 C 
HETATM    8  C   UNL     1     -43.837 -55.192  14.386  1.00  0.00     0.003 C 
HETATM    9  C   UNL     1     -42.763 -55.157  15.471  1.00  0.00     0.000 C 
HETATM   10  C   UNL     1     -42.540 -53.885  16.270  1.00  0.00     0.000 C 
HETATM   11  C   UNL     1     -42.295 -52.637  15.438  1.00  0.00     0.003 C 
HETATM   12  C   UNL     1     -43.598 -51.982  14.973  1.00  0.00     0.043 C 
BRANCH   6  13
HETATM   13  N   UNL     1     -45.502 -51.756  13.366  1.00  0.00     0.091 N 
HETATM   14  C   UNL     1     -46.295 -52.232  12.232  1.00  0.00     0.310 C 
HETATM   15  C   UNL     1     -46.391 -51.371  14.460  1.00  0.00     0.310 C 
ENDBRANCH   6  13
ENDBRANCH   5   6
ENDBRANCH   1   5
BRANCH   2  16
HETATM   16  C   UNL     1     -40.543 -50.349  11.483  1.00  0.00     0.234 C 
BRANCH  16  17
HETATM   17  N   UNL     1     -39.816 -49.607  12.506  1.00  0.00    -0.316 N 
HETATM   18  C   UNL     1     -40.516 -49.021  13.546  1.00  0.00     0.095 A 
HETATM   19  C   UNL     1     -39.876 -48.320  14.492  1.00  0.00     0.017 A 
HETATM   20  C   UNL     1     -38.448 -48.168  14.442  1.00  0.00     0.007 A 
HETATM   21  C   UNL     1     -37.744 -48.711  13.442  1.00  0.00     0.074 A 
HETATM   22  C   UNL     1     -38.438 -49.469  12.364  1.00  0.00     0.247 A 
HETATM   23  O   UNL     1     -37.795 -49.913  11.419  1.00  0.00    -0.268 OA
ENDBRANCH  16  17
ENDBRANCH   2  16
TORSDOF 5
ENDMDL
MODEL 8
REMARK VINA RESULT:      -5.2      1.872      3.263
REMARK  5 active torsions:
REMARK  status: ('A' for Active; 'I' for Inactive)
REMARK    1  A    between atoms: N_2  and  C_4 
REMARK    2  A    between atoms: C_4  and  C_5 
REMARK    3  A    between atoms: C_5  and  N_6 
REMARK       I    between atoms: N_6  and  C_7 
REMARK    4  A    between atoms: C_7  and  C_9 
REMARK    5  A    between atoms: C_9  and  N_10 
ROOT
HETATM    1  N   UNL     1     -41.968 -52.234  14.315  1.00  0.00    -0.357 N 
HETATM    2  C   UNL     1     -42.370 -52.411  13.007  1.00  0.00     0.235 C 
HETATM    3  O   UNL     1     -41.840 -51.885  12.032  1.00  0.00    -0.272 OA
HETATM    4  H   UNL     1     -42.405 -52.842  15.004  1.00  0.00     0.162 HD
ENDROOT
BRANCH   1   5
HETATM    5  C   UNL     1     -40.826 -51.429  14.764  1.00  0.00     0.164 C 
BRANCH   5   6
HETATM    6  C   UNL     1     -39.408 -52.136  14.860  1.00  0.00     0.174 C 
HETATM    7  C   UNL     1     -38.589 -51.930  13.534  1.00  0.00     0.043 C 
HETATM    8  C   UNL     1     -38.551 -50.540  12.893  1.00  0.00     0.003 C 
HETATM    9  C   UNL     1     -37.811 -49.392  13.578  1.00  0.00     0.000 C 
HETATM   10  C   UNL     1     -37.308 -49.564  15.001  1.00  0.00     0.000 C 
HETATM   11  C   UNL     1     -38.359 -50.006  16.006  1.00  0.00     0.003 C 
HETATM   12  C   UNL     1     -38.555 -51.524  16.014  1.00  0.00     0.043 C 
BRANCH   6  13
HETATM   13  N   UNL     1     -39.609 -53.616  15.137  1.00  0.00     0.091 N 
HETATM   14  C   UNL     1     -39.219 -54.519  14.053  1.00  0.00     0.310 C 
HETATM   15  C   UNL     1     -39.051 -54.096  16.400  1.00  0.00     0.310 C 
ENDBRANCH   6  13
ENDBRANCH   5   6
ENDBRANCH   1   5
BRANCH   2  16
HETATM   16  C   UNL     1     -43.502 -53.420  12.808  1.00  0.00     0.234 C 
BRANCH  16  17
HETATM   17  N   UNL     1     -44.709 -53.054  13.538  1.00  0.00    -0.316 N 
HETATM   18  C   UNL     1     -45.305 -51.829  13.293  1.00  0.00     0.095 A 
HETATM   19  C   UNL     1     -46.407 -51.458  13.960  1.00  0.00     0.017 A 
HETATM   20  C   UNL     1     -46.989 -52.331  14.942  1.00  0.00     0.007 A 
HETATM   21  C   UNL     1     -46.429 -53.516  15.212  1.00  0.00     0.074 A 
HETATM   22  C   UNL     1     -45.188 -53.935  14.502  1.00  0.00     0.247 A 
HETATM   23  O   UNL     1     -44.646 -54.995  14.797  1.00  0.00    -0.268 OA
ENDBRANCH  16  17
ENDBRANCH   2  16
TORSDOF 5
ENDMDL
MODEL 9
REMARK VINA RESULT:      -5.1      2.365      3.955
REMARK  5 active torsions:
REMARK  status: ('A' for Active; 'I' for Inactive)
REMARK    1  A    between atoms: N_2  and  C_4 
REMARK    2  A    between atoms: C_4  and  C_5 
REMARK    3  A    between atoms: C_5  and  N_6 
REMARK       I    between atoms: N_6  and  C_7 
REMARK    4  A    between atoms: C_7  and  C_9 
REMARK    5  A    between atoms: C_9  and  N_10 
ROOT
HETATM    1  N   UNL     1     -40.663 -51.240  13.837  1.00  0.00    -0.357 N 
HETATM    2  C   UNL     1     -40.942 -51.828  12.621  1.00  0.00     0.235 C 
HETATM    3  O   UNL     1     -41.047 -51.224  11.557  1.00  0.00    -0.272 OA
HETATM    4  H   UNL     1     -40.462 -51.875  14.606  1.00  0.00     0.162 HD
ENDROOT
BRANCH   1   5
HETATM    5  C   UNL     1     -40.406 -49.813  14.066  1.00  0.00     0.164 C 
BRANCH   5   6
HETATM    6  C   UNL     1     -38.932 -49.274  13.833  1.00  0.00     0.174 C 
HETATM    7  C   UNL     1     -38.757 -48.739  12.365  1.00  0.00     0.043 C 
HETATM    8  C   UNL     1     -39.849 -47.850  11.764  1.00  0.00     0.003 C 
HETATM    9  C   UNL     1     -40.075 -46.436  12.297  1.00  0.00     0.000 C 
HETATM   10  C   UNL     1     -39.378 -45.991  13.571  1.00  0.00     0.000 C 
HETATM   11  C   UNL     1     -39.589 -46.900  14.771  1.00  0.00     0.003 C 
HETATM   12  C   UNL     1     -38.615 -48.081  14.786  1.00  0.00     0.043 C 
BRANCH   6  13
HETATM   13  N   UNL     1     -37.945 -50.394  14.112  1.00  0.00     0.091 N 
HETATM   14  C   UNL     1     -37.266 -50.944  12.938  1.00  0.00     0.310 C 
HETATM   15  C   UNL     1     -36.964 -50.114  15.159  1.00  0.00     0.310 C 
ENDBRANCH   6  13
ENDBRANCH   5   6
ENDBRANCH   1   5
BRANCH   2  16
HETATM   16  C   UNL     1     -41.020 -53.355  12.642  1.00  0.00     0.234 C 
BRANCH  16  17
HETATM   17  N   UNL     1     -42.275 -53.840  13.203  1.00  0.00    -0.316 N 
HETATM   18  C   UNL     1     -43.462 -53.567  12.548  1.00  0.00     0.095 A 
HETATM   19  C   UNL     1     -44.633 -53.986  13.048  1.00  0.00     0.017 A 
HETATM   20  C   UNL     1     -44.672 -54.730  14.276  1.00  0.00     0.007 A 
HETATM   21  C   UNL     1     -43.543 -54.999  14.942  1.00  0.00     0.074 A 
HETATM   22  C   UNL     1     -42.234 -54.518  14.418  1.00  0.00     0.247 A 
HETATM   23  O   UNL     1     -41.210 -54.715  15.063  1.00  0.00    -0.268 OA
ENDBRANCH  16  17
ENDBRANCH   2  16
TORSDOF 5
ENDMDL
