MODEL 1
REMARK VINA RESULT:      -6.4      0.000      0.000
REMARK  4 active torsions:
REMARK  status: ('A' for Active; 'I' for Inactive)
REMARK    1  A    between atoms: C_2  and  C_3 
REMARK    2  A    between atoms: C_2  and  N_15 
REMARK    3  A    between atoms: C_3  and  N_4 
REMARK       I    between atoms: N_4  and  C_5 
REMARK       I    between atoms: C_5  and  N_7 
REMARK    4  A    between atoms: N_7  and  C_8 
ROOT
HETATM    1  N   UNL     1     -42.183 -49.649  11.543  1.00  0.00    -0.341 N 
HETATM    2  C   UNL     1     -41.209 -48.798  11.139  1.00  0.00     0.321 C 
HETATM    3  O   UNL     1     -40.083 -48.779  11.634  1.00  0.00    -0.247 OA
HETATM    4  N   UNL     1     -41.533 -47.912  10.152  1.00  0.00    -0.293 N 
HETATM    5  H   UNL     1     -43.007 -49.736  10.950  1.00  0.00     0.164 HD
HETATM    6  H   UNL     1     -40.791 -47.274   9.904  1.00  0.00     0.172 HD
ENDROOT
BRANCH   1   7
HETATM    7  C   UNL     1     -42.015 -50.653  12.563  1.00  0.00     0.159 C 
BRANCH   7   8
HETATM    8  C   UNL     1     -43.268 -50.745  13.475  1.00  0.00     0.236 C 
HETATM    9  C   UNL     1     -43.291 -49.518  14.388  1.00  0.00     0.044 C 
BRANCH   8  10
HETATM   10  N   UNL     1     -43.450 -52.075  14.104  1.00  0.00     0.098 N 
HETATM   11  C   UNL     1     -42.995 -53.224  13.302  1.00  0.00     0.299 C 
HETATM   12  C   UNL     1     -44.058 -53.794  12.347  1.00  0.00     0.198 C 
HETATM   13  O   UNL     1     -45.266 -54.126  13.041  1.00  0.00    -0.388 OA
HETATM   14  C   UNL     1     -45.787 -52.985  13.734  1.00  0.00     0.198 C 
HETATM   15  C   UNL     1     -44.756 -52.388  14.705  1.00  0.00     0.299 C 
ENDBRANCH   8  10
ENDBRANCH   7   8
ENDBRANCH   1   7
BRANCH   4  16
HETATM   16  C   UNL     1     -42.753 -47.773   9.520  1.00  0.00     0.132 A 
HETATM   17  C   UNL     1     -43.936 -47.304  10.137  1.00  0.00     0.084 A 
HETATM   18  C   UNL     1     -44.887 -47.363   9.147  1.00  0.00     0.076 A 
HETATM   19  C   UNL     1     -46.325 -47.065   9.059  1.00  0.00     0.079 C 
HETATM   20  O   UNL     1     -44.312 -47.809   8.002  1.00  0.00    -0.241 OA
HETATM   21  N   UNL     1     -42.983 -48.064   8.234  1.00  0.00    -0.245 N 
ATOM     22  HN  UNL     1     -42.302 -48.408   7.557  1.00  0.00     0.196 HD
ENDBRANCH   4  16
TORSDOF 4
ENDMDL
MODEL 2
REMARK VINA RESULT:      -6.3      4.257      6.777
REMARK  4 active torsions:
REMARK  status: ('A' for Active; 'I' for Inactive)
REMARK    1  A    between atoms: C_2  and  C_3 
REMARK    2  A    between atoms: C_2  and  N_15 
REMARK    3  A    between atoms: C_3  and  N_4 
REMARK       I    between atoms: N_4  and  C_5 
REMARK       I    between atoms: C_5  and  N_7 
REMARK    4  A    between atoms: N_7  and  C_8 
ROOT
HETATM    1  N   UNL     1     -40.931 -45.724  10.291  1.00  0.00    -0.341 N 
HETATM    2  C   UNL     1     -40.696 -46.957  10.802  1.00  0.00     0.321 C 
HETATM    3  O   UNL     1     -39.689 -47.234  11.454  1.00  0.00    -0.247 OA
HETATM    4  N   UNL     1     -41.624 -47.923  10.541  1.00  0.00    -0.293 N 
HETATM    5  H   UNL     1     -41.870 -45.530   9.946  1.00  0.00     0.164 HD
HETATM    6  H   UNL     1     -41.395 -48.833  10.911  1.00  0.00     0.172 HD
ENDROOT
BRANCH   1   7
HETATM    7  C   UNL     1     -40.065 -44.587  10.474  1.00  0.00     0.159 C 
BRANCH   7   8
HETATM    8  C   UNL     1     -40.665 -43.581  11.493  1.00  0.00     0.236 C 
HETATM    9  C   UNL     1     -39.725 -43.494  12.696  1.00  0.00     0.044 C 
BRANCH   8  10
HETATM   10  N   UNL     1     -42.107 -43.793  11.759  1.00  0.00     0.098 N 
HETATM   11  C   UNL     1     -43.027 -42.905  11.026  1.00  0.00     0.299 C 
HETATM   12  C   UNL     1     -43.333 -41.577  11.740  1.00  0.00     0.198 C 
HETATM   13  O   UNL     1     -43.816 -41.794  13.071  1.00  0.00    -0.388 OA
HETATM   14  C   UNL     1     -42.878 -42.560  13.837  1.00  0.00     0.198 C 
HETATM   15  C   UNL     1     -42.548 -43.899  13.160  1.00  0.00     0.299 C 
ENDBRANCH   8  10
ENDBRANCH   7   8
ENDBRANCH   1   7
BRANCH   4  16
HETATM   16  C   UNL     1     -42.781 -47.791   9.799  1.00  0.00     0.132 A 
HETATM   17  C   UNL     1     -44.050 -47.459  10.329  1.00  0.00     0.084 A 
HETATM   18  C   UNL     1     -44.891 -47.471   9.242  1.00  0.00     0.076 A 
HETATM   19  C   UNL     1     -46.330 -47.251   9.030  1.00  0.00     0.079 C 
HETATM   20  O   UNL     1     -44.175 -47.763   8.127  1.00  0.00    -0.241 OA
HETATM   21  N   UNL     1     -42.861 -47.961   8.473  1.00  0.00    -0.245 N 
ATOM     22  HN  UNL     1     -42.094 -48.194   7.842  1.00  0.00     0.196 HD
ENDBRANCH   4  16
TORSDOF 4
ENDMDL
MODEL 3
REMARK VINA RESULT:      -6.3      1.451      1.586
REMARK  4 active torsions:
REMARK  status: ('A' for Active; 'I' for Inactive)
REMARK    1  A    between atoms: C_2  and  C_3 
REMARK    2  A    between atoms: C_2  and  N_15 
REMARK    3  A    between atoms: C_3  and  N_4 
REMARK       I    between atoms: N_4  and  C_5 
REMARK       I    between atoms: C_5  and  N_7 
REMARK    4  A    between atoms: N_7  and  C_8 
ROOT
HETATM    1  N   UNL     1     -41.752 -49.309  11.072  1.00  0.00    -0.341 N 
HETATM    2  C   UNL     1     -41.196 -48.098  10.826  1.00  0.00     0.321 C 
HETATM    3  O   UNL     1     -40.150 -47.717  11.353  1.00  0.00    -0.247 OA
HETATM    4  N   UNL     1     -41.865 -47.271   9.970  1.00  0.00    -0.293 N 
HETATM    5  H   UNL     1     -42.495 -49.619  10.448  1.00  0.00     0.164 HD
HETATM    6  H   UNL     1     -41.435 -46.368   9.840  1.00  0.00     0.172 HD
ENDROOT
BRANCH   1   7
HETATM    7  C   UNL     1     -41.179 -50.307  11.939  1.00  0.00     0.159 C 
BRANCH   7   8
HETATM    8  C   UNL     1     -42.273 -51.012  12.786  1.00  0.00     0.236 C 
HETATM    9  C   UNL     1     -43.367 -49.992  13.105  1.00  0.00     0.044 C 
BRANCH   8  10
HETATM   10  N   UNL     1     -41.732 -51.815  13.908  1.00  0.00     0.098 N 
HETATM   11  C   UNL     1     -40.776 -52.871  13.530  1.00  0.00     0.299 C 
HETATM   12  C   UNL     1     -41.426 -54.224  13.188  1.00  0.00     0.198 C 
HETATM   13  O   UNL     1     -42.274 -54.683  14.247  1.00  0.00    -0.388 OA
HETATM   14  C   UNL     1     -43.285 -53.713  14.549  1.00  0.00     0.198 C 
HETATM   15  C   UNL     1     -42.677 -52.347  14.903  1.00  0.00     0.299 C 
ENDBRANCH   8  10
ENDBRANCH   7   8
ENDBRANCH   1   7
BRANCH   4  16
HETATM   16  C   UNL     1     -43.061 -47.524   9.328  1.00  0.00     0.132 A 
HETATM   17  C   UNL     1     -44.341 -47.356   9.906  1.00  0.00     0.084 A 
HETATM   18  C   UNL     1     -45.217 -47.751   8.923  1.00  0.00     0.076 A 
HETATM   19  C   UNL     1     -46.679 -47.870   8.811  1.00  0.00     0.079 C 
HETATM   20  O   UNL     1     -44.516 -48.106   7.817  1.00  0.00    -0.241 OA
HETATM   21  N   UNL     1     -43.174 -47.963   8.069  1.00  0.00    -0.245 N 
ATOM     22  HN  UNL     1     -42.409 -48.156   7.421  1.00  0.00     0.196 HD
ENDBRANCH   4  16
TORSDOF 4
ENDMDL
MODEL 4
REMARK VINA RESULT:      -6.2      2.022      2.763
REMARK  4 active torsions:
REMARK  status: ('A' for Active; 'I' for Inactive)
REMARK    1  A    between atoms: C_2  and  C_3 
REMARK    2  A    between atoms: C_2  and  N_15 
REMARK    3  A    between atoms: C_3  and  N_4 
REMARK       I    between atoms: N_4  and  C_5 
REMARK       I    between atoms: C_5  and  N_7 
REMARK    4  A    between atoms: N_7  and  C_8 
ROOT
HETATM    1  N   UNL     1     -42.217 -49.601  11.616  1.00  0.00    -0.341 N 
HETATM    2  C   UNL     1     -41.231 -48.800  11.143  1.00  0.00     0.321 C 
HETATM    3  O   UNL     1     -40.092 -48.786  11.611  1.00  0.00    -0.247 OA
HETATM    4  N   UNL     1     -41.554 -47.961  10.116  1.00  0.00    -0.293 N 
HETATM    5  H   UNL     1     -43.057 -49.697  11.047  1.00  0.00     0.164 HD
HETATM    6  H   UNL     1     -40.801 -47.360   9.816  1.00  0.00     0.172 HD
ENDROOT
BRANCH   1   7
HETATM    7  C   UNL     1     -42.051 -50.551  12.686  1.00  0.00     0.159 C 
BRANCH   7   8
HETATM    8  C   UNL     1     -41.939 -52.000  12.141  1.00  0.00     0.236 C 
HETATM    9  C   UNL     1     -43.244 -52.734  12.451  1.00  0.00     0.044 C 
BRANCH   8  10
HETATM   10  N   UNL     1     -40.668 -52.673  12.498  1.00  0.00     0.098 N 
HETATM   11  C   UNL     1     -40.794 -54.071  12.946  1.00  0.00     0.299 C 
HETATM   12  C   UNL     1     -41.031 -54.236  14.458  1.00  0.00     0.198 C 
HETATM   13  O   UNL     1     -40.026 -53.562  15.225  1.00  0.00    -0.388 OA
HETATM   14  C   UNL     1     -39.969 -52.172  14.883  1.00  0.00     0.198 C 
HETATM   15  C   UNL     1     -39.728 -51.963  13.380  1.00  0.00     0.299 C 
ENDBRANCH   8  10
ENDBRANCH   7   8
ENDBRANCH   1   7
BRANCH   4  16
HETATM   16  C   UNL     1     -42.784 -47.823   9.504  1.00  0.00     0.132 A 
HETATM   17  C   UNL     1     -43.944 -47.307  10.127  1.00  0.00     0.084 A 
HETATM   18  C   UNL     1     -44.918 -47.386   9.160  1.00  0.00     0.076 A 
HETATM   19  C   UNL     1     -46.351 -47.063   9.091  1.00  0.00     0.079 C 
HETATM   20  O   UNL     1     -44.377 -47.888   8.022  1.00  0.00    -0.241 OA
HETATM   21  N   UNL     1     -43.048 -48.159   8.236  1.00  0.00    -0.245 N 
ATOM     22  HN  UNL     1     -42.389 -48.544   7.558  1.00  0.00     0.196 HD
ENDBRANCH   4  16
TORSDOF 4
ENDMDL
MODEL 5
REMARK VINA RESULT:      -6.1      2.594      3.134
REMARK  4 active torsions:
REMARK  status: ('A' for Active; 'I' for Inactive)
REMARK    1  A    between atoms: C_2  and  C_3 
REMARK    2  A    between atoms: C_2  and  N_15 
REMARK    3  A    between atoms: C_3  and  N_4 
REMARK       I    between atoms: N_4  and  C_5 
REMARK       I    between atoms: C_5  and  N_7 
REMARK    4  A    between atoms: N_7  and  C_8 
ROOT
HETATM    1  N   UNL     1     -42.253 -51.675  12.053  1.00  0.00    -0.341 N 
HETATM    2  C   UNL     1     -40.926 -51.905  11.903  1.00  0.00     0.321 C 
HETATM    3  O   UNL     1     -40.406 -53.003  12.101  1.00  0.00    -0.247 OA
HETATM    4  N   UNL     1     -40.151 -50.841  11.540  1.00  0.00    -0.293 N 
HETATM    5  H   UNL     1     -42.625 -50.805  11.675  1.00  0.00     0.164 HD
HETATM    6  H   UNL     1     -39.166 -51.047  11.472  1.00  0.00     0.172 HD
ENDROOT
BRANCH   1   7
HETATM    7  C   UNL     1     -43.217 -52.681  12.421  1.00  0.00     0.159 C 
BRANCH   7   8
HETATM    8  C   UNL     1     -44.261 -52.120  13.424  1.00  0.00     0.236 C 
HETATM    9  C   UNL     1     -43.943 -50.646  13.677  1.00  0.00     0.044 C 
BRANCH   8  10
HETATM   10  N   UNL     1     -44.479 -52.990  14.604  1.00  0.00     0.098 N 
HETATM   11  C   UNL     1     -44.246 -54.428  14.385  1.00  0.00     0.299 C 
HETATM   12  C   UNL     1     -45.477 -55.203  13.883  1.00  0.00     0.198 C 
HETATM   13  O   UNL     1     -46.606 -55.013  14.744  1.00  0.00    -0.388 OA
HETATM   14  C   UNL     1     -46.920 -53.622  14.875  1.00  0.00     0.198 C 
HETATM   15  C   UNL     1     -45.717 -52.811  15.381  1.00  0.00     0.299 C 
ENDBRANCH   8  10
ENDBRANCH   7   8
ENDBRANCH   1   7
BRANCH   4  16
HETATM   16  C   UNL     1     -40.565 -49.542  11.318  1.00  0.00     0.132 A 
HETATM   17  C   UNL     1     -40.441 -48.483  12.246  1.00  0.00     0.084 A 
HETATM   18  C   UNL     1     -41.005 -47.402  11.613  1.00  0.00     0.076 A 
HETATM   19  C   UNL     1     -41.253 -45.995  11.964  1.00  0.00     0.079 C 
HETATM   20  O   UNL     1     -41.416 -47.775  10.374  1.00  0.00    -0.241 OA
HETATM   21  N   UNL     1     -41.141 -49.108  10.190  1.00  0.00    -0.245 N 
ATOM     22  HN  UNL     1     -41.337 -49.660   9.355  1.00  0.00     0.196 HD
ENDBRANCH   4  16
TORSDOF 4
ENDMDL
MODEL 6
REMARK VINA RESULT:      -6.0      2.498      3.665
REMARK  4 active torsions:
REMARK  status: ('A' for Active; 'I' for Inactive)
REMARK    1  A    between atoms: C_2  and  C_3 
REMARK    2  A    between atoms: C_2  and  N_15 
REMARK    3  A    between atoms: C_3  and  N_4 
REMARK       I    between atoms: N_4  and  C_5 
REMARK       I    between atoms: C_5  and  N_7 
REMARK    4  A    between atoms: N_7  and  C_8 
ROOT
HETATM    1  N   UNL     1     -42.446 -52.541  11.930  1.00  0.00    -0.341 N 
HETATM    2  C   UNL     1     -41.103 -52.617  12.095  1.00  0.00     0.321 C 
HETATM    3  O   UNL     1     -40.527 -53.640  12.467  1.00  0.00    -0.247 OA
HETATM    4  N   UNL     1     -40.384 -51.482  11.857  1.00  0.00    -0.293 N 
HETATM    5  H   UNL     1     -42.812 -51.732  11.431  1.00  0.00     0.164 HD
HETATM    6  H   UNL     1     -39.393 -51.572  12.024  1.00  0.00     0.172 HD
ENDROOT
BRANCH   1   7
HETATM    7  C   UNL     1     -43.355 -53.641  12.128  1.00  0.00     0.159 C 
BRANCH   7   8
HETATM    8  C   UNL     1     -43.997 -53.593  13.541  1.00  0.00     0.236 C 
HETATM    9  C   UNL     1     -43.244 -54.568  14.446  1.00  0.00     0.044 C 
BRANCH   8  10
HETATM   10  N   UNL     1     -45.477 -53.673  13.524  1.00  0.00     0.098 N 
HETATM   11  C   UNL     1     -46.172 -52.480  13.009  1.00  0.00     0.299 C 
HETATM   12  C   UNL     1     -46.478 -51.412  14.074  1.00  0.00     0.198 C 
HETATM   13  O   UNL     1     -47.203 -51.965  15.179  1.00  0.00    -0.388 OA
HETATM   14  C   UNL     1     -46.484 -53.056  15.767  1.00  0.00     0.198 C 
HETATM   15  C   UNL     1     -46.163 -54.149  14.736  1.00  0.00     0.299 C 
ENDBRANCH   8  10
ENDBRANCH   7   8
ENDBRANCH   1   7
BRANCH   4  16
HETATM   16  C   UNL     1     -40.873 -50.247  11.475  1.00  0.00     0.132 A 
HETATM   17  C   UNL     1     -41.647 -49.395  12.295  1.00  0.00     0.084 A 
HETATM   18  C   UNL     1     -41.926 -48.311  11.498  1.00  0.00     0.076 A 
HETATM   19  C   UNL     1     -42.689 -47.063  11.657  1.00  0.00     0.079 C 
HETATM   20  O   UNL     1     -41.337 -48.483  10.288  1.00  0.00    -0.241 OA
HETATM   21  N   UNL     1     -40.680 -49.689  10.274  1.00  0.00    -0.245 N 
ATOM     22  HN  UNL     1     -40.147 -50.083   9.498  1.00  0.00     0.196 HD
ENDBRANCH   4  16
TORSDOF 4
ENDMDL
MODEL 7
REMARK VINA RESULT:      -6.0      1.441      2.237
REMARK  4 active torsions:
REMARK  status: ('A' for Active; 'I' for Inactive)
REMARK    1  A    between atoms: C_2  and  C_3 
REMARK    2  A    between atoms: C_2  and  N_15 
REMARK    3  A    between atoms: C_3  and  N_4 
REMARK       I    between atoms: N_4  and  C_5 
REMARK       I    between atoms: C_5  and  N_7 
REMARK    4  A    between atoms: N_7  and  C_8 
ROOT
HETATM    1  N   UNL     1     -41.620 -49.732  11.111  1.00  0.00    -0.341 N 
HETATM    2  C   UNL     1     -40.945 -48.563  10.986  1.00  0.00     0.321 C 
HETATM    3  O   UNL     1     -39.865 -48.347  11.536  1.00  0.00    -0.247 OA
HETATM    4  N   UNL     1     -41.530 -47.588  10.231  1.00  0.00    -0.293 N 
HETATM    5  H   UNL     1     -42.392 -49.899  10.468  1.00  0.00     0.164 HD
HETATM    6  H   UNL     1     -41.011 -46.724  10.191  1.00  0.00     0.172 HD
ENDROOT
BRANCH   1   7
HETATM    7  C   UNL     1     -41.148 -50.868  11.861  1.00  0.00     0.159 C 
BRANCH   7   8
HETATM    8  C   UNL     1     -42.231 -51.380  12.848  1.00  0.00     0.236 C 
HETATM    9  C   UNL     1     -42.723 -52.743  12.360  1.00  0.00     0.044 C 
BRANCH   8  10
HETATM   10  N   UNL     1     -43.252 -50.362  13.191  1.00  0.00     0.098 N 
HETATM   11  C   UNL     1     -42.910 -49.473  14.316  1.00  0.00     0.299 C 
HETATM   12  C   UNL     1     -43.323 -50.009  15.698  1.00  0.00     0.198 C 
HETATM   13  O   UNL     1     -44.715 -50.342  15.740  1.00  0.00    -0.388 OA
HETATM   14  C   UNL     1     -45.043 -51.297  14.724  1.00  0.00     0.198 C 
HETATM   15  C   UNL     1     -44.652 -50.798  13.324  1.00  0.00     0.299 C 
ENDBRANCH   8  10
ENDBRANCH   7   8
ENDBRANCH   1   7
BRANCH   4  16
HETATM   16  C   UNL     1     -42.748 -47.650   9.583  1.00  0.00     0.132 A 
HETATM   17  C   UNL     1     -43.996 -47.350  10.175  1.00  0.00     0.084 A 
HETATM   18  C   UNL     1     -44.914 -47.576   9.177  1.00  0.00     0.076 A 
HETATM   19  C   UNL     1     -46.379 -47.499   9.066  1.00  0.00     0.079 C 
HETATM   20  O   UNL     1     -44.263 -47.960   8.051  1.00  0.00    -0.241 OA
HETATM   21  N   UNL     1     -42.914 -48.005   8.303  1.00  0.00    -0.245 N 
ATOM     22  HN  UNL     1     -42.179 -48.260   7.642  1.00  0.00     0.196 HD
ENDBRANCH   4  16
TORSDOF 4
ENDMDL
MODEL 8
REMARK VINA RESULT:      -5.8      2.206      6.463
REMARK  4 active torsions:
REMARK  status: ('A' for Active; 'I' for Inactive)
REMARK    1  A    between atoms: C_2  and  C_3 
REMARK    2  A    between atoms: C_2  and  N_15 
REMARK    3  A    between atoms: C_3  and  N_4 
REMARK       I    between atoms: N_4  and  C_5 
REMARK       I    between atoms: C_5  and  N_7 
REMARK    4  A    between atoms: N_7  and  C_8 
ROOT
HETATM    1  N   UNL     1     -41.264 -50.885  12.932  1.00  0.00    -0.341 N 
HETATM    2  C   UNL     1     -40.445 -51.949  12.752  1.00  0.00     0.321 C 
HETATM    3  O   UNL     1     -39.223 -51.847  12.637  1.00  0.00    -0.247 OA
HETATM    4  N   UNL     1     -41.034 -53.178  12.669  1.00  0.00    -0.293 N 
HETATM    5  H   UNL     1     -42.223 -51.075  13.219  1.00  0.00     0.164 HD
HETATM    6  H   UNL     1     -40.393 -53.938  12.502  1.00  0.00     0.172 HD
ENDROOT
BRANCH   1   7
HETATM    7  C   UNL     1     -40.814 -49.521  13.049  1.00  0.00     0.159 C 
BRANCH   7   8
HETATM    8  C   UNL     1     -41.795 -48.542  12.351  1.00  0.00     0.236 C 
HETATM    9  C   UNL     1     -43.210 -49.109  12.473  1.00  0.00     0.044 C 
BRANCH   8  10
HETATM   10  N   UNL     1     -41.343 -48.104  11.009  1.00  0.00     0.098 N 
HETATM   11  C   UNL     1     -40.356 -47.010  10.998  1.00  0.00     0.299 C 
HETATM   12  C   UNL     1     -40.970 -45.599  10.991  1.00  0.00     0.198 C 
HETATM   13  O   UNL     1     -41.899 -45.434   9.913  1.00  0.00    -0.388 OA
HETATM   14  C   UNL     1     -42.935 -46.422   9.976  1.00  0.00     0.198 C 
HETATM   15  C   UNL     1     -42.363 -47.848   9.979  1.00  0.00     0.299 C 
ENDBRANCH   8  10
ENDBRANCH   7   8
ENDBRANCH   1   7
BRANCH   4  16
HETATM   16  C   UNL     1     -42.384 -53.464  12.737  1.00  0.00     0.132 A 
HETATM   17  C   UNL     1     -43.002 -54.210  13.767  1.00  0.00     0.084 A 
HETATM   18  C   UNL     1     -44.327 -54.263  13.406  1.00  0.00     0.076 A 
HETATM   19  C   UNL     1     -45.540 -54.877  13.967  1.00  0.00     0.079 C 
HETATM   20  O   UNL     1     -44.503 -53.572  12.252  1.00  0.00    -0.241 OA
HETATM   21  N   UNL     1     -43.293 -53.073  11.836  1.00  0.00    -0.245 N 
ATOM     22  HN  UNL     1     -43.120 -52.512  11.001  1.00  0.00     0.196 HD
ENDBRANCH   4  16
TORSDOF 4
ENDMDL
MODEL 9
REMARK VINA RESULT:      -5.7      2.293      5.866
REMARK  4 active torsions:
REMARK  status: ('A' for Active; 'I' for Inactive)
REMARK    1  A    between atoms: C_2  and  C_3 
REMARK    2  A    between atoms: C_2  and  N_15 
REMARK    3  A    between atoms: C_3  and  N_4 
REMARK       I    between atoms: N_4  and  C_5 
REMARK       I    between atoms: C_5  and  N_7 
REMARK    4  A    between atoms: N_7  and  C_8 
ROOT
HETATM    1  N   UNL     1     -41.277 -50.960  11.689  1.00  0.00    -0.341 N 
HETATM    2  C   UNL     1     -40.854 -52.039  12.392  1.00  0.00     0.321 C 
HETATM    3  O   UNL     1     -39.665 -52.321  12.541  1.00  0.00    -0.247 OA
HETATM    4  N   UNL     1     -41.816 -52.848  12.923  1.00  0.00    -0.293 N 
HETATM    5  H   UNL     1     -42.255 -50.690  11.787  1.00  0.00     0.164 HD
HETATM    6  H   UNL     1     -41.460 -53.656  13.409  1.00  0.00     0.172 HD
ENDROOT
BRANCH   1   7
HETATM    7  C   UNL     1     -40.402 -49.997  11.069  1.00  0.00     0.159 C 
BRANCH   7   8
HETATM    8  C   UNL     1     -40.622 -48.577  11.655  1.00  0.00     0.236 C 
HETATM    9  C   UNL     1     -39.926 -48.503  13.014  1.00  0.00     0.044 C 
BRANCH   8  10
HETATM   10  N   UNL     1     -42.027 -48.111  11.574  1.00  0.00     0.098 N 
HETATM   11  C   UNL     1     -42.466 -47.643  10.247  1.00  0.00     0.299 C 
HETATM   12  C   UNL     1     -42.205 -46.150   9.981  1.00  0.00     0.198 C 
HETATM   13  O   UNL     1     -42.772 -45.326  11.006  1.00  0.00    -0.388 OA
HETATM   14  C   UNL     1     -42.265 -45.692  12.295  1.00  0.00     0.198 C 
HETATM   15  C   UNL     1     -42.511 -47.177  12.604  1.00  0.00     0.299 C 
ENDBRANCH   8  10
ENDBRANCH   7   8
ENDBRANCH   1   7
BRANCH   4  16
HETATM   16  C   UNL     1     -43.185 -52.699  12.817  1.00  0.00     0.132 A 
HETATM   17  C   UNL     1     -43.976 -51.870  13.645  1.00  0.00     0.084 A 
HETATM   18  C   UNL     1     -45.262 -52.062  13.198  1.00  0.00     0.076 A 
HETATM   19  C   UNL     1     -46.590 -51.562  13.585  1.00  0.00     0.079 C 
HETATM   20  O   UNL     1     -45.246 -52.925  12.152  1.00  0.00    -0.241 OA
HETATM   21  N   UNL     1     -43.953 -53.322  11.914  1.00  0.00    -0.245 N 
ATOM     22  HN  UNL     1     -43.637 -53.967  11.189  1.00  0.00     0.196 HD
ENDBRANCH   4  16
TORSDOF 4
ENDMDL
