MODEL 1
REMARK VINA RESULT:      -5.9      0.000      0.000
REMARK  4 active torsions:
REMARK  status: ('A' for Active; 'I' for Inactive)
REMARK    1  A    between atoms: N_2  and  C_4 
REMARK    2  A    between atoms: C_7  and  N_8 
REMARK       I    between atoms: N_8  and  C_9 
REMARK       I    between atoms: C_9  and  N_11 
REMARK    3  A    between atoms: N_11  and  C_12 
REMARK    4  A    between atoms: C_12  and  C_13 
ROOT
HETATM    1  N   UNL     1     -40.643 -50.230  10.966  1.00  0.00    -0.308 N 
HETATM    2  C   UNL     1     -41.510 -49.164  11.093  1.00  0.00     0.320 C 
HETATM    3  O   UNL     1     -42.254 -48.951  12.043  1.00  0.00    -0.247 OA
HETATM    4  N   UNL     1     -41.496 -48.315  10.005  1.00  0.00    -0.340 N 
HETATM    5  H   UNL     1     -40.022 -50.227  10.171  1.00  0.00     0.170 HD
HETATM    6  H   UNL     1     -40.605 -48.173   9.552  1.00  0.00     0.164 HD
ENDROOT
BRANCH   1   7
HETATM    7  C   UNL     1     -40.524 -51.292  11.896  1.00  0.00     0.051 A 
HETATM    8  C   UNL     1     -39.630 -51.272  12.960  1.00  0.00     0.035 A 
HETATM    9  C   UNL     1     -39.552 -52.354  13.837  1.00  0.00     0.050 A 
HETATM   10  C   UNL     1     -40.360 -53.473  13.659  1.00  0.00     0.102 A 
HETATM   11  N   UNL     1     -41.263 -53.490  12.650  1.00  0.00    -0.350 N 
HETATM   12  C   UNL     1     -41.324 -52.422  11.806  1.00  0.00     0.119 A 
ATOM     13  HN  UNL     1     -41.887 -54.289  12.524  1.00  0.00     0.166 HD
BRANCH  10  14
HETATM   14  N   UNL     1     -40.265 -54.557  14.547  1.00  0.00    -0.376 N 
HETATM   15  C   UNL     1     -38.923 -54.815  15.054  1.00  0.00     0.150 C 
HETATM   16  C   UNL     1     -41.360 -54.717  15.498  1.00  0.00     0.150 C 
ENDBRANCH  10  14
ENDBRANCH   1   7
BRANCH   4  17
HETATM   17  C   UNL     1     -42.337 -47.131  10.109  1.00  0.00     0.156 C 
BRANCH  17  18
HETATM   18  C   UNL     1     -43.609 -47.174   9.276  1.00  0.00     0.139 C 
HETATM   19  C   UNL     1     -44.173 -45.825   8.862  1.00  0.00     0.035 C 
HETATM   20  C   UNL     1     -45.676 -46.034   8.869  1.00  0.00     0.029 C 
HETATM   21  C   UNL     1     -45.866 -47.475   9.296  1.00  0.00     0.168 C 
HETATM   22  O   UNL     1     -44.668 -47.828   9.993  1.00  0.00    -0.384 OA
ENDBRANCH  17  18
ENDBRANCH   4  17
TORSDOF 4
ENDMDL
MODEL 2
REMARK VINA RESULT:      -5.7      0.913      1.177
REMARK  4 active torsions:
REMARK  status: ('A' for Active; 'I' for Inactive)
REMARK    1  A    between atoms: N_2  and  C_4 
REMARK    2  A    between atoms: C_7  and  N_8 
REMARK       I    between atoms: N_8  and  C_9 
REMARK       I    between atoms: C_9  and  N_11 
REMARK    3  A    between atoms: N_11  and  C_12 
REMARK    4  A    between atoms: C_12  and  C_13 
ROOT
HETATM    1  N   UNL     1     -40.783 -50.524  11.095  1.00  0.00    -0.308 N 
HETATM    2  C   UNL     1     -41.032 -49.197  11.378  1.00  0.00     0.320 C 
HETATM    3  O   UNL     1     -41.088 -48.697  12.496  1.00  0.00    -0.247 OA
HETATM    4  N   UNL     1     -41.250 -48.429  10.252  1.00  0.00    -0.340 N 
HETATM    5  H   UNL     1     -40.673 -50.775  10.124  1.00  0.00     0.170 HD
HETATM    6  H   UNL     1     -40.709 -48.663   9.432  1.00  0.00     0.164 HD
ENDROOT
BRANCH   1   7
HETATM    7  C   UNL     1     -40.613 -51.540  12.067  1.00  0.00     0.051 A 
HETATM    8  C   UNL     1     -39.550 -51.564  12.962  1.00  0.00     0.035 A 
HETATM    9  C   UNL     1     -39.431 -52.599  13.889  1.00  0.00     0.050 A 
HETATM   10  C   UNL     1     -40.367 -53.629  13.930  1.00  0.00     0.102 A 
HETATM   11  N   UNL     1     -41.429 -53.598  13.090  1.00  0.00    -0.350 N 
HETATM   12  C   UNL     1     -41.527 -52.576  12.193  1.00  0.00     0.119 A 
ATOM     13  HN  UNL     1     -42.143 -54.326  13.129  1.00  0.00     0.166 HD
BRANCH  10  14
HETATM   14  N   UNL     1     -40.230 -54.667  14.866  1.00  0.00    -0.376 N 
HETATM   15  C   UNL     1     -38.859 -54.943  15.274  1.00  0.00     0.150 C 
HETATM   16  C   UNL     1     -41.246 -54.739  15.911  1.00  0.00     0.150 C 
ENDBRANCH  10  14
ENDBRANCH   1   7
BRANCH   4  17
HETATM   17  C   UNL     1     -41.448 -47.004  10.480  1.00  0.00     0.156 C 
BRANCH  17  18
HETATM   18  C   UNL     1     -42.877 -46.518  10.289  1.00  0.00     0.139 C 
HETATM   19  C   UNL     1     -43.941 -47.602  10.230  1.00  0.00     0.035 C 
HETATM   20  C   UNL     1     -44.966 -47.062   9.250  1.00  0.00     0.029 C 
HETATM   21  C   UNL     1     -44.414 -45.721   8.811  1.00  0.00     0.168 C 
HETATM   22  O   UNL     1     -43.007 -45.786   9.060  1.00  0.00    -0.384 OA
ENDBRANCH  17  18
ENDBRANCH   4  17
TORSDOF 4
ENDMDL
MODEL 3
REMARK VINA RESULT:      -5.7      2.497      7.833
REMARK  4 active torsions:
REMARK  status: ('A' for Active; 'I' for Inactive)
REMARK    1  A    between atoms: N_2  and  C_4 
REMARK    2  A    between atoms: C_7  and  N_8 
REMARK       I    between atoms: N_8  and  C_9 
REMARK       I    between atoms: C_9  and  N_11 
REMARK    3  A    between atoms: N_11  and  C_12 
REMARK    4  A    between atoms: C_12  and  C_13 
ROOT
HETATM    1  N   UNL     1     -40.835 -50.336  10.887  1.00  0.00    -0.308 N 
HETATM    2  C   UNL     1     -41.459 -51.156  11.805  1.00  0.00     0.320 C 
HETATM    3  O   UNL     1     -42.122 -50.787  12.767  1.00  0.00    -0.247 OA
HETATM    4  N   UNL     1     -41.254 -52.500  11.565  1.00  0.00    -0.340 N 
HETATM    5  H   UNL     1     -40.402 -50.780  10.092  1.00  0.00     0.170 HD
HETATM    6  H   UNL     1     -41.214 -52.787  10.597  1.00  0.00     0.164 HD
ENDROOT
BRANCH   1   7
HETATM    7  C   UNL     1     -40.813 -48.921  10.952  1.00  0.00     0.051 A 
HETATM    8  C   UNL     1     -39.868 -48.210  11.681  1.00  0.00     0.035 A 
HETATM    9  C   UNL     1     -39.905 -46.816  11.714  1.00  0.00     0.050 A 
HETATM   10  C   UNL     1     -40.890 -46.114  11.027  1.00  0.00     0.102 A 
HETATM   11  N   UNL     1     -41.794 -46.792  10.280  1.00  0.00    -0.350 N 
HETATM   12  C   UNL     1     -41.739 -48.154  10.260  1.00  0.00     0.119 A 
ATOM     13  HN  UNL     1     -42.504 -46.293   9.742  1.00  0.00     0.166 HD
BRANCH  10  14
HETATM   14  N   UNL     1     -40.918 -44.711  11.076  1.00  0.00    -0.376 N 
HETATM   15  C   UNL     1     -42.251 -44.129  11.159  1.00  0.00     0.150 C 
HETATM   16  C   UNL     1     -39.878 -44.067  11.873  1.00  0.00     0.150 C 
ENDBRANCH  10  14
ENDBRANCH   1   7
BRANCH   4  17
HETATM   17  C   UNL     1     -41.946 -53.420  12.458  1.00  0.00     0.156 C 
BRANCH  17  18
HETATM   18  C   UNL     1     -41.035 -54.280  13.321  1.00  0.00     0.139 C 
HETATM   19  C   UNL     1     -41.398 -54.355  14.794  1.00  0.00     0.035 C 
HETATM   20  C   UNL     1     -40.060 -54.453  15.502  1.00  0.00     0.029 C 
HETATM   21  C   UNL     1     -39.030 -54.416  14.391  1.00  0.00     0.168 C 
HETATM   22  O   UNL     1     -39.685 -53.791  13.283  1.00  0.00    -0.384 OA
ENDBRANCH  17  18
ENDBRANCH   4  17
TORSDOF 4
ENDMDL
MODEL 4
REMARK VINA RESULT:      -5.7      1.706      2.387
REMARK  4 active torsions:
REMARK  status: ('A' for Active; 'I' for Inactive)
REMARK    1  A    between atoms: N_2  and  C_4 
REMARK    2  A    between atoms: C_7  and  N_8 
REMARK       I    between atoms: N_8  and  C_9 
REMARK       I    between atoms: C_9  and  N_11 
REMARK    3  A    between atoms: N_11  and  C_12 
REMARK    4  A    between atoms: C_12  and  C_13 
ROOT
HETATM    1  N   UNL     1     -41.177 -48.993  10.257  1.00  0.00    -0.308 N 
HETATM    2  C   UNL     1     -42.181 -48.046  10.256  1.00  0.00     0.320 C 
HETATM    3  O   UNL     1     -42.717 -47.564  11.247  1.00  0.00    -0.247 OA
HETATM    4  N   UNL     1     -42.580 -47.673   8.988  1.00  0.00    -0.340 N 
HETATM    5  H   UNL     1     -40.765 -49.229   9.367  1.00  0.00     0.170 HD
HETATM    6  H   UNL     1     -41.859 -47.626   8.282  1.00  0.00     0.164 HD
ENDROOT
BRANCH   1   7
HETATM    7  C   UNL     1     -40.647 -49.609  11.418  1.00  0.00     0.051 A 
HETATM    8  C   UNL     1     -39.449 -49.219  12.003  1.00  0.00     0.035 A 
HETATM    9  C   UNL     1     -38.974 -49.873  13.140  1.00  0.00     0.050 A 
HETATM   10  C   UNL     1     -39.685 -50.929  13.703  1.00  0.00     0.102 A 
HETATM   11  N   UNL     1     -40.873 -51.294  13.166  1.00  0.00    -0.350 N 
HETATM   12  C   UNL     1     -41.320 -50.641  12.056  1.00  0.00     0.119 A 
ATOM     13  HN  UNL     1     -41.424 -52.044  13.585  1.00  0.00     0.166 HD
BRANCH  10  14
HETATM   14  N   UNL     1     -39.190 -51.581  14.844  1.00  0.00    -0.376 N 
HETATM   15  C   UNL     1     -39.105 -53.031  14.730  1.00  0.00     0.150 C 
HETATM   16  C   UNL     1     -38.094 -50.920  15.547  1.00  0.00     0.150 C 
ENDBRANCH  10  14
ENDBRANCH   1   7
BRANCH   4  17
HETATM   17  C   UNL     1     -43.587 -46.624   8.919  1.00  0.00     0.156 C 
BRANCH  17  18
HETATM   18  C   UNL     1     -44.958 -47.083   8.447  1.00  0.00     0.139 C 
HETATM   19  C   UNL     1     -45.985 -47.327   9.540  1.00  0.00     0.035 C 
HETATM   20  C   UNL     1     -46.814 -48.486   9.018  1.00  0.00     0.029 C 
HETATM   21  C   UNL     1     -46.198 -48.830   7.677  1.00  0.00     0.168 C 
HETATM   22  O   UNL     1     -44.862 -48.323   7.729  1.00  0.00    -0.384 OA
ENDBRANCH  17  18
ENDBRANCH   4  17
TORSDOF 4
ENDMDL
MODEL 5
REMARK VINA RESULT:      -5.6      2.814      7.295
REMARK  4 active torsions:
REMARK  status: ('A' for Active; 'I' for Inactive)
REMARK    1  A    between atoms: N_2  and  C_4 
REMARK    2  A    between atoms: C_7  and  N_8 
REMARK       I    between atoms: N_8  and  C_9 
REMARK       I    between atoms: C_9  and  N_11 
REMARK    3  A    between atoms: N_11  and  C_12 
REMARK    4  A    between atoms: C_12  and  C_13 
ROOT
HETATM    1  N   UNL     1     -40.859 -50.872  11.034  1.00  0.00    -0.308 N 
HETATM    2  C   UNL     1     -41.019 -51.676  12.144  1.00  0.00     0.320 C 
HETATM    3  O   UNL     1     -41.128 -51.291  13.302  1.00  0.00    -0.247 OA
HETATM    4  N   UNL     1     -41.027 -53.024  11.846  1.00  0.00    -0.340 N 
HETATM    5  H   UNL     1     -40.878 -51.323  10.132  1.00  0.00     0.170 HD
HETATM    6  H   UNL     1     -41.464 -53.294  10.977  1.00  0.00     0.164 HD
ENDROOT
BRANCH   1   7
HETATM    7  C   UNL     1     -40.731 -49.462  11.068  1.00  0.00     0.051 A 
HETATM    8  C   UNL     1     -41.781 -48.597  10.786  1.00  0.00     0.035 A 
HETATM    9  C   UNL     1     -41.589 -47.216  10.826  1.00  0.00     0.050 A 
HETATM   10  C   UNL     1     -40.344 -46.680  11.140  1.00  0.00     0.102 A 
HETATM   11  N   UNL     1     -39.321 -47.510  11.456  1.00  0.00    -0.350 N 
HETATM   12  C   UNL     1     -39.531 -48.856  11.412  1.00  0.00     0.119 A 
ATOM     13  HN  UNL     1     -38.409 -47.134  11.721  1.00  0.00     0.166 HD
BRANCH  10  14
HETATM   14  N   UNL     1     -40.164 -45.287  11.170  1.00  0.00    -0.376 N 
HETATM   15  C   UNL     1     -39.860 -44.739  12.485  1.00  0.00     0.150 C 
HETATM   16  C   UNL     1     -39.451 -44.699  10.040  1.00  0.00     0.150 C 
ENDBRANCH  10  14
ENDBRANCH   1   7
BRANCH   4  17
HETATM   17  C   UNL     1     -41.264 -53.923  12.967  1.00  0.00     0.156 C 
BRANCH  17  18
HETATM   18  C   UNL     1     -42.649 -53.821  13.587  1.00  0.00     0.139 C 
HETATM   19  C   UNL     1     -42.976 -54.859  14.648  1.00  0.00     0.035 C 
HETATM   20  C   UNL     1     -44.459 -55.122  14.465  1.00  0.00     0.029 C 
HETATM   21  C   UNL     1     -44.872 -54.231  13.311  1.00  0.00     0.168 C 
HETATM   22  O   UNL     1     -43.669 -53.963  12.585  1.00  0.00    -0.384 OA
ENDBRANCH  17  18
ENDBRANCH   4  17
TORSDOF 4
ENDMDL
MODEL 6
REMARK VINA RESULT:      -5.4      1.618      2.564
REMARK  4 active torsions:
REMARK  status: ('A' for Active; 'I' for Inactive)
REMARK    1  A    between atoms: N_2  and  C_4 
REMARK    2  A    between atoms: C_7  and  N_8 
REMARK       I    between atoms: N_8  and  C_9 
REMARK       I    between atoms: C_9  and  N_11 
REMARK    3  A    between atoms: N_11  and  C_12 
REMARK    4  A    between atoms: C_12  and  C_13 
ROOT
HETATM    1  N   UNL     1     -40.644 -50.234  11.025  1.00  0.00    -0.308 N 
HETATM    2  C   UNL     1     -41.538 -49.188  11.138  1.00  0.00     0.320 C 
HETATM    3  O   UNL     1     -42.323 -49.007  12.061  1.00  0.00    -0.247 OA
HETATM    4  N   UNL     1     -41.501 -48.320  10.065  1.00  0.00    -0.340 N 
HETATM    5  H   UNL     1     -39.993 -50.203  10.256  1.00  0.00     0.170 HD
HETATM    6  H   UNL     1     -40.596 -48.151   9.649  1.00  0.00     0.164 HD
ENDROOT
BRANCH   1   7
HETATM    7  C   UNL     1     -40.539 -51.309  11.942  1.00  0.00     0.051 A 
HETATM    8  C   UNL     1     -39.634 -51.321  12.997  1.00  0.00     0.035 A 
HETATM    9  C   UNL     1     -39.571 -52.415  13.859  1.00  0.00     0.050 A 
HETATM   10  C   UNL     1     -40.403 -53.515  13.676  1.00  0.00     0.102 A 
HETATM   11  N   UNL     1     -41.317 -53.501  12.676  1.00  0.00    -0.350 N 
HETATM   12  C   UNL     1     -41.363 -52.421  11.846  1.00  0.00     0.119 A 
ATOM     13  HN  UNL     1     -41.958 -54.284  12.547  1.00  0.00     0.166 HD
BRANCH  10  14
HETATM   14  N   UNL     1     -40.322 -54.612  14.550  1.00  0.00    -0.376 N 
HETATM   15  C   UNL     1     -38.986 -54.888  15.060  1.00  0.00     0.150 C 
HETATM   16  C   UNL     1     -41.424 -54.774  15.493  1.00  0.00     0.150 C 
ENDBRANCH  10  14
ENDBRANCH   1   7
BRANCH   4  17
HETATM   17  C   UNL     1     -42.370 -47.155  10.156  1.00  0.00     0.156 C 
BRANCH  17  18
HETATM   18  C   UNL     1     -41.654 -45.842  10.433  1.00  0.00     0.139 C 
HETATM   19  C   UNL     1     -40.149 -45.939  10.624  1.00  0.00     0.035 C 
HETATM   20  C   UNL     1     -39.837 -44.868  11.652  1.00  0.00     0.029 C 
HETATM   21  C   UNL     1     -41.177 -44.246  11.985  1.00  0.00     0.168 C 
HETATM   22  O   UNL     1     -42.153 -45.231  11.633  1.00  0.00    -0.384 OA
ENDBRANCH  17  18
ENDBRANCH   4  17
TORSDOF 4
ENDMDL
MODEL 7
REMARK VINA RESULT:      -5.4      3.057      7.676
REMARK  4 active torsions:
REMARK  status: ('A' for Active; 'I' for Inactive)
REMARK    1  A    between atoms: N_2  and  C_4 
REMARK    2  A    between atoms: C_7  and  N_8 
REMARK       I    between atoms: N_8  and  C_9 
REMARK       I    between atoms: C_9  and  N_11 
REMARK    3  A    between atoms: N_11  and  C_12 
REMARK    4  A    between atoms: C_12  and  C_13 
ROOT
HETATM    1  N   UNL     1     -42.027 -49.308  11.058  1.00  0.00    -0.308 N 
HETATM    2  C   UNL     1     -41.860 -50.113  12.166  1.00  0.00     0.320 C 
HETATM    3  O   UNL     1     -41.623 -49.729  13.306  1.00  0.00    -0.247 OA
HETATM    4  N   UNL     1     -41.963 -51.460  11.884  1.00  0.00    -0.340 N 
HETATM    5  H   UNL     1     -42.312 -49.757  10.201  1.00  0.00     0.170 HD
HETATM    6  H   UNL     1     -42.637 -51.726  11.181  1.00  0.00     0.164 HD
ENDROOT
BRANCH   1   7
HETATM    7  C   UNL     1     -41.885 -47.899  11.053  1.00  0.00     0.051 A 
HETATM    8  C   UNL     1     -40.651 -47.260  11.053  1.00  0.00     0.035 A 
HETATM    9  C   UNL     1     -40.577 -45.867  11.060  1.00  0.00     0.050 A 
HETATM   10  C   UNL     1     -41.734 -45.093  11.075  1.00  0.00     0.102 A 
HETATM   11  N   UNL     1     -42.943 -45.702  11.035  1.00  0.00    -0.350 N 
HETATM   12  C   UNL     1     -42.993 -47.064  11.027  1.00  0.00     0.119 A 
ATOM     13  HN  UNL     1     -43.802 -45.150  11.012  1.00  0.00     0.166 HD
BRANCH  10  14
HETATM   14  N   UNL     1     -41.642 -43.692  11.088  1.00  0.00    -0.376 N 
HETATM   15  C   UNL     1     -42.871 -43.004  11.459  1.00  0.00     0.150 C 
HETATM   16  C   UNL     1     -40.400 -43.127  11.604  1.00  0.00     0.150 C 
ENDBRANCH  10  14
ENDBRANCH   1   7
BRANCH   4  17
HETATM   17  C   UNL     1     -41.867 -52.360  13.026  1.00  0.00     0.156 C 
BRANCH  17  18
HETATM   18  C   UNL     1     -42.845 -53.526  13.005  1.00  0.00     0.139 C 
HETATM   19  C   UNL     1     -44.238 -53.210  12.485  1.00  0.00     0.035 C 
HETATM   20  C   UNL     1     -45.150 -54.103  13.306  1.00  0.00     0.029 C 
HETATM   21  C   UNL     1     -44.222 -54.852  14.241  1.00  0.00     0.168 C 
HETATM   22  O   UNL     1     -43.039 -54.052  14.327  1.00  0.00    -0.384 OA
ENDBRANCH  17  18
ENDBRANCH   4  17
TORSDOF 4
ENDMDL
MODEL 8
REMARK VINA RESULT:      -5.4      3.054      4.035
REMARK  4 active torsions:
REMARK  status: ('A' for Active; 'I' for Inactive)
REMARK    1  A    between atoms: N_2  and  C_4 
REMARK    2  A    between atoms: C_7  and  N_8 
REMARK       I    between atoms: N_8  and  C_9 
REMARK       I    between atoms: C_9  and  N_11 
REMARK    3  A    between atoms: N_11  and  C_12 
REMARK    4  A    between atoms: C_12  and  C_13 
ROOT
HETATM    1  N   UNL     1     -40.984 -47.600  10.443  1.00  0.00    -0.308 N 
HETATM    2  C   UNL     1     -40.547 -46.453  11.074  1.00  0.00     0.320 C 
HETATM    3  O   UNL     1     -40.299 -46.338  12.268  1.00  0.00    -0.247 OA
HETATM    4  N   UNL     1     -40.424 -45.374  10.222  1.00  0.00    -0.340 N 
HETATM    5  H   UNL     1     -41.057 -47.573   9.438  1.00  0.00     0.170 HD
HETATM    6  H   UNL     1     -40.104 -45.570   9.284  1.00  0.00     0.164 HD
ENDROOT
BRANCH   1   7
HETATM    7  C   UNL     1     -41.276 -48.821  11.098  1.00  0.00     0.051 A 
HETATM    8  C   UNL     1     -40.366 -49.866  11.197  1.00  0.00     0.035 A 
HETATM    9  C   UNL     1     -40.718 -51.050  11.846  1.00  0.00     0.050 A 
HETATM   10  C   UNL     1     -41.986 -51.210  12.397  1.00  0.00     0.102 A 
HETATM   11  N   UNL     1     -42.870 -50.185  12.342  1.00  0.00    -0.350 N 
HETATM   12  C   UNL     1     -42.505 -49.037  11.705  1.00  0.00     0.119 A 
ATOM     13  HN  UNL     1     -43.793 -50.272  12.770  1.00  0.00     0.166 HD
BRANCH  10  14
HETATM   14  N   UNL     1     -42.327 -52.410  13.041  1.00  0.00    -0.376 N 
HETATM   15  C   UNL     1     -43.591 -52.994  12.614  1.00  0.00     0.150 C 
HETATM   16  C   UNL     1     -41.234 -53.344  13.297  1.00  0.00     0.150 C 
ENDBRANCH  10  14
ENDBRANCH   1   7
BRANCH   4  17
HETATM   17  C   UNL     1     -39.898 -44.151  10.813  1.00  0.00     0.156 C 
BRANCH  17  18
HETATM   18  C   UNL     1     -40.945 -43.095  11.135  1.00  0.00     0.139 C 
HETATM   19  C   UNL     1     -41.280 -42.924  12.607  1.00  0.00     0.035 C 
HETATM   20  C   UNL     1     -42.757 -42.577  12.613  1.00  0.00     0.029 C 
HETATM   21  C   UNL     1     -43.164 -42.585  11.153  1.00  0.00     0.168 C 
HETATM   22  O   UNL     1     -42.192 -43.399  10.491  1.00  0.00    -0.384 OA
ENDBRANCH  17  18
ENDBRANCH   4  17
TORSDOF 4
ENDMDL
MODEL 9
REMARK VINA RESULT:      -5.1      2.800      3.360
REMARK  4 active torsions:
REMARK  status: ('A' for Active; 'I' for Inactive)
REMARK    1  A    between atoms: N_2  and  C_4 
REMARK    2  A    between atoms: C_7  and  N_8 
REMARK       I    between atoms: N_8  and  C_9 
REMARK       I    between atoms: C_9  and  N_11 
REMARK    3  A    between atoms: N_11  and  C_12 
REMARK    4  A    between atoms: C_12  and  C_13 
ROOT
HETATM    1  N   UNL     1     -40.932 -50.862  11.388  1.00  0.00    -0.308 N 
HETATM    2  C   UNL     1     -40.600 -49.623  11.898  1.00  0.00     0.320 C 
HETATM    3  O   UNL     1     -40.765 -49.253  13.055  1.00  0.00    -0.247 OA
HETATM    4  N   UNL     1     -40.057 -48.772  10.957  1.00  0.00    -0.340 N 
HETATM    5  H   UNL     1     -40.652 -51.059  10.440  1.00  0.00     0.170 HD
HETATM    6  H   UNL     1     -39.462 -49.190  10.256  1.00  0.00     0.164 HD
ENDROOT
BRANCH   1   7
HETATM    7  C   UNL     1     -41.582 -51.888  12.116  1.00  0.00     0.051 A 
HETATM    8  C   UNL     1     -42.909 -51.809  12.520  1.00  0.00     0.035 A 
HETATM    9  C   UNL     1     -43.489 -52.850  13.245  1.00  0.00     0.050 A 
HETATM   10  C   UNL     1     -42.751 -53.980  13.583  1.00  0.00     0.102 A 
HETATM   11  N   UNL     1     -41.468 -54.088  13.163  1.00  0.00    -0.350 N 
HETATM   12  C   UNL     1     -40.921 -53.060  12.454  1.00  0.00     0.119 A 
ATOM     13  HN  UNL     1     -40.921 -54.924  13.373  1.00  0.00     0.166 HD
BRANCH  10  14
HETATM   14  N   UNL     1     -43.348 -55.016  14.319  1.00  0.00    -0.376 N 
HETATM   15  C   UNL     1     -42.694 -55.320  15.585  1.00  0.00     0.150 C 
HETATM   16  C   UNL     1     -44.807 -55.059  14.315  1.00  0.00     0.150 C 
ENDBRANCH  10  14
ENDBRANCH   1   7
BRANCH   4  17
HETATM   17  C   UNL     1     -39.619 -47.473  11.449  1.00  0.00     0.156 C 
BRANCH  17  18
HETATM   18  C   UNL     1     -40.438 -46.291  10.953  1.00  0.00     0.139 C 
HETATM   19  C   UNL     1     -39.644 -45.057  10.558  1.00  0.00     0.035 C 
HETATM   20  C   UNL     1     -40.544 -43.898  10.944  1.00  0.00     0.029 C 
HETATM   21  C   UNL     1     -41.777 -44.546  11.541  1.00  0.00     0.168 C 
HETATM   22  O   UNL     1     -41.359 -45.847  11.962  1.00  0.00    -0.384 OA
ENDBRANCH  17  18
ENDBRANCH   4  17
TORSDOF 4
ENDMDL
