MODEL 1
REMARK VINA RESULT:      -5.4      0.000      0.000
REMARK  6 active torsions:
REMARK  status: ('A' for Active; 'I' for Inactive)
REMARK    1  A    between atoms: C_2  and  C_3 
REMARK    2  A    between atoms: C_3  and  S_4 
REMARK    3  A    between atoms: S_4  and  C_5 
REMARK    4  A    between atoms: C_10  and  C_11 
REMARK    5  A    between atoms: N_14  and  C_15 
REMARK    6  A    between atoms: C_15  and  C_16 
REMARK       I    between atoms: C_16  and  N_18 
ROOT
HETATM    1  C   UNL     1     -42.043 -47.366  10.268  1.00  0.00     0.163 A 
HETATM    2  N   UNL     1     -42.036 -48.644   9.977  1.00  0.00    -0.278 N 
ATOM      3  HN  UNL     1     -42.724 -49.134   9.404  1.00  0.00     0.189 HD
HETATM    4  N   UNL     1     -40.940 -49.203  10.578  1.00  0.00    -0.286 N 
ATOM      5  HN  UNL     1     -40.663 -50.183  10.523  1.00  0.00     0.188 HD
HETATM    6  C   UNL     1     -40.305 -48.257  11.241  1.00  0.00     0.104 A 
HETATM    7  N   UNL     1     -40.964 -47.063  11.058  1.00  0.00    -0.306 N 
ENDROOT
BRANCH   7   8
HETATM    8  C   UNL     1     -40.541 -45.759  11.526  1.00  0.00     0.235 C 
BRANCH   8   9
HETATM    9  C   UNL     1     -40.037 -44.837  10.436  1.00  0.00     0.233 C 
HETATM   10  O   UNL     1     -40.400 -43.666  10.345  1.00  0.00    -0.272 OA
HETATM   11  N   UNL     1     -39.103 -45.332   9.578  1.00  0.00    -0.369 N 
HETATM   12  H   UNL     1     -38.867 -46.313   9.504  1.00  0.00     0.159 HD
HETATM   13  H   UNL     1     -38.790 -44.719   8.832  1.00  0.00     0.159 HD
ENDBRANCH   8   9
ENDBRANCH   7   8
BRANCH   1  14
HETATM   14  S   UNL     1     -43.230 -46.224   9.738  1.00  0.00    -0.092 SA
BRANCH  14  15
HETATM   15  C   UNL     1     -44.314 -47.297   8.735  1.00  0.00     0.082 C 
BRANCH  15  16
HETATM   16  C   UNL     1     -45.657 -47.487   9.440  1.00  0.00     0.006 C 
HETATM   17  C   UNL     1     -46.563 -48.440   8.673  1.00  0.00     0.006 C 
ENDBRANCH  15  16
ENDBRANCH  14  15
ENDBRANCH   1  14
BRANCH   6  18
HETATM   18  C   UNL     1     -39.068 -48.530  12.089  1.00  0.00     0.055 A 
HETATM   19  C   UNL     1     -38.860 -49.909  12.679  1.00  0.00     0.013 A 
HETATM   20  C   UNL     1     -39.313 -48.799  13.564  1.00  0.00     0.013 A 
ENDBRANCH   6  18
TORSDOF 6
ENDMDL
MODEL 2
REMARK VINA RESULT:      -5.1      3.648      5.012
REMARK  6 active torsions:
REMARK  status: ('A' for Active; 'I' for Inactive)
REMARK    1  A    between atoms: C_2  and  C_3 
REMARK    2  A    between atoms: C_3  and  S_4 
REMARK    3  A    between atoms: S_4  and  C_5 
REMARK    4  A    between atoms: C_10  and  C_11 
REMARK    5  A    between atoms: N_14  and  C_15 
REMARK    6  A    between atoms: C_15  and  C_16 
REMARK       I    between atoms: C_16  and  N_18 
ROOT
HETATM    1  C   UNL     1     -40.710 -49.371  11.897  1.00  0.00     0.163 A 
HETATM    2  N   UNL     1     -41.861 -49.833  11.471  1.00  0.00    -0.278 N 
ATOM      3  HN  UNL     1     -42.603 -49.287  11.033  1.00  0.00     0.189 HD
HETATM    4  N   UNL     1     -41.888 -51.180  11.720  1.00  0.00    -0.286 N 
ATOM      5  HN  UNL     1     -42.652 -51.816  11.489  1.00  0.00     0.188 HD
HETATM    6  C   UNL     1     -40.757 -51.514  12.309  1.00  0.00     0.104 A 
HETATM    7  N   UNL     1     -39.966 -50.393  12.428  1.00  0.00    -0.306 N 
ENDROOT
BRANCH   7   8
HETATM    8  C   UNL     1     -38.606 -50.341  12.922  1.00  0.00     0.235 C 
BRANCH   8   9
HETATM    9  C   UNL     1     -37.560 -50.780  11.920  1.00  0.00     0.233 C 
HETATM   10  O   UNL     1     -36.830 -51.750  12.113  1.00  0.00    -0.272 OA
HETATM   11  N   UNL     1     -37.488 -50.095  10.746  1.00  0.00    -0.369 N 
HETATM   12  H   UNL     1     -37.951 -49.210  10.579  1.00  0.00     0.159 HD
HETATM   13  H   UNL     1     -36.766 -50.374  10.090  1.00  0.00     0.159 HD
ENDBRANCH   8   9
ENDBRANCH   7   8
BRANCH   1  14
HETATM   14  S   UNL     1     -40.197 -47.721  11.805  1.00  0.00    -0.092 SA
BRANCH  14  15
HETATM   15  C   UNL     1     -41.436 -47.042  10.648  1.00  0.00     0.082 C 
BRANCH  15  16
HETATM   16  C   UNL     1     -41.235 -45.534  10.496  1.00  0.00     0.006 C 
HETATM   17  C   UNL     1     -39.763 -45.177  10.339  1.00  0.00     0.006 C 
ENDBRANCH  15  16
ENDBRANCH  14  15
ENDBRANCH   1  14
BRANCH   6  18
HETATM   18  C   UNL     1     -40.463 -52.929  12.793  1.00  0.00     0.055 A 
HETATM   19  C   UNL     1     -41.614 -53.856  13.123  1.00  0.00     0.013 A 
HETATM   20  C   UNL     1     -40.839 -53.236  14.233  1.00  0.00     0.013 A 
ENDBRANCH   6  18
TORSDOF 6
ENDMDL
MODEL 3
REMARK VINA RESULT:      -5.1      5.856      6.984
REMARK  6 active torsions:
REMARK  status: ('A' for Active; 'I' for Inactive)
REMARK    1  A    between atoms: C_2  and  C_3 
REMARK    2  A    between atoms: C_3  and  S_4 
REMARK    3  A    between atoms: S_4  and  C_5 
REMARK    4  A    between atoms: C_10  and  C_11 
REMARK    5  A    between atoms: N_14  and  C_15 
REMARK    6  A    between atoms: C_15  and  C_16 
REMARK       I    between atoms: C_16  and  N_18 
ROOT
HETATM    1  C   UNL     1     -41.420 -52.771  12.587  1.00  0.00     0.163 A 
HETATM    2  N   UNL     1     -41.512 -52.184  11.419  1.00  0.00    -0.278 N 
ATOM      3  HN  UNL     1     -42.213 -52.376  10.703  1.00  0.00     0.189 HD
HETATM    4  N   UNL     1     -40.499 -51.265  11.332  1.00  0.00    -0.286 N 
ATOM      5  HN  UNL     1     -40.320 -50.645  10.542  1.00  0.00     0.188 HD
HETATM    6  C   UNL     1     -39.796 -51.320  12.445  1.00  0.00     0.104 A 
HETATM    7  N   UNL     1     -40.357 -52.257  13.284  1.00  0.00    -0.306 N 
ENDROOT
BRANCH   7   8
HETATM    8  C   UNL     1     -39.956 -52.553  14.644  1.00  0.00     0.235 C 
BRANCH   8   9
HETATM    9  C   UNL     1     -39.390 -53.944  14.840  1.00  0.00     0.233 C 
HETATM   10  O   UNL     1     -39.583 -54.593  15.866  1.00  0.00    -0.272 OA
HETATM   11  N   UNL     1     -38.699 -54.492  13.804  1.00  0.00    -0.369 N 
HETATM   12  H   UNL     1     -38.382 -53.971  12.996  1.00  0.00     0.159 HD
HETATM   13  H   UNL     1     -38.297 -55.413  13.951  1.00  0.00     0.159 HD
ENDBRANCH   8   9
ENDBRANCH   7   8
BRANCH   1  14
HETATM   14  S   UNL     1     -42.477 -54.010  13.172  1.00  0.00    -0.092 SA
BRANCH  14  15
HETATM   15  C   UNL     1     -44.064 -53.477  12.444  1.00  0.00     0.082 C 
BRANCH  15  16
HETATM   16  C   UNL     1     -45.194 -53.679  13.453  1.00  0.00     0.006 C 
HETATM   17  C   UNL     1     -45.411 -55.153  13.767  1.00  0.00     0.006 C 
ENDBRANCH  15  16
ENDBRANCH  14  15
ENDBRANCH   1  14
BRANCH   6  18
HETATM   18  C   UNL     1     -38.546 -50.479  12.675  1.00  0.00     0.055 A 
HETATM   19  C   UNL     1     -37.640 -50.156  11.505  1.00  0.00     0.013 A 
HETATM   20  C   UNL     1     -37.216 -51.191  12.489  1.00  0.00     0.013 A 
ENDBRANCH   6  18
TORSDOF 6
ENDMDL
MODEL 4
REMARK VINA RESULT:      -5.1      5.189      6.280
REMARK  6 active torsions:
REMARK  status: ('A' for Active; 'I' for Inactive)
REMARK    1  A    between atoms: C_2  and  C_3 
REMARK    2  A    between atoms: C_3  and  S_4 
REMARK    3  A    between atoms: S_4  and  C_5 
REMARK    4  A    between atoms: C_10  and  C_11 
REMARK    5  A    between atoms: N_14  and  C_15 
REMARK    6  A    between atoms: C_15  and  C_16 
REMARK       I    between atoms: C_16  and  N_18 
ROOT
HETATM    1  C   UNL     1     -43.509 -50.665  13.111  1.00  0.00     0.163 A 
HETATM    2  N   UNL     1     -44.775 -50.711  12.775  1.00  0.00    -0.278 N 
ATOM      3  HN  UNL     1     -45.380 -49.909  12.601  1.00  0.00     0.189 HD
HETATM    4  N   UNL     1     -45.139 -52.030  12.699  1.00  0.00    -0.286 N 
ATOM      5  HN  UNL     1     -46.063 -52.382  12.447  1.00  0.00     0.188 HD
HETATM    6  C   UNL     1     -44.090 -52.766  13.007  1.00  0.00     0.104 A 
HETATM    7  N   UNL     1     -43.020 -51.938  13.262  1.00  0.00    -0.306 N 
ENDROOT
BRANCH   7   8
HETATM    8  C   UNL     1     -41.656 -52.342  13.533  1.00  0.00     0.235 C 
BRANCH   8   9
HETATM    9  C   UNL     1     -40.722 -52.224  12.348  1.00  0.00     0.233 C 
HETATM   10  O   UNL     1     -39.566 -51.822  12.460  1.00  0.00    -0.272 OA
HETATM   11  N   UNL     1     -41.186 -52.640  11.139  1.00  0.00    -0.369 N 
HETATM   12  H   UNL     1     -42.158 -52.845  10.946  1.00  0.00     0.159 HD
HETATM   13  H   UNL     1     -40.566 -52.532  10.342  1.00  0.00     0.159 HD
ENDBRANCH   8   9
ENDBRANCH   7   8
BRANCH   1  14
HETATM   14  S   UNL     1     -42.583 -49.221  13.333  1.00  0.00    -0.092 SA
BRANCH  14  15
HETATM   15  C   UNL     1     -42.145 -48.826  11.605  1.00  0.00     0.082 C 
BRANCH  15  16
HETATM   16  C   UNL     1     -43.157 -47.840  11.022  1.00  0.00     0.006 C 
HETATM   17  C   UNL     1     -42.953 -47.643   9.526  1.00  0.00     0.006 C 
ENDBRANCH  15  16
ENDBRANCH  14  15
ENDBRANCH   1  14
BRANCH   6  18
HETATM   18  C   UNL     1     -44.143 -54.287  13.089  1.00  0.00     0.055 A 
HETATM   19  C   UNL     1     -45.363 -54.958  13.686  1.00  0.00     0.013 A 
HETATM   20  C   UNL     1     -44.108 -54.884  14.486  1.00  0.00     0.013 A 
ENDBRANCH   6  18
TORSDOF 6
ENDMDL
MODEL 5
REMARK VINA RESULT:      -5.1      2.051      5.168
REMARK  6 active torsions:
REMARK  status: ('A' for Active; 'I' for Inactive)
REMARK    1  A    between atoms: C_2  and  C_3 
REMARK    2  A    between atoms: C_3  and  S_4 
REMARK    3  A    between atoms: S_4  and  C_5 
REMARK    4  A    between atoms: C_10  and  C_11 
REMARK    5  A    between atoms: N_14  and  C_15 
REMARK    6  A    between atoms: C_15  and  C_16 
REMARK       I    between atoms: C_16  and  N_18 
ROOT
HETATM    1  C   UNL     1     -40.622 -47.591  11.560  1.00  0.00     0.163 A 
HETATM    2  N   UNL     1     -40.447 -48.655  10.816  1.00  0.00    -0.278 N 
ATOM      3  HN  UNL     1     -39.662 -49.304  10.871  1.00  0.00     0.189 HD
HETATM    4  N   UNL     1     -41.507 -48.740   9.952  1.00  0.00    -0.286 N 
ATOM      5  HN  UNL     1     -41.654 -49.470   9.256  1.00  0.00     0.188 HD
HETATM    6  C   UNL     1     -42.303 -47.713  10.174  1.00  0.00     0.104 A 
HETATM    7  N   UNL     1     -41.787 -46.960  11.205  1.00  0.00    -0.306 N 
ENDROOT
BRANCH   7   8
HETATM    8  C   UNL     1     -42.404 -45.810  11.831  1.00  0.00     0.235 C 
BRANCH   8   9
HETATM    9  C   UNL     1     -42.147 -44.498  11.120  1.00  0.00     0.233 C 
HETATM   10  O   UNL     1     -41.082 -44.253  10.558  1.00  0.00    -0.272 OA
HETATM   11  N   UNL     1     -43.169 -43.601  11.068  1.00  0.00    -0.369 N 
HETATM   12  H   UNL     1     -44.013 -43.673  11.623  1.00  0.00     0.159 HD
HETATM   13  H   UNL     1     -42.982 -42.712  10.616  1.00  0.00     0.159 HD
ENDBRANCH   8   9
ENDBRANCH   7   8
BRANCH   1  14
HETATM   14  S   UNL     1     -39.551 -47.053  12.809  1.00  0.00    -0.092 SA
BRANCH  14  15
HETATM   15  C   UNL     1     -39.157 -48.637  13.626  1.00  0.00     0.082 C 
BRANCH  15  16
HETATM   16  C   UNL     1     -37.729 -49.060  13.282  1.00  0.00     0.006 C 
HETATM   17  C   UNL     1     -37.704 -50.357  12.485  1.00  0.00     0.006 C 
ENDBRANCH  15  16
ENDBRANCH  14  15
ENDBRANCH   1  14
BRANCH   6  18
HETATM   18  C   UNL     1     -43.557 -47.446   9.350  1.00  0.00     0.055 A 
HETATM   19  C   UNL     1     -43.562 -47.783   7.873  1.00  0.00     0.013 A 
HETATM   20  C   UNL     1     -43.445 -46.359   8.294  1.00  0.00     0.013 A 
ENDBRANCH   6  18
TORSDOF 6
ENDMDL
MODEL 6
REMARK VINA RESULT:      -5.0      2.020      2.284
REMARK  6 active torsions:
REMARK  status: ('A' for Active; 'I' for Inactive)
REMARK    1  A    between atoms: C_2  and  C_3 
REMARK    2  A    between atoms: C_3  and  S_4 
REMARK    3  A    between atoms: S_4  and  C_5 
REMARK    4  A    between atoms: C_10  and  C_11 
REMARK    5  A    between atoms: N_14  and  C_15 
REMARK    6  A    between atoms: C_15  and  C_16 
REMARK       I    between atoms: C_16  and  N_18 
ROOT
HETATM    1  C   UNL     1     -41.343 -48.591  11.220  1.00  0.00     0.163 A 
HETATM    2  N   UNL     1     -40.937 -49.457  10.324  1.00  0.00    -0.278 N 
ATOM      3  HN  UNL     1     -41.473 -49.790   9.523  1.00  0.00     0.189 HD
HETATM    4  N   UNL     1     -39.662 -49.833  10.655  1.00  0.00    -0.286 N 
ATOM      5  HN  UNL     1     -39.078 -50.490  10.137  1.00  0.00     0.188 HD
HETATM    6  C   UNL     1     -39.319 -49.201  11.760  1.00  0.00     0.104 A 
HETATM    7  N   UNL     1     -40.356 -48.383  12.148  1.00  0.00    -0.306 N 
ENDROOT
BRANCH   7   8
HETATM    8  C   UNL     1     -40.351 -47.440  13.247  1.00  0.00     0.235 C 
BRANCH   8   9
HETATM    9  C   UNL     1     -39.682 -46.119  12.935  1.00  0.00     0.233 C 
HETATM   10  O   UNL     1     -40.013 -45.424  11.976  1.00  0.00    -0.272 OA
HETATM   11  N   UNL     1     -38.723 -45.681  13.796  1.00  0.00    -0.369 N 
HETATM   12  H   UNL     1     -38.304 -46.257  14.515  1.00  0.00     0.159 HD
HETATM   13  H   UNL     1     -38.257 -44.809  13.566  1.00  0.00     0.159 HD
ENDBRANCH   8   9
ENDBRANCH   7   8
BRANCH   1  14
HETATM   14  S   UNL     1     -42.892 -47.818  11.236  1.00  0.00    -0.092 SA
BRANCH  14  15
HETATM   15  C   UNL     1     -42.730 -46.698   9.804  1.00  0.00     0.082 C 
BRANCH  15  16
HETATM   16  C   UNL     1     -43.877 -46.937   8.822  1.00  0.00     0.006 C 
HETATM   17  C   UNL     1     -43.471 -47.888   7.704  1.00  0.00     0.006 C 
ENDBRANCH  15  16
ENDBRANCH  14  15
ENDBRANCH   1  14
BRANCH   6  18
HETATM   18  C   UNL     1     -37.984 -49.426  12.461  1.00  0.00     0.055 A 
HETATM   19  C   UNL     1     -37.305 -50.775  12.352  1.00  0.00     0.013 A 
HETATM   20  C   UNL     1     -37.994 -50.407  13.620  1.00  0.00     0.013 A 
ENDBRANCH   6  18
TORSDOF 6
ENDMDL
MODEL 7
REMARK VINA RESULT:      -4.7      4.012      6.129
REMARK  6 active torsions:
REMARK  status: ('A' for Active; 'I' for Inactive)
REMARK    1  A    between atoms: C_2  and  C_3 
REMARK    2  A    between atoms: C_3  and  S_4 
REMARK    3  A    between atoms: S_4  and  C_5 
REMARK    4  A    between atoms: C_10  and  C_11 
REMARK    5  A    between atoms: N_14  and  C_15 
REMARK    6  A    between atoms: C_15  and  C_16 
REMARK       I    between atoms: C_16  and  N_18 
ROOT
HETATM    1  C   UNL     1     -40.799 -50.232  11.740  1.00  0.00     0.163 A 
HETATM    2  N   UNL     1     -40.522 -49.970  10.486  1.00  0.00    -0.278 N 
ATOM      3  HN  UNL     1     -39.837 -50.457   9.907  1.00  0.00     0.189 HD
HETATM    4  N   UNL     1     -41.317 -48.927  10.091  1.00  0.00    -0.286 N 
ATOM      5  HN  UNL     1     -41.335 -48.507   9.162  1.00  0.00     0.188 HD
HETATM    6  C   UNL     1     -42.055 -48.559  11.119  1.00  0.00     0.104 A 
HETATM    7  N   UNL     1     -41.770 -49.376  12.191  1.00  0.00    -0.306 N 
ENDROOT
BRANCH   7   8
HETATM    8  C   UNL     1     -42.432 -49.378  13.478  1.00  0.00     0.235 C 
BRANCH   8   9
HETATM    9  C   UNL     1     -43.440 -50.493  13.661  1.00  0.00     0.233 C 
HETATM   10  O   UNL     1     -43.470 -51.194  14.669  1.00  0.00    -0.272 OA
HETATM   11  N   UNL     1     -44.372 -50.663  12.683  1.00  0.00    -0.369 N 
HETATM   12  H   UNL     1     -44.322 -50.225  11.772  1.00  0.00     0.159 HD
HETATM   13  H   UNL     1     -45.027 -51.430  12.796  1.00  0.00     0.159 HD
ENDBRANCH   8   9
ENDBRANCH   7   8
BRANCH   1  14
HETATM   14  S   UNL     1     -40.057 -51.471  12.693  1.00  0.00    -0.092 SA
BRANCH  14  15
HETATM   15  C   UNL     1     -41.057 -52.920  12.208  1.00  0.00     0.082 C 
BRANCH  15  16
HETATM   16  C   UNL     1     -40.705 -54.116  13.092  1.00  0.00     0.006 C 
HETATM   17  C   UNL     1     -41.322 -53.990  14.479  1.00  0.00     0.006 C 
ENDBRANCH  15  16
ENDBRANCH  14  15
ENDBRANCH   1  14
BRANCH   6  18
HETATM   18  C   UNL     1     -43.018 -47.378  11.066  1.00  0.00     0.055 A 
HETATM   19  C   UNL     1     -42.718 -46.216  10.142  1.00  0.00     0.013 A 
HETATM   20  C   UNL     1     -42.491 -46.059  11.606  1.00  0.00     0.013 A 
ENDBRANCH   6  18
TORSDOF 6
ENDMDL
MODEL 8
REMARK VINA RESULT:      -4.7      6.831      9.080
REMARK  6 active torsions:
REMARK  status: ('A' for Active; 'I' for Inactive)
REMARK    1  A    between atoms: C_2  and  C_3 
REMARK    2  A    between atoms: C_3  and  S_4 
REMARK    3  A    between atoms: S_4  and  C_5 
REMARK    4  A    between atoms: C_10  and  C_11 
REMARK    5  A    between atoms: N_14  and  C_15 
REMARK    6  A    between atoms: C_15  and  C_16 
REMARK       I    between atoms: C_16  and  N_18 
ROOT
HETATM    1  C   UNL     1     -42.151 -52.745  13.215  1.00  0.00     0.163 A 
HETATM    2  N   UNL     1     -42.410 -52.756  11.931  1.00  0.00    -0.278 N 
ATOM      3  HN  UNL     1     -41.721 -52.726  11.178  1.00  0.00     0.189 HD
HETATM    4  N   UNL     1     -43.770 -52.817  11.779  1.00  0.00    -0.286 N 
ATOM      5  HN  UNL     1     -44.272 -52.850  10.892  1.00  0.00     0.188 HD
HETATM    6  C   UNL     1     -44.319 -52.825  12.977  1.00  0.00     0.104 A 
HETATM    7  N   UNL     1     -43.322 -52.796  13.927  1.00  0.00    -0.306 N 
ENDROOT
BRANCH   7   8
HETATM    8  C   UNL     1     -43.489 -52.898  15.362  1.00  0.00     0.235 C 
BRANCH   8   9
HETATM    9  C   UNL     1     -43.847 -54.285  15.853  1.00  0.00     0.233 C 
HETATM   10  O   UNL     1     -44.893 -54.520  16.454  1.00  0.00    -0.272 OA
HETATM   11  N   UNL     1     -42.990 -55.298  15.551  1.00  0.00    -0.369 N 
HETATM   12  H   UNL     1     -42.054 -55.159  15.191  1.00  0.00     0.159 HD
HETATM   13  H   UNL     1     -43.219 -56.220  15.908  1.00  0.00     0.159 HD
ENDBRANCH   8   9
ENDBRANCH   7   8
BRANCH   1  14
HETATM   14  S   UNL     1     -40.571 -52.677  13.919  1.00  0.00    -0.092 SA
BRANCH  14  15
HETATM   15  C   UNL     1     -40.014 -54.398  13.675  1.00  0.00     0.082 C 
BRANCH  15  16
HETATM   16  C   UNL     1     -38.950 -54.754  14.713  1.00  0.00     0.006 C 
HETATM   17  C   UNL     1     -39.491 -54.645  16.132  1.00  0.00     0.006 C 
ENDBRANCH  15  16
ENDBRANCH  14  15
ENDBRANCH   1  14
BRANCH   6  18
HETATM   18  C   UNL     1     -45.827 -52.821  13.196  1.00  0.00     0.055 A 
HETATM   19  C   UNL     1     -46.705 -51.964  12.309  1.00  0.00     0.013 A 
HETATM   20  C   UNL     1     -46.428 -51.521  13.704  1.00  0.00     0.013 A 
ENDBRANCH   6  18
TORSDOF 6
ENDMDL
MODEL 9
REMARK VINA RESULT:      -4.7      3.136      4.062
REMARK  6 active torsions:
REMARK  status: ('A' for Active; 'I' for Inactive)
REMARK    1  A    between atoms: C_2  and  C_3 
REMARK    2  A    between atoms: C_3  and  S_4 
REMARK    3  A    between atoms: S_4  and  C_5 
REMARK    4  A    between atoms: C_10  and  C_11 
REMARK    5  A    between atoms: N_14  and  C_15 
REMARK    6  A    between atoms: C_15  and  C_16 
REMARK       I    between atoms: C_16  and  N_18 
ROOT
HETATM    1  C   UNL     1     -42.081 -48.609  10.960  1.00  0.00     0.163 A 
HETATM    2  N   UNL     1     -41.252 -48.836   9.971  1.00  0.00    -0.278 N 
ATOM      3  HN  UNL     1     -41.267 -48.383   9.057  1.00  0.00     0.189 HD
HETATM    4  N   UNL     1     -40.360 -49.792  10.384  1.00  0.00    -0.286 N 
ATOM      5  HN  UNL     1     -39.588 -50.167   9.833  1.00  0.00     0.188 HD
HETATM    6  C   UNL     1     -40.673 -50.143  11.615  1.00  0.00     0.104 A 
HETATM    7  N   UNL     1     -41.756 -49.401  12.031  1.00  0.00    -0.306 N 
ENDROOT
BRANCH   7   8
HETATM    8  C   UNL     1     -42.350 -49.400  13.352  1.00  0.00     0.235 C 
BRANCH   8   9
HETATM    9  C   UNL     1     -43.265 -50.575  13.627  1.00  0.00     0.233 C 
HETATM   10  O   UNL     1     -43.048 -51.380  14.529  1.00  0.00    -0.272 OA
HETATM   11  N   UNL     1     -44.391 -50.683  12.870  1.00  0.00    -0.369 N 
HETATM   12  H   UNL     1     -44.560 -50.148  12.027  1.00  0.00     0.159 HD
HETATM   13  H   UNL     1     -44.986 -51.488  13.038  1.00  0.00     0.159 HD
ENDBRANCH   8   9
ENDBRANCH   7   8
BRANCH   1  14
HETATM   14  S   UNL     1     -43.391 -47.479  10.930  1.00  0.00    -0.092 SA
BRANCH  14  15
HETATM   15  C   UNL     1     -43.407 -47.020   9.163  1.00  0.00     0.082 C 
BRANCH  15  16
HETATM   16  C   UNL     1     -44.610 -47.658   8.470  1.00  0.00     0.006 C 
HETATM   17  C   UNL     1     -45.884 -47.487   9.286  1.00  0.00     0.006 C 
ENDBRANCH  15  16
ENDBRANCH  14  15
ENDBRANCH   1  14
BRANCH   6  18
HETATM   18  C   UNL     1     -39.932 -51.236  12.376  1.00  0.00     0.055 A 
HETATM   19  C   UNL     1     -39.497 -50.983  13.805  1.00  0.00     0.013 A 
HETATM   20  C   UNL     1     -38.480 -50.948  12.717  1.00  0.00     0.013 A 
ENDBRANCH   6  18
TORSDOF 6
ENDMDL
