MODEL 1
REMARK VINA RESULT:      -6.0      0.000      0.000
REMARK  4 active torsions:
REMARK  status: ('A' for Active; 'I' for Inactive)
REMARK    1  A    between atoms: C_2  and  C_3 
REMARK    2  A    between atoms: C_2  and  N_11 
REMARK    3  A    between atoms: C_3  and  N_4 
REMARK       I    between atoms: N_11  and  C_12 
REMARK    4  A    between atoms: C_12  and  C_14 
ROOT
HETATM    1  N   UNL     1     -40.041 -47.004  10.912  1.00  0.00    -0.355 N 
HETATM    2  C   UNL     1     -39.543 -47.680  12.000  1.00  0.00     0.224 C 
HETATM    3  O   UNL     1     -39.329 -47.121  13.073  1.00  0.00    -0.273 OA
HETATM    4  H   UNL     1     -40.042 -47.465  10.009  1.00  0.00     0.162 HD
ENDROOT
BRANCH   1   5
HETATM    5  C   UNL     1     -40.327 -45.556  10.953  1.00  0.00     0.100 C 
HETATM    6  C   UNL     1     -39.495 -44.861   9.873  1.00  0.00     0.034 C 
BRANCH   5   7
HETATM    7  C   UNL     1     -41.837 -45.263  10.797  1.00  0.00     0.174 C 
BRANCH   7   8
HETATM    8  N   UNL     1     -42.584 -46.312  10.139  1.00  0.00    -0.285 N 
HETATM    9  C   UNL     1     -43.170 -47.403  10.702  1.00  0.00     0.201 A 
HETATM   10  N   UNL     1     -43.682 -48.159   9.760  1.00  0.00    -0.346 N 
HETATM   11  C   UNL     1     -43.359 -47.488   8.615  1.00  0.00     0.198 A 
ATOM     12  HN  UNL     1     -44.196 -49.035   9.858  1.00  0.00     0.167 HD
HETATM   13  N   UNL     1     -42.686 -46.348   8.796  1.00  0.00    -0.293 N 
ATOM     14  HN  UNL     1     -42.342 -45.683   8.103  1.00  0.00     0.188 HD
ENDBRANCH   7   8
ENDBRANCH   5   7
ENDBRANCH   1   5
BRANCH   2  15
HETATM   15  C   UNL     1     -39.355 -49.170  11.796  1.00  0.00     0.104 C 
HETATM   16  C   UNL     1     -39.787 -49.948  13.033  1.00  0.00     0.139 C 
HETATM   17  N   UNL     1     -38.959 -51.123  13.018  1.00  0.00    -0.356 N 
HETATM   18  C   UNL     1     -39.035 -52.111  14.069  1.00  0.00     0.152 C 
HETATM   19  C   UNL     1     -37.795 -50.917  12.292  1.00  0.00     0.220 C 
HETATM   20  O   UNL     1     -36.824 -51.653  12.250  1.00  0.00    -0.273 OA
HETATM   21  C   UNL     1     -37.898 -49.581  11.597  1.00  0.00     0.118 C 
ENDBRANCH   2  15
TORSDOF 4
ENDMDL
MODEL 2
REMARK VINA RESULT:      -5.8      2.005      2.537
REMARK  4 active torsions:
REMARK  status: ('A' for Active; 'I' for Inactive)
REMARK    1  A    between atoms: C_2  and  C_3 
REMARK    2  A    between atoms: C_2  and  N_11 
REMARK    3  A    between atoms: C_3  and  N_4 
REMARK       I    between atoms: N_11  and  C_12 
REMARK    4  A    between atoms: C_12  and  C_14 
ROOT
HETATM    1  N   UNL     1     -41.673 -48.021  10.109  1.00  0.00    -0.355 N 
HETATM    2  C   UNL     1     -41.720 -48.890  11.173  1.00  0.00     0.224 C 
HETATM    3  O   UNL     1     -42.653 -48.892  11.972  1.00  0.00    -0.273 OA
HETATM    4  H   UNL     1     -40.812 -47.943   9.579  1.00  0.00     0.162 HD
ENDROOT
BRANCH   1   5
HETATM    5  C   UNL     1     -42.727 -47.015   9.872  1.00  0.00     0.100 C 
HETATM    6  C   UNL     1     -42.134 -45.622  10.091  1.00  0.00     0.034 C 
BRANCH   5   7
HETATM    7  C   UNL     1     -43.356 -47.161   8.466  1.00  0.00     0.174 C 
BRANCH   7   8
HETATM    8  N   UNL     1     -44.678 -47.744   8.461  1.00  0.00    -0.285 N 
HETATM    9  C   UNL     1     -45.570 -47.806   9.487  1.00  0.00     0.201 A 
HETATM   10  N   UNL     1     -46.626 -48.488   9.107  1.00  0.00    -0.346 N 
HETATM   11  C   UNL     1     -46.318 -48.847   7.826  1.00  0.00     0.198 A 
ATOM     12  HN  UNL     1     -47.471 -48.698   9.639  1.00  0.00     0.167 HD
HETATM   13  N   UNL     1     -45.134 -48.414   7.384  1.00  0.00    -0.293 N 
ATOM     14  HN  UNL     1     -44.693 -48.553   6.475  1.00  0.00     0.188 HD
ENDBRANCH   7   8
ENDBRANCH   5   7
ENDBRANCH   1   5
BRANCH   2  15
HETATM   15  C   UNL     1     -40.581 -49.887  11.236  1.00  0.00     0.104 C 
HETATM   16  C   UNL     1     -40.878 -50.991  12.242  1.00  0.00     0.139 C 
HETATM   17  N   UNL     1     -39.583 -51.395  12.715  1.00  0.00    -0.356 N 
HETATM   18  C   UNL     1     -39.436 -52.411  13.733  1.00  0.00     0.152 C 
HETATM   19  C   UNL     1     -38.641 -50.392  12.545  1.00  0.00     0.220 C 
HETATM   20  O   UNL     1     -37.514 -50.365  13.009  1.00  0.00    -0.273 OA
HETATM   21  C   UNL     1     -39.268 -49.285  11.732  1.00  0.00     0.118 C 
ENDBRANCH   2  15
TORSDOF 4
ENDMDL
MODEL 3
REMARK VINA RESULT:      -5.8      2.712      3.396
REMARK  4 active torsions:
REMARK  status: ('A' for Active; 'I' for Inactive)
REMARK    1  A    between atoms: C_2  and  C_3 
REMARK    2  A    between atoms: C_2  and  N_11 
REMARK    3  A    between atoms: C_3  and  N_4 
REMARK       I    between atoms: N_11  and  C_12 
REMARK    4  A    between atoms: C_12  and  C_14 
ROOT
HETATM    1  N   UNL     1     -42.081 -49.511  11.402  1.00  0.00    -0.355 N 
HETATM    2  C   UNL     1     -42.555 -50.228  12.474  1.00  0.00     0.224 C 
HETATM    3  O   UNL     1     -43.305 -49.731  13.310  1.00  0.00    -0.273 OA
HETATM    4  H   UNL     1     -41.338 -49.910  10.837  1.00  0.00     0.162 HD
ENDROOT
BRANCH   1   5
HETATM    5  C   UNL     1     -42.421 -48.090  11.197  1.00  0.00     0.100 C 
HETATM    6  C   UNL     1     -41.320 -47.227  11.820  1.00  0.00     0.034 C 
BRANCH   5   7
HETATM    7  C   UNL     1     -42.638 -47.758   9.702  1.00  0.00     0.174 C 
BRANCH   7   8
HETATM    8  N   UNL     1     -43.968 -47.293   9.381  1.00  0.00    -0.285 N 
HETATM    9  C   UNL     1     -44.336 -46.077   8.894  1.00  0.00     0.201 A 
HETATM   10  N   UNL     1     -45.645 -46.017   8.812  1.00  0.00    -0.346 N 
HETATM   11  C   UNL     1     -46.041 -47.233   9.291  1.00  0.00     0.198 A 
ATOM     12  HN  UNL     1     -46.225 -45.249   8.475  1.00  0.00     0.167 HD
HETATM   13  N   UNL     1     -45.049 -48.052   9.652  1.00  0.00    -0.293 N 
ATOM     14  HN  UNL     1     -45.096 -48.998  10.030  1.00  0.00     0.188 HD
ENDBRANCH   7   8
ENDBRANCH   5   7
ENDBRANCH   1   5
BRANCH   2  15
HETATM   15  C   UNL     1     -42.145 -51.686  12.501  1.00  0.00     0.104 C 
HETATM   16  C   UNL     1     -42.532 -52.337  13.824  1.00  0.00     0.139 C 
HETATM   17  N   UNL     1     -41.545 -53.365  14.012  1.00  0.00    -0.356 N 
HETATM   18  C   UNL     1     -41.540 -54.194  15.196  1.00  0.00     0.152 C 
HETATM   19  C   UNL     1     -40.383 -53.093  13.306  1.00  0.00     0.220 C 
HETATM   20  O   UNL     1     -39.316 -53.674  13.409  1.00  0.00    -0.273 OA
HETATM   21  C   UNL     1     -40.635 -51.899  12.417  1.00  0.00     0.118 C 
ENDBRANCH   2  15
TORSDOF 4
ENDMDL
MODEL 4
REMARK VINA RESULT:      -5.6      3.738      4.507
REMARK  4 active torsions:
REMARK  status: ('A' for Active; 'I' for Inactive)
REMARK    1  A    between atoms: C_2  and  C_3 
REMARK    2  A    between atoms: C_2  and  N_11 
REMARK    3  A    between atoms: C_3  and  N_4 
REMARK       I    between atoms: N_11  and  C_12 
REMARK    4  A    between atoms: C_12  and  C_14 
ROOT
HETATM    1  N   UNL     1     -42.906 -49.092  11.933  1.00  0.00    -0.355 N 
HETATM    2  C   UNL     1     -43.188 -49.150  13.277  1.00  0.00     0.224 C 
HETATM    3  O   UNL     1     -43.113 -48.161  14.001  1.00  0.00    -0.273 OA
HETATM    4  H   UNL     1     -42.819 -49.959  11.414  1.00  0.00     0.162 HD
ENDROOT
BRANCH   1   5
HETATM    5  C   UNL     1     -42.472 -47.844  11.276  1.00  0.00     0.100 C 
HETATM    6  C   UNL     1     -40.986 -47.626  11.570  1.00  0.00     0.034 C 
BRANCH   5   7
HETATM    7  C   UNL     1     -42.764 -47.860   9.757  1.00  0.00     0.174 C 
BRANCH   7   8
HETATM    8  N   UNL     1     -44.052 -47.315   9.392  1.00  0.00    -0.285 N 
HETATM    9  C   UNL     1     -44.336 -46.061   8.946  1.00  0.00     0.201 A 
HETATM   10  N   UNL     1     -45.634 -45.932   8.801  1.00  0.00    -0.346 N 
HETATM   11  C   UNL     1     -46.112 -47.148   9.199  1.00  0.00     0.198 A 
ATOM     12  HN  UNL     1     -46.158 -45.121   8.472  1.00  0.00     0.167 HD
HETATM   13  N   UNL     1     -45.180 -48.031   9.570  1.00  0.00    -0.293 N 
ATOM     14  HN  UNL     1     -45.292 -48.989   9.899  1.00  0.00     0.188 HD
ENDBRANCH   7   8
ENDBRANCH   5   7
ENDBRANCH   1   5
BRANCH   2  15
HETATM   15  C   UNL     1     -43.666 -50.499  13.773  1.00  0.00     0.104 C 
HETATM   16  C   UNL     1     -42.570 -51.549  13.638  1.00  0.00     0.139 C 
HETATM   17  N   UNL     1     -43.284 -52.781  13.446  1.00  0.00    -0.356 N 
HETATM   18  C   UNL     1     -42.588 -54.029  13.231  1.00  0.00     0.152 C 
HETATM   19  C   UNL     1     -44.558 -52.560  12.944  1.00  0.00     0.220 C 
HETATM   20  O   UNL     1     -45.325 -53.402  12.509  1.00  0.00    -0.273 OA
HETATM   21  C   UNL     1     -44.824 -51.074  12.961  1.00  0.00     0.118 C 
ENDBRANCH   2  15
TORSDOF 4
ENDMDL
MODEL 5
REMARK VINA RESULT:      -5.6      3.144      6.156
REMARK  4 active torsions:
REMARK  status: ('A' for Active; 'I' for Inactive)
REMARK    1  A    between atoms: C_2  and  C_3 
REMARK    2  A    between atoms: C_2  and  N_11 
REMARK    3  A    between atoms: C_3  and  N_4 
REMARK       I    between atoms: N_11  and  C_12 
REMARK    4  A    between atoms: C_12  and  C_14 
ROOT
HETATM    1  N   UNL     1     -40.782 -46.012  11.827  1.00  0.00    -0.355 N 
HETATM    2  C   UNL     1     -40.619 -44.787  11.225  1.00  0.00     0.224 C 
HETATM    3  O   UNL     1     -40.360 -44.678  10.029  1.00  0.00    -0.273 OA
HETATM    4  H   UNL     1     -40.827 -46.057  12.840  1.00  0.00     0.162 HD
ENDROOT
BRANCH   1   5
HETATM    5  C   UNL     1     -40.633 -47.277  11.083  1.00  0.00     0.100 C 
HETATM    6  C   UNL     1     -39.615 -48.158  11.811  1.00  0.00     0.034 C 
BRANCH   5   7
HETATM    7  C   UNL     1     -41.988 -47.997  10.892  1.00  0.00     0.174 C 
BRANCH   7   8
HETATM    8  N   UNL     1     -42.724 -47.583   9.719  1.00  0.00    -0.285 N 
HETATM    9  C   UNL     1     -43.582 -46.534   9.594  1.00  0.00     0.201 A 
HETATM   10  N   UNL     1     -44.109 -46.541   8.392  1.00  0.00    -0.346 N 
HETATM   11  C   UNL     1     -43.550 -47.646   7.816  1.00  0.00     0.198 A 
ATOM     12  HN  UNL     1     -44.775 -45.883   7.988  1.00  0.00     0.167 HD
HETATM   13  N   UNL     1     -42.692 -48.318   8.589  1.00  0.00    -0.293 N 
ATOM     14  HN  UNL     1     -42.157 -49.161   8.381  1.00  0.00     0.188 HD
ENDBRANCH   7   8
ENDBRANCH   5   7
ENDBRANCH   1   5
BRANCH   2  15
HETATM   15  C   UNL     1     -40.856 -43.593  12.128  1.00  0.00     0.104 C 
HETATM   16  C   UNL     1     -41.259 -42.368  11.316  1.00  0.00     0.139 C 
HETATM   17  N   UNL     1     -40.775 -41.258  12.090  1.00  0.00    -0.356 N 
HETATM   18  C   UNL     1     -40.924 -39.897  11.628  1.00  0.00     0.152 C 
HETATM   19  C   UNL     1     -39.738 -41.634  12.929  1.00  0.00     0.220 C 
HETATM   20  O   UNL     1     -39.009 -40.891  13.565  1.00  0.00    -0.273 OA
HETATM   21  C   UNL     1     -39.609 -43.138  12.881  1.00  0.00     0.118 C 
ENDBRANCH   2  15
TORSDOF 4
ENDMDL
MODEL 6
REMARK VINA RESULT:      -5.6      4.744      5.696
REMARK  4 active torsions:
REMARK  status: ('A' for Active; 'I' for Inactive)
REMARK    1  A    between atoms: C_2  and  C_3 
REMARK    2  A    between atoms: C_2  and  N_11 
REMARK    3  A    between atoms: C_3  and  N_4 
REMARK       I    between atoms: N_11  and  C_12 
REMARK    4  A    between atoms: C_12  and  C_14 
ROOT
HETATM    1  N   UNL     1     -42.159 -51.110  12.020  1.00  0.00    -0.355 N 
HETATM    2  C   UNL     1     -42.775 -51.644  13.127  1.00  0.00     0.224 C 
HETATM    3  O   UNL     1     -42.400 -51.387  14.268  1.00  0.00    -0.273 OA
HETATM    4  H   UNL     1     -42.394 -51.479  11.104  1.00  0.00     0.162 HD
ENDROOT
BRANCH   1   5
HETATM    5  C   UNL     1     -40.992 -50.214  12.128  1.00  0.00     0.100 C 
HETATM    6  C   UNL     1     -39.740 -51.064  12.355  1.00  0.00     0.034 C 
BRANCH   5   7
HETATM    7  C   UNL     1     -40.852 -49.298  10.889  1.00  0.00     0.174 C 
BRANCH   7   8
HETATM    8  N   UNL     1     -41.961 -48.393  10.688  1.00  0.00    -0.285 N 
HETATM    9  C   UNL     1     -42.694 -47.744  11.632  1.00  0.00     0.201 A 
HETATM   10  N   UNL     1     -43.664 -47.078  11.050  1.00  0.00    -0.346 N 
HETATM   11  C   UNL     1     -43.493 -47.374   9.728  1.00  0.00     0.198 A 
ATOM     12  HN  UNL     1     -44.374 -46.484  11.480  1.00  0.00     0.167 HD
HETATM   13  N   UNL     1     -42.460 -48.176   9.455  1.00  0.00    -0.293 N 
ATOM     14  HN  UNL     1     -42.137 -48.530   8.555  1.00  0.00     0.188 HD
ENDBRANCH   7   8
ENDBRANCH   5   7
ENDBRANCH   1   5
BRANCH   2  15
HETATM   15  C   UNL     1     -43.987 -52.504  12.833  1.00  0.00     0.104 C 
HETATM   16  C   UNL     1     -45.165 -52.103  13.712  1.00  0.00     0.139 C 
HETATM   17  N   UNL     1     -45.916 -53.318  13.870  1.00  0.00    -0.356 N 
HETATM   18  C   UNL     1     -47.106 -53.367  14.689  1.00  0.00     0.152 C 
HETATM   19  C   UNL     1     -45.124 -54.438  13.668  1.00  0.00     0.220 C 
HETATM   20  O   UNL     1     -45.424 -55.595  13.909  1.00  0.00    -0.273 OA
HETATM   21  C   UNL     1     -43.780 -53.983  13.151  1.00  0.00     0.118 C 
ENDBRANCH   2  15
TORSDOF 4
ENDMDL
MODEL 7
REMARK VINA RESULT:      -5.5      4.022      5.885
REMARK  4 active torsions:
REMARK  status: ('A' for Active; 'I' for Inactive)
REMARK    1  A    between atoms: C_2  and  C_3 
REMARK    2  A    between atoms: C_2  and  N_11 
REMARK    3  A    between atoms: C_3  and  N_4 
REMARK       I    between atoms: N_11  and  C_12 
REMARK    4  A    between atoms: C_12  and  C_14 
ROOT
HETATM    1  N   UNL     1     -42.122 -50.140  11.997  1.00  0.00    -0.355 N 
HETATM    2  C   UNL     1     -42.007 -51.500  12.158  1.00  0.00     0.224 C 
HETATM    3  O   UNL     1     -41.112 -52.147  11.619  1.00  0.00    -0.273 OA
HETATM    4  H   UNL     1     -42.966 -49.679  12.321  1.00  0.00     0.162 HD
ENDROOT
BRANCH   1   5
HETATM    5  C   UNL     1     -41.194 -49.370  11.146  1.00  0.00     0.100 C 
HETATM    6  C   UNL     1     -41.979 -48.261  10.442  1.00  0.00     0.034 C 
BRANCH   5   7
HETATM    7  C   UNL     1     -40.000 -48.810  11.954  1.00  0.00     0.174 C 
BRANCH   7   8
HETATM    8  N   UNL     1     -38.833 -49.662  11.962  1.00  0.00    -0.285 N 
HETATM    9  C   UNL     1     -38.239 -50.261  13.031  1.00  0.00     0.201 A 
HETATM   10  N   UNL     1     -37.155 -50.886  12.635  1.00  0.00    -0.346 N 
HETATM   11  C   UNL     1     -37.115 -50.618  11.296  1.00  0.00     0.198 A 
ATOM     12  HN  UNL     1     -36.502 -51.437  13.191  1.00  0.00     0.167 HD
HETATM   13  N   UNL     1     -38.123 -49.872  10.836  1.00  0.00    -0.293 N 
ATOM     14  HN  UNL     1     -38.307 -49.547   9.887  1.00  0.00     0.188 HD
ENDBRANCH   7   8
ENDBRANCH   5   7
ENDBRANCH   1   5
BRANCH   2  15
HETATM   15  C   UNL     1     -43.014 -52.120  13.105  1.00  0.00     0.104 C 
HETATM   16  C   UNL     1     -42.351 -53.159  14.001  1.00  0.00     0.139 C 
HETATM   17  N   UNL     1     -43.401 -54.100  14.285  1.00  0.00    -0.356 N 
HETATM   18  C   UNL     1     -43.158 -55.279  15.085  1.00  0.00     0.152 C 
HETATM   19  C   UNL     1     -44.393 -54.066  13.317  1.00  0.00     0.220 C 
HETATM   20  O   UNL     1     -45.307 -54.862  13.183  1.00  0.00    -0.273 OA
HETATM   21  C   UNL     1     -44.120 -52.900  12.397  1.00  0.00     0.118 C 
ENDBRANCH   2  15
TORSDOF 4
ENDMDL
MODEL 8
REMARK VINA RESULT:      -5.5      1.876      2.494
REMARK  4 active torsions:
REMARK  status: ('A' for Active; 'I' for Inactive)
REMARK    1  A    between atoms: C_2  and  C_3 
REMARK    2  A    between atoms: C_2  and  N_11 
REMARK    3  A    between atoms: C_3  and  N_4 
REMARK       I    between atoms: N_11  and  C_12 
REMARK    4  A    between atoms: C_12  and  C_14 
ROOT
HETATM    1  N   UNL     1     -41.564 -46.935  11.993  1.00  0.00    -0.355 N 
HETATM    2  C   UNL     1     -41.901 -48.225  12.325  1.00  0.00     0.224 C 
HETATM    3  O   UNL     1     -43.014 -48.689  12.090  1.00  0.00    -0.273 OA
HETATM    4  H   UNL     1     -40.698 -46.547  12.355  1.00  0.00     0.162 HD
ENDROOT
BRANCH   1   5
HETATM    5  C   UNL     1     -42.524 -46.013  11.355  1.00  0.00     0.100 C 
HETATM    6  C   UNL     1     -42.180 -44.581  11.771  1.00  0.00     0.034 C 
BRANCH   5   7
HETATM    7  C   UNL     1     -42.547 -46.178   9.817  1.00  0.00     0.174 C 
BRANCH   7   8
HETATM    8  N   UNL     1     -43.658 -46.957   9.318  1.00  0.00    -0.285 N 
HETATM    9  C   UNL     1     -43.759 -47.602   8.124  1.00  0.00     0.201 A 
HETATM   10  N   UNL     1     -44.956 -48.128   8.012  1.00  0.00    -0.346 N 
HETATM   11  C   UNL     1     -45.569 -47.751   9.172  1.00  0.00     0.198 A 
ATOM     12  HN  UNL     1     -45.337 -48.682   7.244  1.00  0.00     0.167 HD
HETATM   13  N   UNL     1     -44.813 -47.032  10.007  1.00  0.00    -0.293 N 
ATOM     14  HN  UNL     1     -45.048 -46.644  10.920  1.00  0.00     0.188 HD
ENDBRANCH   7   8
ENDBRANCH   5   7
ENDBRANCH   1   5
BRANCH   2  15
HETATM   15  C   UNL     1     -40.778 -49.045  12.928  1.00  0.00     0.104 C 
HETATM   16  C   UNL     1     -39.490 -48.872  12.133  1.00  0.00     0.139 C 
HETATM   17  N   UNL     1     -38.795 -50.117  12.312  1.00  0.00    -0.356 N 
HETATM   18  C   UNL     1     -37.527 -50.371  11.667  1.00  0.00     0.152 C 
HETATM   19  C   UNL     1     -39.666 -51.145  12.639  1.00  0.00     0.220 C 
HETATM   20  O   UNL     1     -39.407 -52.336  12.672  1.00  0.00    -0.273 OA
HETATM   21  C   UNL     1     -41.031 -50.550  12.890  1.00  0.00     0.118 C 
ENDBRANCH   2  15
TORSDOF 4
ENDMDL
MODEL 9
REMARK VINA RESULT:      -5.5      5.847      7.781
REMARK  4 active torsions:
REMARK  status: ('A' for Active; 'I' for Inactive)
REMARK    1  A    between atoms: C_2  and  C_3 
REMARK    2  A    between atoms: C_2  and  N_11 
REMARK    3  A    between atoms: C_3  and  N_4 
REMARK       I    between atoms: N_11  and  C_12 
REMARK    4  A    between atoms: C_12  and  C_14 
ROOT
HETATM    1  N   UNL     1     -44.279 -53.983  15.994  1.00  0.00    -0.355 N 
HETATM    2  C   UNL     1     -43.870 -54.787  14.958  1.00  0.00     0.224 C 
HETATM    3  O   UNL     1     -44.664 -55.447  14.293  1.00  0.00    -0.273 OA
HETATM    4  H   UNL     1     -43.578 -53.592  16.616  1.00  0.00     0.162 HD
ENDROOT
BRANCH   1   5
HETATM    5  C   UNL     1     -45.696 -53.879  16.393  1.00  0.00     0.100 C 
HETATM    6  C   UNL     1     -45.788 -54.005  17.916  1.00  0.00     0.034 C 
BRANCH   5   7
HETATM    7  C   UNL     1     -46.344 -52.570  15.881  1.00  0.00     0.174 C 
BRANCH   7   8
HETATM    8  N   UNL     1     -46.094 -52.287  14.486  1.00  0.00    -0.285 N 
HETATM    9  C   UNL     1     -45.405 -51.242  13.953  1.00  0.00     0.201 A 
HETATM   10  N   UNL     1     -45.472 -51.297  12.644  1.00  0.00    -0.346 N 
HETATM   11  C   UNL     1     -46.244 -52.400  12.419  1.00  0.00     0.198 A 
ATOM     12  HN  UNL     1     -45.050 -50.668  11.960  1.00  0.00     0.167 HD
HETATM   13  N   UNL     1     -46.650 -53.043  13.518  1.00  0.00    -0.293 N 
ATOM     14  HN  UNL     1     -47.226 -53.880  13.602  1.00  0.00     0.188 HD
ENDBRANCH   7   8
ENDBRANCH   5   7
ENDBRANCH   1   5
BRANCH   2  15
HETATM   15  C   UNL     1     -42.386 -54.736  14.655  1.00  0.00     0.104 C 
HETATM   16  C   UNL     1     -41.664 -53.807  15.624  1.00  0.00     0.139 C 
HETATM   17  N   UNL     1     -40.549 -53.307  14.867  1.00  0.00    -0.356 N 
HETATM   18  C   UNL     1     -39.630 -52.343  15.429  1.00  0.00     0.152 C 
HETATM   19  C   UNL     1     -40.784 -53.381  13.502  1.00  0.00     0.220 C 
HETATM   20  O   UNL     1     -40.113 -52.873  12.619  1.00  0.00    -0.273 OA
HETATM   21  C   UNL     1     -42.061 -54.155  13.281  1.00  0.00     0.118 C 
ENDBRANCH   2  15
TORSDOF 4
ENDMDL
