MODEL 1
REMARK VINA RESULT:      -6.8      0.000      0.000
REMARK  4 active torsions:
REMARK  status: ('A' for Active; 'I' for Inactive)
REMARK    1  A    between atoms: C_2  and  N_3 
REMARK    2  A    between atoms: C_2  and  C_16 
REMARK       I    between atoms: N_3  and  C_4 
REMARK       I    between atoms: C_4  and  N_6 
REMARK    3  A    between atoms: N_6  and  C_7 
REMARK    4  A    between atoms: C_16  and  N_18 
ROOT
HETATM    1  N   UNL     1     -41.042 -48.873  10.471  1.00  0.00    -0.336 N 
HETATM    2  C   UNL     1     -41.470 -49.736  11.467  1.00  0.00     0.322 C 
HETATM    3  O   UNL     1     -42.181 -49.360  12.386  1.00  0.00    -0.247 OA
HETATM    4  N   UNL     1     -41.076 -51.024  11.192  1.00  0.00    -0.295 N 
HETATM    5  H   UNL     1     -40.136 -49.097  10.090  1.00  0.00     0.164 HD
HETATM    6  H   UNL     1     -40.811 -51.219  10.242  1.00  0.00     0.172 HD
ENDROOT
BRANCH   1   7
HETATM    7  C   UNL     1     -41.384 -47.445  10.486  1.00  0.00     0.115 C 
HETATM    8  C   UNL     1     -40.510 -46.757  11.556  1.00  0.00     0.034 C 
BRANCH   7   9
HETATM    9  C   UNL     1     -42.940 -47.111  10.627  1.00  0.00     0.241 C 
HETATM   10  C   UNL     1     -43.118 -46.253  11.908  1.00  0.00     0.045 C 
BRANCH   9  11
HETATM   11  N   UNL     1     -43.579 -46.358   9.490  1.00  0.00     0.098 N 
HETATM   12  C   UNL     1     -45.058 -46.555   9.420  1.00  0.00     0.299 C 
HETATM   13  C   UNL     1     -45.464 -47.974   8.994  1.00  0.00     0.198 C 
HETATM   14  O   UNL     1     -44.985 -48.247   7.672  1.00  0.00    -0.388 OA
HETATM   15  C   UNL     1     -43.564 -48.072   7.587  1.00  0.00     0.198 C 
HETATM   16  C   UNL     1     -43.098 -46.704   8.131  1.00  0.00     0.299 C 
ENDBRANCH   9  11
ENDBRANCH   7   9
ENDBRANCH   1   7
BRANCH   4  17
HETATM   17  C   UNL     1     -41.376 -52.114  12.019  1.00  0.00     0.109 A 
HETATM   18  C   UNL     1     -40.335 -52.704  12.732  1.00  0.00     0.055 A 
HETATM   19  C   UNL     1     -40.601 -53.834  13.511  1.00  0.00    -0.057 A 
HETATM   20  C   UNL     1     -39.505 -54.555  14.238  1.00  0.00     0.048 C 
HETATM   21  C   UNL     1     -41.909 -54.308  13.582  1.00  0.00     0.031 A 
HETATM   22  C   UNL     1     -42.902 -53.647  12.865  1.00  0.00     0.007 A 
HETATM   23  C   UNL     1     -44.327 -54.097  12.899  1.00  0.00     0.068 C 
HETATM   24  N   UNL     1     -42.638 -52.564  12.104  1.00  0.00    -0.346 N 
ATOM     25  HN  UNL     1     -43.389 -52.093  11.600  1.00  0.00     0.167 HD
ENDBRANCH   4  17
TORSDOF 4
ENDMDL
MODEL 2
REMARK VINA RESULT:      -6.6      2.139      7.244
REMARK  4 active torsions:
REMARK  status: ('A' for Active; 'I' for Inactive)
REMARK    1  A    between atoms: C_2  and  N_3 
REMARK    2  A    between atoms: C_2  and  C_16 
REMARK       I    between atoms: N_3  and  C_4 
REMARK       I    between atoms: C_4  and  N_6 
REMARK    3  A    between atoms: N_6  and  C_7 
REMARK    4  A    between atoms: C_16  and  N_18 
ROOT
HETATM    1  N   UNL     1     -41.333 -51.413  12.299  1.00  0.00    -0.336 N 
HETATM    2  C   UNL     1     -41.519 -50.040  12.276  1.00  0.00     0.322 C 
HETATM    3  O   UNL     1     -41.531 -49.374  13.299  1.00  0.00    -0.247 OA
HETATM    4  N   UNL     1     -41.566 -49.580  10.981  1.00  0.00    -0.295 N 
HETATM    5  H   UNL     1     -41.809 -51.907  11.560  1.00  0.00     0.164 HD
HETATM    6  H   UNL     1     -41.194 -50.190  10.274  1.00  0.00     0.172 HD
ENDROOT
BRANCH   1   7
HETATM    7  C   UNL     1     -41.182 -52.153  13.558  1.00  0.00     0.115 C 
HETATM    8  C   UNL     1     -39.717 -52.627  13.660  1.00  0.00     0.034 C 
BRANCH   7   9
HETATM    9  C   UNL     1     -42.245 -53.319  13.803  1.00  0.00     0.241 C 
HETATM   10  C   UNL     1     -41.545 -54.418  14.646  1.00  0.00     0.045 C 
BRANCH   9  11
HETATM   11  N   UNL     1     -43.514 -52.942  14.521  1.00  0.00     0.098 N 
HETATM   12  C   UNL     1     -44.359 -54.124  14.870  1.00  0.00     0.299 C 
HETATM   13  C   UNL     1     -44.997 -54.799  13.645  1.00  0.00     0.198 C 
HETATM   14  O   UNL     1     -45.881 -53.886  12.986  1.00  0.00    -0.388 OA
HETATM   15  C   UNL     1     -45.199 -52.681  12.611  1.00  0.00     0.198 C 
HETATM   16  C   UNL     1     -44.432 -52.038  13.787  1.00  0.00     0.299 C 
ENDBRANCH   9  11
ENDBRANCH   7   9
ENDBRANCH   1   7
BRANCH   4  17
HETATM   17  C   UNL     1     -41.736 -48.229  10.650  1.00  0.00     0.109 A 
HETATM   18  C   UNL     1     -42.935 -47.844  10.058  1.00  0.00     0.055 A 
HETATM   19  C   UNL     1     -43.098 -46.513   9.659  1.00  0.00    -0.057 A 
HETATM   20  C   UNL     1     -44.338 -46.060   8.946  1.00  0.00     0.048 C 
HETATM   21  C   UNL     1     -42.069 -45.607   9.907  1.00  0.00     0.031 A 
HETATM   22  C   UNL     1     -40.911 -46.061  10.531  1.00  0.00     0.007 A 
HETATM   23  C   UNL     1     -39.770 -45.144  10.832  1.00  0.00     0.068 C 
HETATM   24  N   UNL     1     -40.753 -47.349  10.903  1.00  0.00    -0.346 N 
ATOM     25  HN  UNL     1     -39.898 -47.650  11.370  1.00  0.00     0.167 HD
ENDBRANCH   4  17
TORSDOF 4
ENDMDL
MODEL 3
REMARK VINA RESULT:      -6.6      2.005      6.984
REMARK  4 active torsions:
REMARK  status: ('A' for Active; 'I' for Inactive)
REMARK    1  A    between atoms: C_2  and  N_3 
REMARK    2  A    between atoms: C_2  and  C_16 
REMARK       I    between atoms: N_3  and  C_4 
REMARK       I    between atoms: C_4  and  N_6 
REMARK    3  A    between atoms: N_6  and  C_7 
REMARK    4  A    between atoms: C_16  and  N_18 
ROOT
HETATM    1  N   UNL     1     -40.936 -51.461  12.435  1.00  0.00    -0.336 N 
HETATM    2  C   UNL     1     -41.415 -50.165  12.331  1.00  0.00     0.322 C 
HETATM    3  O   UNL     1     -41.825 -49.549  13.302  1.00  0.00    -0.247 OA
HETATM    4  N   UNL     1     -41.247 -49.689  11.052  1.00  0.00    -0.295 N 
HETATM    5  H   UNL     1     -41.094 -52.027  11.616  1.00  0.00     0.164 HD
HETATM    6  H   UNL     1     -40.586 -50.178  10.474  1.00  0.00     0.172 HD
ENDROOT
BRANCH   1   7
HETATM    7  C   UNL     1     -40.935 -52.185  13.712  1.00  0.00     0.115 C 
HETATM    8  C   UNL     1     -39.502 -52.697  13.969  1.00  0.00     0.034 C 
BRANCH   7   9
HETATM    9  C   UNL     1     -42.050 -53.319  13.861  1.00  0.00     0.241 C 
HETATM   10  C   UNL     1     -41.436 -54.469  14.704  1.00  0.00     0.045 C 
BRANCH   9  11
HETATM   11  N   UNL     1     -43.343 -52.918  14.523  1.00  0.00     0.098 N 
HETATM   12  C   UNL     1     -44.162 -54.089  14.958  1.00  0.00     0.299 C 
HETATM   13  C   UNL     1     -44.758 -54.883  13.785  1.00  0.00     0.198 C 
HETATM   14  O   UNL     1     -45.653 -54.056  13.035  1.00  0.00    -0.388 OA
HETATM   15  C   UNL     1     -44.997 -52.868  12.569  1.00  0.00     0.198 C 
HETATM   16  C   UNL     1     -44.270 -52.106  13.699  1.00  0.00     0.299 C 
ENDBRANCH   9  11
ENDBRANCH   7   9
ENDBRANCH   1   7
BRANCH   4  17
HETATM   17  C   UNL     1     -41.629 -48.400  10.655  1.00  0.00     0.109 A 
HETATM   18  C   UNL     1     -40.763 -47.345  10.927  1.00  0.00     0.055 A 
HETATM   19  C   UNL     1     -41.155 -46.043  10.599  1.00  0.00    -0.057 A 
HETATM   20  C   UNL     1     -40.295 -44.862  10.940  1.00  0.00     0.048 C 
HETATM   21  C   UNL     1     -42.383 -45.850   9.972  1.00  0.00     0.031 A 
HETATM   22  C   UNL     1     -43.182 -46.958   9.705  1.00  0.00     0.007 A 
HETATM   23  C   UNL     1     -44.509 -46.825   9.030  1.00  0.00     0.068 C 
HETATM   24  N   UNL     1     -42.805 -48.211  10.034  1.00  0.00    -0.346 N 
ATOM     25  HN  UNL     1     -43.406 -49.005   9.814  1.00  0.00     0.167 HD
ENDBRANCH   4  17
TORSDOF 4
ENDMDL
MODEL 4
REMARK VINA RESULT:      -6.5      3.141      5.417
REMARK  4 active torsions:
REMARK  status: ('A' for Active; 'I' for Inactive)
REMARK    1  A    between atoms: C_2  and  N_3 
REMARK    2  A    between atoms: C_2  and  C_16 
REMARK       I    between atoms: N_3  and  C_4 
REMARK       I    between atoms: C_4  and  N_6 
REMARK    3  A    between atoms: N_6  and  C_7 
REMARK    4  A    between atoms: C_16  and  N_18 
ROOT
HETATM    1  N   UNL     1     -43.055 -49.146  12.145  1.00  0.00    -0.336 N 
HETATM    2  C   UNL     1     -43.596 -49.930  13.152  1.00  0.00     0.322 C 
HETATM    3  O   UNL     1     -43.304 -49.764  14.326  1.00  0.00    -0.247 OA
HETATM    4  N   UNL     1     -44.542 -50.788  12.641  1.00  0.00    -0.295 N 
HETATM    5  H   UNL     1     -42.941 -49.625  11.265  1.00  0.00     0.164 HD
HETATM    6  H   UNL     1     -44.912 -50.559  11.736  1.00  0.00     0.172 HD
ENDROOT
BRANCH   1   7
HETATM    7  C   UNL     1     -42.066 -48.099  12.427  1.00  0.00     0.115 C 
HETATM    8  C   UNL     1     -42.575 -46.782  11.803  1.00  0.00     0.034 C 
BRANCH   7   9
HETATM    9  C   UNL     1     -40.560 -48.450  12.028  1.00  0.00     0.241 C 
HETATM   10  C   UNL     1     -39.941 -47.182  11.381  1.00  0.00     0.045 C 
BRANCH   9  11
HETATM   11  N   UNL     1     -39.643 -48.877  13.145  1.00  0.00     0.098 N 
HETATM   12  C   UNL     1     -38.214 -48.974  12.721  1.00  0.00     0.299 C 
HETATM   13  C   UNL     1     -37.943 -50.143  11.760  1.00  0.00     0.198 C 
HETATM   14  O   UNL     1     -38.228 -51.388  12.407  1.00  0.00    -0.388 OA
HETATM   15  C   UNL     1     -39.578 -51.424  12.892  1.00  0.00     0.198 C 
HETATM   16  C   UNL     1     -39.935 -50.195  13.757  1.00  0.00     0.299 C 
ENDBRANCH   9  11
ENDBRANCH   7   9
ENDBRANCH   1   7
BRANCH   4  17
HETATM   17  C   UNL     1     -45.264 -51.693  13.430  1.00  0.00     0.109 A 
HETATM   18  C   UNL     1     -46.135 -51.180  14.387  1.00  0.00     0.055 A 
HETATM   19  C   UNL     1     -46.815 -52.066  15.230  1.00  0.00    -0.057 A 
HETATM   20  C   UNL     1     -47.704 -51.566  16.329  1.00  0.00     0.048 C 
HETATM   21  C   UNL     1     -46.630 -53.435  15.054  1.00  0.00     0.031 A 
HETATM   22  C   UNL     1     -45.765 -53.873  14.055  1.00  0.00     0.007 A 
HETATM   23  C   UNL     1     -45.523 -55.327  13.807  1.00  0.00     0.068 C 
HETATM   24  N   UNL     1     -45.102 -53.014  13.252  1.00  0.00    -0.346 N 
ATOM     25  HN  UNL     1     -44.485 -53.365  12.520  1.00  0.00     0.167 HD
ENDBRANCH   4  17
TORSDOF 4
ENDMDL
MODEL 5
REMARK VINA RESULT:      -6.4      1.879      3.353
REMARK  4 active torsions:
REMARK  status: ('A' for Active; 'I' for Inactive)
REMARK    1  A    between atoms: C_2  and  N_3 
REMARK    2  A    between atoms: C_2  and  C_16 
REMARK       I    between atoms: N_3  and  C_4 
REMARK       I    between atoms: C_4  and  N_6 
REMARK    3  A    between atoms: N_6  and  C_7 
REMARK    4  A    between atoms: C_16  and  N_18 
ROOT
HETATM    1  N   UNL     1     -42.490 -48.923  11.197  1.00  0.00    -0.336 N 
HETATM    2  C   UNL     1     -42.658 -49.925  12.139  1.00  0.00     0.322 C 
HETATM    3  O   UNL     1     -43.442 -49.811  13.069  1.00  0.00    -0.247 OA
HETATM    4  N   UNL     1     -41.925 -51.037  11.799  1.00  0.00    -0.295 N 
HETATM    5  H   UNL     1     -41.558 -48.868  10.815  1.00  0.00     0.164 HD
HETATM    6  H   UNL     1     -41.620 -51.098  10.843  1.00  0.00     0.172 HD
ENDROOT
BRANCH   1   7
HETATM    7  C   UNL     1     -43.213 -47.648  11.286  1.00  0.00     0.115 C 
HETATM    8  C   UNL     1     -43.647 -47.247   9.860  1.00  0.00     0.034 C 
BRANCH   7   9
HETATM    9  C   UNL     1     -42.456 -46.481  12.071  1.00  0.00     0.241 C 
HETATM   10  C   UNL     1     -43.078 -46.397  13.491  1.00  0.00     0.045 C 
BRANCH   9  11
HETATM   11  N   UNL     1     -40.967 -46.631  12.241  1.00  0.00     0.098 N 
HETATM   12  C   UNL     1     -40.389 -45.649  13.207  1.00  0.00     0.299 C 
HETATM   13  C   UNL     1     -40.402 -44.203  12.685  1.00  0.00     0.198 C 
HETATM   14  O   UNL     1     -39.591 -44.097  11.510  1.00  0.00    -0.388 OA
HETATM   15  C   UNL     1     -40.024 -45.013  10.494  1.00  0.00     0.198 C 
HETATM   16  C   UNL     1     -40.153 -46.462  11.013  1.00  0.00     0.299 C 
ENDBRANCH   9  11
ENDBRANCH   7   9
ENDBRANCH   1   7
BRANCH   4  17
HETATM   17  C   UNL     1     -41.909 -52.212  12.562  1.00  0.00     0.109 A 
HETATM   18  C   UNL     1     -40.675 -52.732  12.942  1.00  0.00     0.055 A 
HETATM   19  C   UNL     1     -40.635 -53.939  13.647  1.00  0.00    -0.057 A 
HETATM   20  C   UNL     1     -39.331 -54.584  14.013  1.00  0.00     0.048 C 
HETATM   21  C   UNL     1     -41.836 -54.560  13.983  1.00  0.00     0.031 A 
HETATM   22  C   UNL     1     -43.031 -53.964  13.594  1.00  0.00     0.007 A 
HETATM   23  C   UNL     1     -44.356 -54.573  13.924  1.00  0.00     0.068 C 
HETATM   24  N   UNL     1     -43.065 -52.805  12.903  1.00  0.00    -0.346 N 
ATOM     25  HN  UNL     1     -43.957 -52.385  12.643  1.00  0.00     0.167 HD
ENDBRANCH   4  17
TORSDOF 4
ENDMDL
MODEL 6
REMARK VINA RESULT:      -6.4      3.327      4.591
REMARK  4 active torsions:
REMARK  status: ('A' for Active; 'I' for Inactive)
REMARK    1  A    between atoms: C_2  and  N_3 
REMARK    2  A    between atoms: C_2  and  C_16 
REMARK       I    between atoms: N_3  and  C_4 
REMARK       I    between atoms: C_4  and  N_6 
REMARK    3  A    between atoms: N_6  and  C_7 
REMARK    4  A    between atoms: C_16  and  N_18 
ROOT
HETATM    1  N   UNL     1     -40.966 -49.632  13.094  1.00  0.00    -0.336 N 
HETATM    2  C   UNL     1     -42.344 -49.688  12.961  1.00  0.00     0.322 C 
HETATM    3  O   UNL     1     -42.938 -49.035  12.117  1.00  0.00    -0.247 OA
HETATM    4  N   UNL     1     -42.874 -50.633  13.808  1.00  0.00    -0.295 N 
HETATM    5  H   UNL     1     -40.636 -49.767  14.038  1.00  0.00     0.164 HD
HETATM    6  H   UNL     1     -42.235 -51.318  14.172  1.00  0.00     0.172 HD
ENDROOT
BRANCH   1   7
HETATM    7  C   UNL     1     -40.143 -48.750  12.257  1.00  0.00     0.115 C 
HETATM    8  C   UNL     1     -38.760 -49.413  12.083  1.00  0.00     0.034 C 
BRANCH   7   9
HETATM    9  C   UNL     1     -40.062 -47.228  12.734  1.00  0.00     0.241 C 
HETATM   10  C   UNL     1     -38.843 -47.103  13.687  1.00  0.00     0.045 C 
BRANCH   9  11
HETATM   11  N   UNL     1     -39.899 -46.186  11.658  1.00  0.00     0.098 N 
HETATM   12  C   UNL     1     -39.933 -44.791  12.189  1.00  0.00     0.299 C 
HETATM   13  C   UNL     1     -41.320 -44.365  12.694  1.00  0.00     0.198 C 
HETATM   14  O   UNL     1     -42.262 -44.379  11.616  1.00  0.00    -0.388 OA
HETATM   15  C   UNL     1     -42.317 -45.670  10.990  1.00  0.00     0.198 C 
HETATM   16  C   UNL     1     -40.922 -46.196  10.585  1.00  0.00     0.299 C 
ENDBRANCH   9  11
ENDBRANCH   7   9
ENDBRANCH   1   7
BRANCH   4  17
HETATM   17  C   UNL     1     -44.244 -50.917  13.883  1.00  0.00     0.109 A 
HETATM   18  C   UNL     1     -44.846 -50.920  15.138  1.00  0.00     0.055 A 
HETATM   19  C   UNL     1     -46.197 -51.266  15.242  1.00  0.00    -0.057 A 
HETATM   20  C   UNL     1     -46.876 -51.361  16.576  1.00  0.00     0.048 C 
HETATM   21  C   UNL     1     -46.907 -51.557  14.080  1.00  0.00     0.031 A 
HETATM   22  C   UNL     1     -46.243 -51.504  12.857  1.00  0.00     0.007 A 
HETATM   23  C   UNL     1     -46.943 -51.798  11.570  1.00  0.00     0.068 C 
HETATM   24  N   UNL     1     -44.936 -51.180  12.763  1.00  0.00    -0.346 N 
ATOM     25  HN  UNL     1     -44.480 -51.137  11.852  1.00  0.00     0.167 HD
ENDBRANCH   4  17
TORSDOF 4
ENDMDL
MODEL 7
REMARK VINA RESULT:      -6.2      2.429      3.495
REMARK  4 active torsions:
REMARK  status: ('A' for Active; 'I' for Inactive)
REMARK    1  A    between atoms: C_2  and  N_3 
REMARK    2  A    between atoms: C_2  and  C_16 
REMARK       I    between atoms: N_3  and  C_4 
REMARK       I    between atoms: C_4  and  N_6 
REMARK    3  A    between atoms: N_6  and  C_7 
REMARK    4  A    between atoms: C_16  and  N_18 
ROOT
HETATM    1  N   UNL     1     -40.005 -50.800  11.270  1.00  0.00    -0.336 N 
HETATM    2  C   UNL     1     -40.980 -51.147  12.192  1.00  0.00     0.322 C 
HETATM    3  O   UNL     1     -41.165 -50.498  13.209  1.00  0.00    -0.247 OA
HETATM    4  N   UNL     1     -41.726 -52.206  11.731  1.00  0.00    -0.295 N 
HETATM    5  H   UNL     1     -39.599 -51.585  10.783  1.00  0.00     0.164 HD
HETATM    6  H   UNL     1     -41.679 -52.393  10.745  1.00  0.00     0.172 HD
ENDROOT
BRANCH   1   7
HETATM    7  C   UNL     1     -39.109 -49.657  11.485  1.00  0.00     0.115 C 
HETATM    8  C   UNL     1     -37.749 -50.203  11.971  1.00  0.00     0.034 C 
BRANCH   7   9
HETATM    9  C   UNL     1     -39.691 -48.490  12.406  1.00  0.00     0.241 C 
HETATM   10  C   UNL     1     -38.540 -48.009  13.331  1.00  0.00     0.045 C 
BRANCH   9  11
HETATM   11  N   UNL     1     -40.237 -47.276  11.701  1.00  0.00     0.098 N 
HETATM   12  C   UNL     1     -40.866 -46.294  12.635  1.00  0.00     0.299 C 
HETATM   13  C   UNL     1     -42.181 -46.797  13.250  1.00  0.00     0.198 C 
HETATM   14  O   UNL     1     -43.154 -47.014  12.223  1.00  0.00    -0.388 OA
HETATM   15  C   UNL     1     -42.668 -47.931  11.232  1.00  0.00     0.198 C 
HETATM   16  C   UNL     1     -41.281 -47.533  10.681  1.00  0.00     0.299 C 
ENDBRANCH   9  11
ENDBRANCH   7   9
ENDBRANCH   1   7
BRANCH   4  17
HETATM   17  C   UNL     1     -42.792 -52.766  12.448  1.00  0.00     0.109 A 
HETATM   18  C   UNL     1     -42.503 -53.745  13.394  1.00  0.00     0.055 A 
HETATM   19  C   UNL     1     -43.558 -54.365  14.073  1.00  0.00    -0.057 A 
HETATM   20  C   UNL     1     -43.310 -55.480  15.045  1.00  0.00     0.048 C 
HETATM   21  C   UNL     1     -44.861 -53.950  13.810  1.00  0.00     0.031 A 
HETATM   22  C   UNL     1     -45.068 -52.943  12.871  1.00  0.00     0.007 A 
HETATM   23  C   UNL     1     -46.439 -52.446  12.543  1.00  0.00     0.068 C 
HETATM   24  N   UNL     1     -44.049 -52.357  12.210  1.00  0.00    -0.346 N 
ATOM     25  HN  UNL     1     -44.230 -51.613  11.537  1.00  0.00     0.167 HD
ENDBRANCH   4  17
TORSDOF 4
ENDMDL
MODEL 8
REMARK VINA RESULT:      -6.2      4.129      6.942
REMARK  4 active torsions:
REMARK  status: ('A' for Active; 'I' for Inactive)
REMARK    1  A    between atoms: C_2  and  N_3 
REMARK    2  A    between atoms: C_2  and  C_16 
REMARK       I    between atoms: N_3  and  C_4 
REMARK       I    between atoms: C_4  and  N_6 
REMARK    3  A    between atoms: N_6  and  C_7 
REMARK    4  A    between atoms: C_16  and  N_18 
ROOT
HETATM    1  N   UNL     1     -44.161 -51.048  12.876  1.00  0.00    -0.336 N 
HETATM    2  C   UNL     1     -42.851 -51.334  13.228  1.00  0.00     0.322 C 
HETATM    3  O   UNL     1     -42.531 -52.415  13.698  1.00  0.00    -0.247 OA
HETATM    4  N   UNL     1     -42.018 -50.301  12.870  1.00  0.00    -0.295 N 
HETATM    5  H   UNL     1     -44.415 -50.078  12.983  1.00  0.00     0.164 HD
HETATM    6  H   UNL     1     -42.373 -49.653  12.189  1.00  0.00     0.172 HD
ENDROOT
BRANCH   1   7
HETATM    7  C   UNL     1     -45.247 -52.013  13.088  1.00  0.00     0.115 C 
HETATM    8  C   UNL     1     -46.438 -51.592  12.201  1.00  0.00     0.034 C 
BRANCH   7   9
HETATM    9  C   UNL     1     -45.650 -52.271  14.612  1.00  0.00     0.241 C 
HETATM   10  C   UNL     1     -46.837 -51.328  14.946  1.00  0.00     0.045 C 
BRANCH   9  11
HETATM   11  N   UNL     1     -46.072 -53.671  14.976  1.00  0.00     0.098 N 
HETATM   12  C   UNL     1     -45.830 -53.997  16.413  1.00  0.00     0.299 C 
HETATM   13  C   UNL     1     -44.340 -54.123  16.766  1.00  0.00     0.198 C 
HETATM   14  O   UNL     1     -43.750 -55.201  16.031  1.00  0.00    -0.388 OA
HETATM   15  C   UNL     1     -43.930 -55.027  14.618  1.00  0.00     0.198 C 
HETATM   16  C   UNL     1     -45.402 -54.765  14.233  1.00  0.00     0.299 C 
ENDBRANCH   9  11
ENDBRANCH   7   9
ENDBRANCH   1   7
BRANCH   4  17
HETATM   17  C   UNL     1     -40.635 -50.316  13.092  1.00  0.00     0.109 A 
HETATM   18  C   UNL     1     -39.794 -50.034  12.019  1.00  0.00     0.055 A 
HETATM   19  C   UNL     1     -38.410 -50.110  12.202  1.00  0.00    -0.057 A 
HETATM   20  C   UNL     1     -37.460 -49.892  11.062  1.00  0.00     0.048 C 
HETATM   21  C   UNL     1     -37.917 -50.424  13.467  1.00  0.00     0.031 A 
HETATM   22  C   UNL     1     -38.820 -50.663  14.498  1.00  0.00     0.007 A 
HETATM   23  C   UNL     1     -38.361 -51.000  15.881  1.00  0.00     0.068 C 
HETATM   24  N   UNL     1     -40.155 -50.601  14.313  1.00  0.00    -0.346 N 
ATOM     25  HN  UNL     1     -40.792 -50.769  15.092  1.00  0.00     0.167 HD
ENDBRANCH   4  17
TORSDOF 4
ENDMDL
MODEL 9
REMARK VINA RESULT:      -6.0      3.560      5.438
REMARK  4 active torsions:
REMARK  status: ('A' for Active; 'I' for Inactive)
REMARK    1  A    between atoms: C_2  and  N_3 
REMARK    2  A    between atoms: C_2  and  C_16 
REMARK       I    between atoms: N_3  and  C_4 
REMARK       I    between atoms: C_4  and  N_6 
REMARK    3  A    between atoms: N_6  and  C_7 
REMARK    4  A    between atoms: C_16  and  N_18 
ROOT
HETATM    1  N   UNL     1     -40.859 -49.831  13.126  1.00  0.00    -0.336 N 
HETATM    2  C   UNL     1     -42.232 -49.893  12.948  1.00  0.00     0.322 C 
HETATM    3  O   UNL     1     -42.782 -49.380  11.986  1.00  0.00    -0.247 OA
HETATM    4  N   UNL     1     -42.809 -50.681  13.917  1.00  0.00    -0.295 N 
HETATM    5  H   UNL     1     -40.568 -49.812  14.091  1.00  0.00     0.164 HD
HETATM    6  H   UNL     1     -42.197 -51.304  14.412  1.00  0.00     0.172 HD
ENDROOT
BRANCH   1   7
HETATM    7  C   UNL     1     -39.991 -49.106  12.190  1.00  0.00     0.115 C 
HETATM    8  C   UNL     1     -38.612 -49.801  12.184  1.00  0.00     0.034 C 
BRANCH   7   9
HETATM    9  C   UNL     1     -39.905 -47.527  12.412  1.00  0.00     0.241 C 
HETATM   10  C   UNL     1     -40.440 -46.845  11.124  1.00  0.00     0.045 C 
BRANCH   9  11
HETATM   11  N   UNL     1     -40.679 -46.961  13.574  1.00  0.00     0.098 N 
HETATM   12  C   UNL     1     -40.918 -45.492  13.455  1.00  0.00     0.299 C 
HETATM   13  C   UNL     1     -39.641 -44.653  13.618  1.00  0.00     0.198 C 
HETATM   14  O   UNL     1     -39.093 -44.840  14.928  1.00  0.00    -0.388 OA
HETATM   15  C   UNL     1     -38.834 -46.227  15.190  1.00  0.00     0.198 C 
HETATM   16  C   UNL     1     -40.058 -47.126  14.910  1.00  0.00     0.299 C 
ENDBRANCH   9  11
ENDBRANCH   7   9
ENDBRANCH   1   7
BRANCH   4  17
HETATM   17  C   UNL     1     -44.186 -50.934  13.982  1.00  0.00     0.109 A 
HETATM   18  C   UNL     1     -44.797 -50.922  15.233  1.00  0.00     0.055 A 
HETATM   19  C   UNL     1     -46.156 -51.239  15.328  1.00  0.00    -0.057 A 
HETATM   20  C   UNL     1     -46.846 -51.316  16.657  1.00  0.00     0.048 C 
HETATM   21  C   UNL     1     -46.863 -51.515  14.160  1.00  0.00     0.031 A 
HETATM   22  C   UNL     1     -46.190 -51.479  12.943  1.00  0.00     0.007 A 
HETATM   23  C   UNL     1     -46.888 -51.759  11.651  1.00  0.00     0.068 C 
HETATM   24  N   UNL     1     -44.876 -51.184  12.857  1.00  0.00    -0.346 N 
ATOM     25  HN  UNL     1     -44.412 -51.153  11.950  1.00  0.00     0.167 HD
ENDBRANCH   4  17
TORSDOF 4
ENDMDL
