MODEL 1
REMARK VINA RESULT:      -5.2      0.000      0.000
REMARK  7 active torsions:
REMARK  status: ('A' for Active; 'I' for Inactive)
REMARK    1  A    between atoms: O_2  and  C_3 
REMARK    2  A    between atoms: C_3  and  C_4 
REMARK    3  A    between atoms: C_4  and  O_5 
REMARK    4  A    between atoms: O_5  and  C_6 
REMARK    5  A    between atoms: C_6  and  C_7 
REMARK       I    between atoms: C_7  and  N_9 
REMARK    6  A    between atoms: N_9  and  C_10 
REMARK    7  A    between atoms: C_16  and  O_17 
ROOT
HETATM    1  C   UNL     1     -42.292 -52.443  12.915  1.00  0.00     0.245 C 
HETATM    2  O   UNL     1     -41.994 -52.971  13.985  1.00  0.00    -0.271 OA
HETATM    3  N   UNL     1     -43.573 -52.138  12.490  1.00  0.00    -0.322 N 
HETATM    4  H   UNL     1     -43.701 -51.861  11.522  1.00  0.00     0.169 HD
ENDROOT
BRANCH   3   5
HETATM    5  C   UNL     1     -44.758 -52.269  13.244  1.00  0.00     0.086 A 
HETATM    6  C   UNL     1     -45.335 -51.233  13.970  1.00  0.00     0.035 A 
HETATM    7  C   UNL     1     -46.500 -51.465  14.701  1.00  0.00     0.019 A 
HETATM    8  C   UNL     1     -47.055 -52.736  14.678  1.00  0.00     0.090 A 
HETATM    9  N   UNL     1     -46.545 -53.767  13.968  1.00  0.00    -0.345 N 
HETATM   10  C   UNL     1     -45.426 -53.493  13.273  1.00  0.00     0.167 A 
ATOM     11  HN  UNL     1     -46.979 -54.691  13.959  1.00  0.00     0.167 HD
BRANCH  10  12
HETATM   12  O   UNL     1     -44.948 -54.568  12.589  1.00  0.00    -0.344 OA
HETATM   13  H   UNL     1     -44.412 -54.099  11.923  1.00  0.00     0.219 HD
ENDBRANCH  10  12
ENDBRANCH   3   5
BRANCH   1  14
HETATM   14  C   UNL     1     -41.220 -52.113  11.880  1.00  0.00     0.270 C 
BRANCH  14  15
HETATM   15  O   UNL     1     -39.933 -52.250  12.468  1.00  0.00    -0.380 OA
BRANCH  15  16
HETATM   16  C   UNL     1     -39.371 -50.988  12.823  1.00  0.00     0.194 C 
BRANCH  16  17
HETATM   17  C   UNL     1     -37.900 -51.195  13.159  1.00  0.00     0.193 C 
BRANCH  17  18
HETATM   18  O   UNL     1     -37.127 -51.237  11.962  1.00  0.00    -0.394 OA
HETATM   19  C   UNL     1     -37.349 -50.078  11.170  1.00  0.00     0.201 C 
ENDBRANCH  17  18
ENDBRANCH  16  17
ENDBRANCH  15  16
ENDBRANCH  14  15
ENDBRANCH   1  14
TORSDOF 7
ENDMDL
MODEL 2
REMARK VINA RESULT:      -5.2      5.901      6.721
REMARK  7 active torsions:
REMARK  status: ('A' for Active; 'I' for Inactive)
REMARK    1  A    between atoms: O_2  and  C_3 
REMARK    2  A    between atoms: C_3  and  C_4 
REMARK    3  A    between atoms: C_4  and  O_5 
REMARK    4  A    between atoms: O_5  and  C_6 
REMARK    5  A    between atoms: C_6  and  C_7 
REMARK       I    between atoms: C_7  and  N_9 
REMARK    6  A    between atoms: N_9  and  C_10 
REMARK    7  A    between atoms: C_16  and  O_17 
ROOT
HETATM    1  C   UNL     1     -42.216 -45.742  10.042  1.00  0.00     0.245 C 
HETATM    2  O   UNL     1     -43.003 -44.798  10.067  1.00  0.00    -0.271 OA
HETATM    3  N   UNL     1     -42.519 -47.041   9.675  1.00  0.00    -0.322 N 
HETATM    4  H   UNL     1     -41.828 -47.762   9.857  1.00  0.00     0.169 HD
ENDROOT
BRANCH   3   5
HETATM    5  C   UNL     1     -43.748 -47.498   9.155  1.00  0.00     0.086 A 
HETATM    6  C   UNL     1     -44.930 -47.553   9.887  1.00  0.00     0.035 A 
HETATM    7  C   UNL     1     -46.092 -48.039   9.288  1.00  0.00     0.019 A 
HETATM    8  C   UNL     1     -46.035 -48.453   7.966  1.00  0.00     0.090 A 
HETATM    9  N   UNL     1     -44.917 -48.396   7.207  1.00  0.00    -0.345 N 
HETATM   10  C   UNL     1     -43.823 -47.913   7.826  1.00  0.00     0.167 A 
ATOM     11  HN  UNL     1     -44.903 -48.697   6.233  1.00  0.00     0.167 HD
BRANCH  10  12
HETATM   12  O   UNL     1     -42.725 -47.890   7.021  1.00  0.00    -0.344 OA
HETATM   13  H   UNL     1     -42.923 -47.079   6.517  1.00  0.00     0.219 HD
ENDBRANCH  10  12
ENDBRANCH   3   5
BRANCH   1  14
HETATM   14  C   UNL     1     -40.769 -45.568  10.496  1.00  0.00     0.270 C 
BRANCH  14  15
HETATM   15  O   UNL     1     -40.706 -45.618  11.915  1.00  0.00    -0.380 OA
BRANCH  15  16
HETATM   16  C   UNL     1     -39.854 -46.664  12.376  1.00  0.00     0.194 C 
BRANCH  16  17
HETATM   17  C   UNL     1     -40.716 -47.876  12.707  1.00  0.00     0.193 C 
BRANCH  17  18
HETATM   18  O   UNL     1     -40.788 -48.746  11.581  1.00  0.00    -0.394 OA
HETATM   19  C   UNL     1     -39.706 -49.668  11.577  1.00  0.00     0.201 C 
ENDBRANCH  17  18
ENDBRANCH  16  17
ENDBRANCH  15  16
ENDBRANCH  14  15
ENDBRANCH   1  14
TORSDOF 7
ENDMDL
MODEL 3
REMARK VINA RESULT:      -5.1      5.347      7.848
REMARK  7 active torsions:
REMARK  status: ('A' for Active; 'I' for Inactive)
REMARK    1  A    between atoms: O_2  and  C_3 
REMARK    2  A    between atoms: C_3  and  C_4 
REMARK    3  A    between atoms: C_4  and  O_5 
REMARK    4  A    between atoms: O_5  and  C_6 
REMARK    5  A    between atoms: C_6  and  C_7 
REMARK       I    between atoms: C_7  and  N_9 
REMARK    6  A    between atoms: N_9  and  C_10 
REMARK    7  A    between atoms: C_16  and  O_17 
ROOT
HETATM    1  C   UNL     1     -40.964 -46.447  10.927  1.00  0.00     0.245 C 
HETATM    2  O   UNL     1     -39.957 -45.920  10.457  1.00  0.00    -0.271 OA
HETATM    3  N   UNL     1     -41.007 -47.651  11.607  1.00  0.00    -0.322 N 
HETATM    4  H   UNL     1     -41.916 -48.060  11.796  1.00  0.00     0.169 HD
ENDROOT
BRANCH   3   5
HETATM    5  C   UNL     1     -39.899 -48.437  11.987  1.00  0.00     0.086 A 
HETATM    6  C   UNL     1     -39.033 -48.109  13.024  1.00  0.00     0.035 A 
HETATM    7  C   UNL     1     -37.952 -48.943  13.312  1.00  0.00     0.019 A 
HETATM    8  C   UNL     1     -37.775 -50.088  12.550  1.00  0.00     0.090 A 
HETATM    9  N   UNL     1     -38.604 -50.461  11.549  1.00  0.00    -0.345 N 
HETATM   10  C   UNL     1     -39.636 -49.629  11.313  1.00  0.00     0.167 A 
ATOM     11  HN  UNL     1     -38.457 -51.314  11.009  1.00  0.00     0.167 HD
BRANCH  10  12
HETATM   12  O   UNL     1     -40.429 -50.045  10.287  1.00  0.00    -0.344 OA
HETATM   13  H   UNL     1     -39.848 -50.734   9.915  1.00  0.00     0.219 HD
ENDBRANCH  10  12
ENDBRANCH   3   5
BRANCH   1  14
HETATM   14  C   UNL     1     -42.340 -45.813  10.739  1.00  0.00     0.270 C 
BRANCH  14  15
HETATM   15  O   UNL     1     -42.523 -45.473   9.371  1.00  0.00    -0.380 OA
BRANCH  15  16
HETATM   16  C   UNL     1     -43.772 -45.943   8.866  1.00  0.00     0.194 C 
BRANCH  16  17
HETATM   17  C   UNL     1     -43.727 -47.465   8.813  1.00  0.00     0.193 C 
BRANCH  17  18
HETATM   18  O   UNL     1     -44.960 -47.972   8.306  1.00  0.00    -0.394 OA
HETATM   19  C   UNL     1     -46.038 -47.655   9.177  1.00  0.00     0.201 C 
ENDBRANCH  17  18
ENDBRANCH  16  17
ENDBRANCH  15  16
ENDBRANCH  14  15
ENDBRANCH   1  14
TORSDOF 7
ENDMDL
MODEL 4
REMARK VINA RESULT:      -5.0      2.351      6.260
REMARK  7 active torsions:
REMARK  status: ('A' for Active; 'I' for Inactive)
REMARK    1  A    between atoms: O_2  and  C_3 
REMARK    2  A    between atoms: C_3  and  C_4 
REMARK    3  A    between atoms: C_4  and  O_5 
REMARK    4  A    between atoms: O_5  and  C_6 
REMARK    5  A    between atoms: C_6  and  C_7 
REMARK       I    between atoms: C_7  and  N_9 
REMARK    6  A    between atoms: N_9  and  C_10 
REMARK    7  A    between atoms: C_16  and  O_17 
ROOT
HETATM    1  C   UNL     1     -44.253 -53.733  12.952  1.00  0.00     0.245 C 
HETATM    2  O   UNL     1     -45.005 -53.288  12.085  1.00  0.00    -0.271 OA
HETATM    3  N   UNL     1     -42.995 -53.249  13.260  1.00  0.00    -0.322 N 
HETATM    4  H   UNL     1     -42.407 -53.804  13.874  1.00  0.00     0.169 HD
ENDROOT
BRANCH   3   5
HETATM    5  C   UNL     1     -42.388 -52.094  12.723  1.00  0.00     0.086 A 
HETATM    6  C   UNL     1     -42.820 -50.798  12.981  1.00  0.00     0.035 A 
HETATM    7  C   UNL     1     -42.165 -49.719  12.387  1.00  0.00     0.019 A 
HETATM    8  C   UNL     1     -41.089 -49.975  11.551  1.00  0.00     0.090 A 
HETATM    9  N   UNL     1     -40.617 -51.215  11.289  1.00  0.00    -0.345 N 
HETATM   10  C   UNL     1     -41.276 -52.222  11.891  1.00  0.00     0.167 A 
ATOM     11  HN  UNL     1     -39.816 -51.376  10.678  1.00  0.00     0.167 HD
BRANCH  10  12
HETATM   12  O   UNL     1     -40.769 -53.448  11.582  1.00  0.00    -0.344 OA
HETATM   13  H   UNL     1     -39.821 -53.255  11.706  1.00  0.00     0.219 HD
ENDBRANCH  10  12
ENDBRANCH   3   5
BRANCH   1  14
HETATM   14  C   UNL     1     -44.641 -54.963  13.768  1.00  0.00     0.270 C 
BRANCH  14  15
HETATM   15  O   UNL     1     -44.925 -54.576  15.106  1.00  0.00    -0.380 OA
BRANCH  15  16
HETATM   16  C   UNL     1     -46.256 -54.084  15.248  1.00  0.00     0.194 C 
BRANCH  16  17
HETATM   17  C   UNL     1     -46.253 -52.988  16.306  1.00  0.00     0.193 C 
BRANCH  17  18
HETATM   18  O   UNL     1     -47.096 -51.913  15.897  1.00  0.00    -0.394 OA
HETATM   19  C   UNL     1     -46.746 -51.457  14.596  1.00  0.00     0.201 C 
ENDBRANCH  17  18
ENDBRANCH  16  17
ENDBRANCH  15  16
ENDBRANCH  14  15
ENDBRANCH   1  14
TORSDOF 7
ENDMDL
MODEL 5
REMARK VINA RESULT:      -4.8      2.050      2.689
REMARK  7 active torsions:
REMARK  status: ('A' for Active; 'I' for Inactive)
REMARK    1  A    between atoms: O_2  and  C_3 
REMARK    2  A    between atoms: C_3  and  C_4 
REMARK    3  A    between atoms: C_4  and  O_5 
REMARK    4  A    between atoms: O_5  and  C_6 
REMARK    5  A    between atoms: C_6  and  C_7 
REMARK       I    between atoms: C_7  and  N_9 
REMARK    6  A    between atoms: N_9  and  C_10 
REMARK    7  A    between atoms: C_16  and  O_17 
ROOT
HETATM    1  C   UNL     1     -43.024 -54.458  14.898  1.00  0.00     0.245 C 
HETATM    2  O   UNL     1     -43.873 -55.347  14.941  1.00  0.00    -0.271 OA
HETATM    3  N   UNL     1     -43.207 -53.185  14.387  1.00  0.00    -0.322 N 
HETATM    4  H   UNL     1     -42.387 -52.602  14.254  1.00  0.00     0.169 HD
ENDROOT
BRANCH   3   5
HETATM    5  C   UNL     1     -44.423 -52.635  13.930  1.00  0.00     0.086 A 
HETATM    6  C   UNL     1     -45.299 -51.912  14.731  1.00  0.00     0.035 A 
HETATM    7  C   UNL     1     -46.488 -51.423  14.190  1.00  0.00     0.019 A 
HETATM    8  C   UNL     1     -46.761 -51.672  12.854  1.00  0.00     0.090 A 
HETATM    9  N   UNL     1     -45.929 -52.348  12.029  1.00  0.00    -0.345 N 
HETATM   10  C   UNL     1     -44.792 -52.793  12.594  1.00  0.00     0.167 A 
ATOM     11  HN  UNL     1     -46.149 -52.509  11.046  1.00  0.00     0.167 HD
BRANCH  10  12
HETATM   12  O   UNL     1     -43.999 -53.477  11.724  1.00  0.00    -0.344 OA
HETATM   13  H   UNL     1     -43.205 -52.913  11.766  1.00  0.00     0.219 HD
ENDBRANCH  10  12
ENDBRANCH   3   5
BRANCH   1  14
HETATM   14  C   UNL     1     -41.597 -54.714  15.376  1.00  0.00     0.270 C 
BRANCH  14  15
HETATM   15  O   UNL     1     -40.694 -54.541  14.293  1.00  0.00    -0.380 OA
BRANCH  15  16
HETATM   16  C   UNL     1     -39.637 -53.639  14.617  1.00  0.00     0.194 C 
BRANCH  16  17
HETATM   17  C   UNL     1     -39.724 -52.439  13.682  1.00  0.00     0.193 C 
BRANCH  17  18
HETATM   18  O   UNL     1     -40.683 -52.688  12.657  1.00  0.00    -0.394 OA
HETATM   19  C   UNL     1     -41.046 -51.483  11.995  1.00  0.00     0.201 C 
ENDBRANCH  17  18
ENDBRANCH  16  17
ENDBRANCH  15  16
ENDBRANCH  14  15
ENDBRANCH   1  14
TORSDOF 7
ENDMDL
MODEL 6
REMARK VINA RESULT:      -4.8      2.655      6.122
REMARK  7 active torsions:
REMARK  status: ('A' for Active; 'I' for Inactive)
REMARK    1  A    between atoms: O_2  and  C_3 
REMARK    2  A    between atoms: C_3  and  C_4 
REMARK    3  A    between atoms: C_4  and  O_5 
REMARK    4  A    between atoms: O_5  and  C_6 
REMARK    5  A    between atoms: C_6  and  C_7 
REMARK       I    between atoms: C_7  and  N_9 
REMARK    6  A    between atoms: N_9  and  C_10 
REMARK    7  A    between atoms: C_16  and  O_17 
ROOT
HETATM    1  C   UNL     1     -45.089 -53.229  12.915  1.00  0.00     0.245 C 
HETATM    2  O   UNL     1     -45.200 -54.429  12.671  1.00  0.00    -0.271 OA
HETATM    3  N   UNL     1     -43.951 -52.598  13.384  1.00  0.00    -0.322 N 
HETATM    4  H   UNL     1     -44.035 -51.639  13.706  1.00  0.00     0.169 HD
ENDROOT
BRANCH   3   5
HETATM    5  C   UNL     1     -42.681 -53.187  13.560  1.00  0.00     0.086 A 
HETATM    6  C   UNL     1     -42.292 -53.868  14.708  1.00  0.00     0.035 A 
HETATM    7  C   UNL     1     -41.005 -54.400  14.795  1.00  0.00     0.019 A 
HETATM    8  C   UNL     1     -40.145 -54.236  13.719  1.00  0.00     0.090 A 
HETATM    9  N   UNL     1     -40.486 -53.604  12.573  1.00  0.00    -0.345 N 
HETATM   10  C   UNL     1     -41.739 -53.115  12.534  1.00  0.00     0.167 A 
ATOM     11  HN  UNL     1     -39.838 -53.506  11.792  1.00  0.00     0.167 HD
BRANCH  10  12
HETATM   12  O   UNL     1     -42.024 -52.478  11.364  1.00  0.00    -0.344 OA
HETATM   13  H   UNL     1     -41.250 -51.885  11.322  1.00  0.00     0.219 HD
ENDBRANCH  10  12
ENDBRANCH   3   5
BRANCH   1  14
HETATM   14  C   UNL     1     -46.282 -52.287  12.770  1.00  0.00     0.270 C 
BRANCH  14  15
HETATM   15  O   UNL     1     -46.161 -51.220  13.701  1.00  0.00    -0.380 OA
BRANCH  15  16
HETATM   16  C   UNL     1     -46.904 -51.465  14.894  1.00  0.00     0.194 C 
BRANCH  16  17
HETATM   17  C   UNL     1     -46.012 -51.155  16.089  1.00  0.00     0.193 C 
BRANCH  17  18
HETATM   18  O   UNL     1     -45.073 -52.211  16.283  1.00  0.00    -0.394 OA
HETATM   19  C   UNL     1     -45.736 -53.439  16.556  1.00  0.00     0.201 C 
ENDBRANCH  17  18
ENDBRANCH  16  17
ENDBRANCH  15  16
ENDBRANCH  14  15
ENDBRANCH   1  14
TORSDOF 7
ENDMDL
MODEL 7
REMARK VINA RESULT:      -4.8      3.073      6.166
REMARK  7 active torsions:
REMARK  status: ('A' for Active; 'I' for Inactive)
REMARK    1  A    between atoms: O_2  and  C_3 
REMARK    2  A    between atoms: C_3  and  C_4 
REMARK    3  A    between atoms: C_4  and  O_5 
REMARK    4  A    between atoms: O_5  and  C_6 
REMARK    5  A    between atoms: C_6  and  C_7 
REMARK       I    between atoms: C_7  and  N_9 
REMARK    6  A    between atoms: N_9  and  C_10 
REMARK    7  A    between atoms: C_16  and  O_17 
ROOT
HETATM    1  C   UNL     1     -41.503 -51.568  12.988  1.00  0.00     0.245 C 
HETATM    2  O   UNL     1     -40.784 -51.098  13.869  1.00  0.00    -0.271 OA
HETATM    3  N   UNL     1     -42.178 -50.846  12.020  1.00  0.00    -0.322 N 
HETATM    4  H   UNL     1     -42.870 -51.331  11.458  1.00  0.00     0.169 HD
ENDROOT
BRANCH   3   5
HETATM    5  C   UNL     1     -42.077 -49.457  11.791  1.00  0.00     0.086 A 
HETATM    6  C   UNL     1     -42.835 -48.502  12.460  1.00  0.00     0.035 A 
HETATM    7  C   UNL     1     -42.676 -47.152  12.150  1.00  0.00     0.019 A 
HETATM    8  C   UNL     1     -41.755 -46.798  11.176  1.00  0.00     0.090 A 
HETATM    9  N   UNL     1     -40.978 -47.687  10.516  1.00  0.00    -0.345 N 
HETATM   10  C   UNL     1     -41.162 -48.977  10.855  1.00  0.00     0.167 A 
ATOM     11  HN  UNL     1     -40.300 -47.401   9.811  1.00  0.00     0.167 HD
BRANCH  10  12
HETATM   12  O   UNL     1     -40.365 -49.829  10.152  1.00  0.00    -0.344 OA
HETATM   13  H   UNL     1     -40.405 -50.600  10.748  1.00  0.00     0.219 HD
ENDBRANCH  10  12
ENDBRANCH   3   5
BRANCH   1  14
HETATM   14  C   UNL     1     -41.777 -53.068  12.919  1.00  0.00     0.270 C 
BRANCH  14  15
HETATM   15  O   UNL     1     -42.973 -53.366  13.627  1.00  0.00    -0.380 OA
BRANCH  15  16
HETATM   16  C   UNL     1     -43.957 -53.967  12.787  1.00  0.00     0.194 C 
BRANCH  16  17
HETATM   17  C   UNL     1     -45.324 -53.424  13.182  1.00  0.00     0.193 C 
BRANCH  17  18
HETATM   18  O   UNL     1     -45.983 -52.883  12.039  1.00  0.00    -0.394 OA
HETATM   19  C   UNL     1     -46.656 -51.673  12.364  1.00  0.00     0.201 C 
ENDBRANCH  17  18
ENDBRANCH  16  17
ENDBRANCH  15  16
ENDBRANCH  14  15
ENDBRANCH   1  14
TORSDOF 7
ENDMDL
MODEL 8
REMARK VINA RESULT:      -4.7      2.478      6.705
REMARK  7 active torsions:
REMARK  status: ('A' for Active; 'I' for Inactive)
REMARK    1  A    between atoms: O_2  and  C_3 
REMARK    2  A    between atoms: C_3  and  C_4 
REMARK    3  A    between atoms: C_4  and  O_5 
REMARK    4  A    between atoms: O_5  and  C_6 
REMARK    5  A    between atoms: C_6  and  C_7 
REMARK       I    between atoms: C_7  and  N_9 
REMARK    6  A    between atoms: N_9  and  C_10 
REMARK    7  A    between atoms: C_16  and  O_17 
ROOT
HETATM    1  C   UNL     1     -40.664 -53.507  13.620  1.00  0.00     0.245 C 
HETATM    2  O   UNL     1     -39.750 -54.257  13.280  1.00  0.00    -0.271 OA
HETATM    3  N   UNL     1     -40.647 -52.126  13.554  1.00  0.00    -0.322 N 
HETATM    4  H   UNL     1     -41.392 -51.616  14.019  1.00  0.00     0.169 HD
ENDROOT
BRANCH   3   5
HETATM    5  C   UNL     1     -39.633 -51.328  12.983  1.00  0.00     0.086 A 
HETATM    6  C   UNL     1     -38.412 -51.068  13.595  1.00  0.00     0.035 A 
HETATM    7  C   UNL     1     -37.479 -50.250  12.958  1.00  0.00     0.019 A 
HETATM    8  C   UNL     1     -37.800 -49.718  11.718  1.00  0.00     0.090 A 
HETATM    9  N   UNL     1     -38.963 -49.962  11.073  1.00  0.00    -0.345 N 
HETATM   10  C   UNL     1     -39.827 -50.763  11.723  1.00  0.00     0.167 A 
ATOM     11  HN  UNL     1     -39.170 -49.567  10.155  1.00  0.00     0.167 HD
BRANCH  10  12
HETATM   12  O   UNL     1     -40.985 -50.963  11.035  1.00  0.00    -0.344 OA
HETATM   13  H   UNL     1     -41.025 -51.936  11.086  1.00  0.00     0.219 HD
ENDBRANCH  10  12
ENDBRANCH   3   5
BRANCH   1  14
HETATM   14  C   UNL     1     -41.946 -54.064  14.233  1.00  0.00     0.270 C 
BRANCH  14  15
HETATM   15  O   UNL     1     -43.053 -53.271  13.824  1.00  0.00    -0.380 OA
BRANCH  15  16
HETATM   16  C   UNL     1     -43.867 -53.942  12.865  1.00  0.00     0.194 C 
BRANCH  16  17
HETATM   17  C   UNL     1     -45.327 -53.648  13.183  1.00  0.00     0.193 C 
BRANCH  17  18
HETATM   18  O   UNL     1     -45.916 -52.898  12.123  1.00  0.00    -0.394 OA
HETATM   19  C   UNL     1     -46.479 -51.686  12.608  1.00  0.00     0.201 C 
ENDBRANCH  17  18
ENDBRANCH  16  17
ENDBRANCH  15  16
ENDBRANCH  14  15
ENDBRANCH   1  14
TORSDOF 7
ENDMDL
MODEL 9
REMARK VINA RESULT:      -4.7      3.938      4.909
REMARK  7 active torsions:
REMARK  status: ('A' for Active; 'I' for Inactive)
REMARK    1  A    between atoms: O_2  and  C_3 
REMARK    2  A    between atoms: C_3  and  C_4 
REMARK    3  A    between atoms: C_4  and  O_5 
REMARK    4  A    between atoms: O_5  and  C_6 
REMARK    5  A    between atoms: C_6  and  C_7 
REMARK       I    between atoms: C_7  and  N_9 
REMARK    6  A    between atoms: N_9  and  C_10 
REMARK    7  A    between atoms: C_16  and  O_17 
ROOT
HETATM    1  C   UNL     1     -41.171 -49.704  12.054  1.00  0.00     0.245 C 
HETATM    2  O   UNL     1     -40.513 -49.577  13.086  1.00  0.00    -0.271 OA
HETATM    3  N   UNL     1     -41.930 -50.807  11.707  1.00  0.00    -0.322 N 
HETATM    4  H   UNL     1     -42.288 -50.861  10.759  1.00  0.00     0.169 HD
ENDROOT
BRANCH   3   5
HETATM    5  C   UNL     1     -42.183 -51.936  12.514  1.00  0.00     0.086 A 
HETATM    6  C   UNL     1     -43.113 -51.961  13.547  1.00  0.00     0.035 A 
HETATM    7  C   UNL     1     -43.278 -53.122  14.303  1.00  0.00     0.019 A 
HETATM    8  C   UNL     1     -42.503 -54.230  13.995  1.00  0.00     0.090 A 
HETATM    9  N   UNL     1     -41.604 -54.262  12.985  1.00  0.00    -0.345 N 
HETATM   10  C   UNL     1     -41.486 -53.122  12.280  1.00  0.00     0.167 A 
ATOM     11  HN  UNL     1     -41.053 -55.093  12.772  1.00  0.00     0.167 HD
BRANCH  10  12
HETATM   12  O   UNL     1     -40.558 -53.205  11.287  1.00  0.00    -0.344 OA
HETATM   13  H   UNL     1     -41.113 -53.611  10.595  1.00  0.00     0.219 HD
ENDBRANCH  10  12
ENDBRANCH   3   5
BRANCH   1  14
HETATM   14  C   UNL     1     -41.160 -48.619  10.980  1.00  0.00     0.270 C 
BRANCH  14  15
HETATM   15  O   UNL     1     -40.328 -47.545  11.398  1.00  0.00    -0.380 OA
BRANCH  15  16
HETATM   16  C   UNL     1     -40.674 -46.320  10.755  1.00  0.00     0.194 C 
BRANCH  16  17
HETATM   17  C   UNL     1     -42.185 -46.285  10.566  1.00  0.00     0.193 C 
BRANCH  17  18
HETATM   18  O   UNL     1     -42.510 -45.601   9.358  1.00  0.00    -0.394 OA
HETATM   19  C   UNL     1     -43.654 -46.175   8.739  1.00  0.00     0.201 C 
ENDBRANCH  17  18
ENDBRANCH  16  17
ENDBRANCH  15  16
ENDBRANCH  14  15
ENDBRANCH   1  14
TORSDOF 7
ENDMDL
