MODEL 1
REMARK VINA RESULT:      -7.6      0.000      0.000
REMARK  8 active torsions:
REMARK  status: ('A' for Active; 'I' for Inactive)
REMARK    1  A    between atoms: C_2  and  C_3 
REMARK    2  A    between atoms: C_2  and  N_11 
REMARK    3  A    between atoms: C_3  and  N_4 
REMARK    4  A    between atoms: N_11  and  C_12 
REMARK    5  A    between atoms: C_12  and  C_13 
REMARK    6  A    between atoms: C_13  and  O_14 
REMARK    7  A    between atoms: C_13  and  C_15 
REMARK    8  A    between atoms: C_15  and  N_16 
ROOT
HETATM    1  C   UNL     1     -41.454 -52.368  11.978  1.00  0.00     0.164 C 
ENDROOT
BRANCH   1   2
HETATM    2  C   UNL     1     -40.520 -51.153  12.144  1.00  0.00     0.303 C 
BRANCH   2   3
HETATM    3  N   UNL     1     -40.753 -50.170  11.084  1.00  0.00     0.091 N 
HETATM    4  H   UNL     1     -39.847 -49.801  10.774  1.00  0.00     0.316 HD
BRANCH   3   5
HETATM    5  C   UNL     1     -41.639 -49.061  11.500  1.00  0.00     0.236 C 
HETATM    6  C   UNL     1     -41.135 -48.568  12.863  1.00  0.00     0.044 C 
BRANCH   5   7
HETATM    7  C   UNL     1     -41.647 -47.918  10.464  1.00  0.00     0.183 C 
BRANCH   7   8
HETATM    8  N   UNL     1     -42.877 -47.815   9.706  1.00  0.00    -0.301 N 
HETATM    9  C   UNL     1     -44.105 -47.486  10.200  1.00  0.00     0.118 A 
HETATM   10  C   UNL     1     -44.956 -47.445   9.119  1.00  0.00    -0.028 A 
HETATM   11  C   UNL     1     -46.400 -47.131   9.107  1.00  0.00     0.051 C 
HETATM   12  C   UNL     1     -44.129 -47.764   8.017  1.00  0.00     0.115 A 
HETATM   13  N   UNL     1     -42.861 -47.975   8.371  1.00  0.00    -0.310 N 
ATOM     14  HN  UNL     1     -42.067 -48.203   7.771  1.00  0.00     0.186 HD
ENDBRANCH   7   8
ENDBRANCH   5   7
ENDBRANCH   3   5
ENDBRANCH   2   3
ENDBRANCH   1   2
BRANCH   1  15
HETATM   15  O   UNL     1     -40.722 -53.448  11.385  1.00  0.00    -0.392 OA
HETATM   16  H   UNL     1     -39.774 -53.327  11.567  1.00  0.00     0.210 HD
ENDBRANCH   1  15
BRANCH   1  17
HETATM   17  C   UNL     1     -42.005 -52.759  13.353  1.00  0.00     0.163 C 
BRANCH  17  18
HETATM   18  N   UNL     1     -43.448 -52.862  13.371  1.00  0.00    -0.339 N 
HETATM   19  C   UNL     1     -44.186 -53.645  12.528  1.00  0.00     0.184 A 
HETATM   20  N   UNL     1     -45.461 -53.610  12.827  1.00  0.00    -0.350 N 
HETATM   21  C   UNL     1     -45.554 -52.754  13.898  1.00  0.00     0.060 A 
ATOM     22  HN  UNL     1     -46.221 -54.110  12.365  1.00  0.00     0.166 HD
HETATM   23  C   UNL     1     -46.683 -52.352  14.621  1.00  0.00     0.039 A 
HETATM   24  C   UNL     1     -44.306 -52.265  14.260  1.00  0.00     0.062 A 
HETATM   25  C   UNL     1     -46.541 -51.461  15.704  1.00  0.00    -0.054 A 
HETATM   26  C   UNL     1     -47.780 -51.070  16.464  1.00  0.00     0.049 C 
HETATM   27  C   UNL     1     -45.265 -50.967  16.048  1.00  0.00    -0.054 A 
HETATM   28  C   UNL     1     -45.043 -50.005  17.187  1.00  0.00     0.049 C 
HETATM   29  C   UNL     1     -44.124 -51.368  15.320  1.00  0.00     0.039 A 
ENDBRANCH  17  18
ENDBRANCH   1  17
TORSDOF 8
ENDMDL
MODEL 2
REMARK VINA RESULT:      -7.3      1.881      3.006
REMARK  8 active torsions:
REMARK  status: ('A' for Active; 'I' for Inactive)
REMARK    1  A    between atoms: C_2  and  C_3 
REMARK    2  A    between atoms: C_2  and  N_11 
REMARK    3  A    between atoms: C_3  and  N_4 
REMARK    4  A    between atoms: N_11  and  C_12 
REMARK    5  A    between atoms: C_12  and  C_13 
REMARK    6  A    between atoms: C_13  and  O_14 
REMARK    7  A    between atoms: C_13  and  C_15 
REMARK    8  A    between atoms: C_15  and  N_16 
ROOT
HETATM    1  C   UNL     1     -41.317 -49.568  11.286  1.00  0.00     0.164 C 
ENDROOT
BRANCH   1   2
HETATM    2  C   UNL     1     -41.176 -48.052  11.519  1.00  0.00     0.303 C 
BRANCH   2   3
HETATM    3  N   UNL     1     -41.351 -47.314  10.266  1.00  0.00     0.091 N 
HETATM    4  H   UNL     1     -40.452 -46.897  10.003  1.00  0.00     0.316 HD
BRANCH   3   5
HETATM    5  C   UNL     1     -42.394 -46.268  10.345  1.00  0.00     0.236 C 
HETATM    6  C   UNL     1     -41.717 -44.994  10.867  1.00  0.00     0.044 C 
BRANCH   5   7
HETATM    7  C   UNL     1     -43.059 -46.022   8.976  1.00  0.00     0.183 C 
BRANCH   7   8
HETATM    8  N   UNL     1     -44.366 -46.631   8.834  1.00  0.00    -0.301 N 
HETATM    9  C   UNL     1     -44.628 -47.873   8.335  1.00  0.00     0.118 A 
HETATM   10  C   UNL     1     -45.988 -48.056   8.451  1.00  0.00    -0.028 A 
HETATM   11  C   UNL     1     -46.786 -49.236   8.061  1.00  0.00     0.051 C 
HETATM   12  C   UNL     1     -46.447 -46.855   9.041  1.00  0.00     0.115 A 
HETATM   13  N   UNL     1     -45.460 -45.994   9.288  1.00  0.00    -0.310 N 
ATOM     14  HN  UNL     1     -45.520 -45.070   9.718  1.00  0.00     0.186 HD
ENDBRANCH   7   8
ENDBRANCH   5   7
ENDBRANCH   3   5
ENDBRANCH   2   3
ENDBRANCH   1   2
BRANCH   1  15
HETATM   15  O   UNL     1     -40.395 -49.977  10.267  1.00  0.00    -0.392 OA
HETATM   16  H   UNL     1     -39.488 -49.898  10.609  1.00  0.00     0.210 HD
ENDBRANCH   1  15
BRANCH   1  17
HETATM   17  C   UNL     1     -41.047 -50.299  12.605  1.00  0.00     0.163 C 
BRANCH  17  18
HETATM   18  N   UNL     1     -41.565 -51.649  12.615  1.00  0.00    -0.339 N 
HETATM   19  C   UNL     1     -40.860 -52.760  12.245  1.00  0.00     0.184 A 
HETATM   20  N   UNL     1     -41.549 -53.858  12.436  1.00  0.00    -0.350 N 
HETATM   21  C   UNL     1     -42.759 -53.437  12.935  1.00  0.00     0.060 A 
ATOM     22  HN  UNL     1     -41.252 -54.816  12.255  1.00  0.00     0.166 HD
HETATM   23  C   UNL     1     -43.874 -54.192  13.318  1.00  0.00     0.039 A 
HETATM   24  C   UNL     1     -42.801 -52.055  13.055  1.00  0.00     0.062 A 
HETATM   25  C   UNL     1     -45.021 -53.543  13.819  1.00  0.00    -0.054 A 
HETATM   26  C   UNL     1     -46.190 -54.394  14.235  1.00  0.00     0.049 C 
HETATM   27  C   UNL     1     -45.045 -52.135  13.922  1.00  0.00    -0.054 A 
HETATM   28  C   UNL     1     -46.242 -51.377  14.440  1.00  0.00     0.049 C 
HETATM   29  C   UNL     1     -43.924 -51.371  13.535  1.00  0.00     0.039 A 
ENDBRANCH  17  18
ENDBRANCH   1  17
TORSDOF 8
ENDMDL
MODEL 3
REMARK VINA RESULT:      -6.6      2.452      3.012
REMARK  8 active torsions:
REMARK  status: ('A' for Active; 'I' for Inactive)
REMARK    1  A    between atoms: C_2  and  C_3 
REMARK    2  A    between atoms: C_2  and  N_11 
REMARK    3  A    between atoms: C_3  and  N_4 
REMARK    4  A    between atoms: N_11  and  C_12 
REMARK    5  A    between atoms: C_12  and  C_13 
REMARK    6  A    between atoms: C_13  and  O_14 
REMARK    7  A    between atoms: C_13  and  C_15 
REMARK    8  A    between atoms: C_15  and  N_16 
ROOT
HETATM    1  C   UNL     1     -41.715 -52.671  12.121  1.00  0.00     0.164 C 
ENDROOT
BRANCH   1   2
HETATM    2  C   UNL     1     -41.321 -51.182  12.159  1.00  0.00     0.303 C 
BRANCH   2   3
HETATM    3  N   UNL     1     -39.878 -51.029  12.358  1.00  0.00     0.091 N 
HETATM    4  H   UNL     1     -39.636 -51.390  13.287  1.00  0.00     0.316 HD
BRANCH   3   5
HETATM    5  C   UNL     1     -39.412 -49.633  12.216  1.00  0.00     0.236 C 
HETATM    6  C   UNL     1     -38.080 -49.676  11.456  1.00  0.00     0.044 C 
BRANCH   5   7
HETATM    7  C   UNL     1     -40.446 -48.760  11.477  1.00  0.00     0.183 C 
BRANCH   7   8
HETATM    8  N   UNL     1     -40.186 -47.337  11.558  1.00  0.00    -0.301 N 
HETATM    9  C   UNL     1     -39.882 -46.635  12.687  1.00  0.00     0.118 A 
HETATM   10  C   UNL     1     -39.653 -45.338  12.283  1.00  0.00    -0.028 A 
HETATM   11  C   UNL     1     -39.282 -44.177  13.117  1.00  0.00     0.051 C 
HETATM   12  C   UNL     1     -39.844 -45.375  10.883  1.00  0.00     0.115 A 
HETATM   13  N   UNL     1     -40.154 -46.593  10.438  1.00  0.00    -0.310 N 
ATOM     14  HN  UNL     1     -40.327 -46.890   9.477  1.00  0.00     0.186 HD
ENDBRANCH   7   8
ENDBRANCH   5   7
ENDBRANCH   3   5
ENDBRANCH   2   3
ENDBRANCH   1   2
BRANCH   1  15
HETATM   15  O   UNL     1     -40.583 -53.448  11.707  1.00  0.00    -0.392 OA
HETATM   16  H   UNL     1     -40.416 -53.286  10.763  1.00  0.00     0.210 HD
ENDBRANCH   1  15
BRANCH   1  17
HETATM   17  C   UNL     1     -42.198 -53.090  13.513  1.00  0.00     0.163 C 
BRANCH  17  18
HETATM   18  N   UNL     1     -43.637 -53.199  13.598  1.00  0.00    -0.339 N 
HETATM   19  C   UNL     1     -44.399 -54.078  12.881  1.00  0.00     0.184 A 
HETATM   20  N   UNL     1     -45.663 -54.016  13.223  1.00  0.00    -0.350 N 
HETATM   21  C   UNL     1     -45.723 -53.042  14.190  1.00  0.00     0.060 A 
ATOM     22  HN  UNL     1     -46.434 -54.570  12.852  1.00  0.00     0.166 HD
HETATM   23  C   UNL     1     -46.828 -52.565  14.906  1.00  0.00     0.039 A 
HETATM   24  C   UNL     1     -44.467 -52.507  14.445  1.00  0.00     0.062 A 
HETATM   25  C   UNL     1     -46.654 -51.555  15.873  1.00  0.00    -0.054 A 
HETATM   26  C   UNL     1     -47.867 -51.085  16.630  1.00  0.00     0.049 C 
HETATM   27  C   UNL     1     -45.370 -51.017  16.107  1.00  0.00    -0.054 A 
HETATM   28  C   UNL     1     -45.115 -49.928  17.118  1.00  0.00     0.049 C 
HETATM   29  C   UNL     1     -44.254 -51.494  15.386  1.00  0.00     0.039 A 
ENDBRANCH  17  18
ENDBRANCH   1  17
TORSDOF 8
ENDMDL
MODEL 4
REMARK VINA RESULT:      -6.6      3.198      3.736
REMARK  8 active torsions:
REMARK  status: ('A' for Active; 'I' for Inactive)
REMARK    1  A    between atoms: C_2  and  C_3 
REMARK    2  A    between atoms: C_2  and  N_11 
REMARK    3  A    between atoms: C_3  and  N_4 
REMARK    4  A    between atoms: N_11  and  C_12 
REMARK    5  A    between atoms: C_12  and  C_13 
REMARK    6  A    between atoms: C_13  and  O_14 
REMARK    7  A    between atoms: C_13  and  C_15 
REMARK    8  A    between atoms: C_15  and  N_16 
ROOT
HETATM    1  C   UNL     1     -39.095 -49.994  11.487  1.00  0.00     0.164 C 
ENDROOT
BRANCH   1   2
HETATM    2  C   UNL     1     -39.280 -48.575  12.059  1.00  0.00     0.303 C 
BRANCH   2   3
HETATM    3  N   UNL     1     -39.932 -47.701  11.081  1.00  0.00     0.091 N 
HETATM    4  H   UNL     1     -39.521 -46.764  11.154  1.00  0.00     0.316 HD
BRANCH   3   5
HETATM    5  C   UNL     1     -41.399 -47.627  11.250  1.00  0.00     0.236 C 
HETATM    6  C   UNL     1     -41.666 -47.202  12.700  1.00  0.00     0.044 C 
BRANCH   5   7
HETATM    7  C   UNL     1     -42.039 -46.638  10.255  1.00  0.00     0.183 C 
BRANCH   7   8
HETATM    8  N   UNL     1     -43.154 -47.186   9.510  1.00  0.00    -0.301 N 
HETATM    9  C   UNL     1     -44.440 -47.304   9.950  1.00  0.00     0.118 A 
HETATM   10  C   UNL     1     -45.163 -47.812   8.894  1.00  0.00    -0.028 A 
HETATM   11  C   UNL     1     -46.606 -48.123   8.844  1.00  0.00     0.051 C 
HETATM   12  C   UNL     1     -44.208 -47.960   7.862  1.00  0.00     0.115 A 
HETATM   13  N   UNL     1     -42.988 -47.565   8.230  1.00  0.00    -0.310 N 
ATOM     14  HN  UNL     1     -42.133 -47.555   7.674  1.00  0.00     0.186 HD
ENDBRANCH   7   8
ENDBRANCH   5   7
ENDBRANCH   3   5
ENDBRANCH   2   3
ENDBRANCH   1   2
BRANCH   1  15
HETATM   15  O   UNL     1     -37.902 -50.030  10.694  1.00  0.00    -0.392 OA
HETATM   16  H   UNL     1     -37.130 -50.086  11.283  1.00  0.00     0.210 HD
ENDBRANCH   1  15
BRANCH   1  17
HETATM   17  C   UNL     1     -39.021 -50.990  12.649  1.00  0.00     0.163 C 
BRANCH  17  18
HETATM   18  N   UNL     1     -40.190 -51.837  12.737  1.00  0.00    -0.339 N 
HETATM   19  C   UNL     1     -41.164 -51.926  11.782  1.00  0.00     0.184 A 
HETATM   20  N   UNL     1     -42.058 -52.835  12.086  1.00  0.00    -0.350 N 
HETATM   21  C   UNL     1     -41.653 -53.344  13.297  1.00  0.00     0.060 A 
ATOM     22  HN  UNL     1     -42.876 -53.107  11.542  1.00  0.00     0.166 HD
HETATM   23  C   UNL     1     -42.239 -54.343  14.083  1.00  0.00     0.039 A 
HETATM   24  C   UNL     1     -40.485 -52.734  13.733  1.00  0.00     0.062 A 
HETATM   25  C   UNL     1     -41.638 -54.718  15.302  1.00  0.00    -0.054 A 
HETATM   26  C   UNL     1     -42.292 -55.809  16.107  1.00  0.00     0.049 C 
HETATM   27  C   UNL     1     -40.456 -54.077  15.732  1.00  0.00    -0.054 A 
HETATM   28  C   UNL     1     -39.767 -54.421  17.028  1.00  0.00     0.049 C 
HETATM   29  C   UNL     1     -39.864 -53.067  14.943  1.00  0.00     0.039 A 
ENDBRANCH  17  18
ENDBRANCH   1  17
TORSDOF 8
ENDMDL
MODEL 5
REMARK VINA RESULT:      -6.5      2.344      3.880
REMARK  8 active torsions:
REMARK  status: ('A' for Active; 'I' for Inactive)
REMARK    1  A    between atoms: C_2  and  C_3 
REMARK    2  A    between atoms: C_2  and  N_11 
REMARK    3  A    between atoms: C_3  and  N_4 
REMARK    4  A    between atoms: N_11  and  C_12 
REMARK    5  A    between atoms: C_12  and  C_13 
REMARK    6  A    between atoms: C_13  and  O_14 
REMARK    7  A    between atoms: C_13  and  C_15 
REMARK    8  A    between atoms: C_15  and  N_16 
ROOT
HETATM    1  C   UNL     1     -40.788 -50.054  11.241  1.00  0.00     0.164 C 
ENDROOT
BRANCH   1   2
HETATM    2  C   UNL     1     -41.312 -48.609  11.127  1.00  0.00     0.303 C 
BRANCH   2   3
HETATM    3  N   UNL     1     -42.530 -48.559  10.315  1.00  0.00     0.091 N 
HETATM    4  H   UNL     1     -42.556 -49.388   9.712  1.00  0.00     0.316 HD
BRANCH   3   5
HETATM    5  C   UNL     1     -42.637 -47.331   9.498  1.00  0.00     0.236 C 
HETATM    6  C   UNL     1     -43.812 -47.533   8.532  1.00  0.00     0.044 C 
BRANCH   5   7
HETATM    7  C   UNL     1     -42.848 -46.080  10.375  1.00  0.00     0.183 C 
BRANCH   7   8
HETATM    8  N   UNL     1     -41.622 -45.401  10.741  1.00  0.00    -0.301 N 
HETATM    9  C   UNL     1     -41.367 -44.777  11.927  1.00  0.00     0.118 A 
HETATM   10  C   UNL     1     -40.065 -44.334  11.857  1.00  0.00    -0.028 A 
HETATM   11  C   UNL     1     -39.295 -43.601  12.883  1.00  0.00     0.051 C 
HETATM   12  C   UNL     1     -39.628 -44.751  10.578  1.00  0.00     0.115 A 
HETATM   13  N   UNL     1     -40.569 -45.413   9.904  1.00  0.00    -0.310 N 
ATOM     14  HN  UNL     1     -40.506 -45.828   8.974  1.00  0.00     0.186 HD
ENDBRANCH   7   8
ENDBRANCH   5   7
ENDBRANCH   3   5
ENDBRANCH   2   3
ENDBRANCH   1   2
BRANCH   1  15
HETATM   15  O   UNL     1     -39.400 -50.082  10.885  1.00  0.00    -0.392 OA
HETATM   16  H   UNL     1     -39.207 -49.332  10.298  1.00  0.00     0.210 HD
ENDBRANCH   1  15
BRANCH   1  17
HETATM   17  C   UNL     1     -41.005 -50.548  12.675  1.00  0.00     0.163 C 
BRANCH  17  18
HETATM   18  N   UNL     1     -41.570 -51.878  12.731  1.00  0.00    -0.339 N 
HETATM   19  C   UNL     1     -40.904 -53.024  12.398  1.00  0.00     0.184 A 
HETATM   20  N   UNL     1     -41.630 -54.091  12.628  1.00  0.00    -0.350 N 
HETATM   21  C   UNL     1     -42.823 -53.612  13.114  1.00  0.00     0.060 A 
ATOM     22  HN  UNL     1     -41.367 -55.065  12.478  1.00  0.00     0.166 HD
HETATM   23  C   UNL     1     -43.963 -54.314  13.523  1.00  0.00     0.039 A 
HETATM   24  C   UNL     1     -42.817 -52.226  13.187  1.00  0.00     0.062 A 
HETATM   25  C   UNL     1     -45.085 -53.610  14.005  1.00  0.00    -0.054 A 
HETATM   26  C   UNL     1     -46.282 -54.406  14.450  1.00  0.00     0.049 C 
HETATM   27  C   UNL     1     -45.061 -52.199  14.059  1.00  0.00    -0.054 A 
HETATM   28  C   UNL     1     -46.229 -51.383  14.553  1.00  0.00     0.049 C 
HETATM   29  C   UNL     1     -43.915 -51.488  13.645  1.00  0.00     0.039 A 
ENDBRANCH  17  18
ENDBRANCH   1  17
TORSDOF 8
ENDMDL
MODEL 6
REMARK VINA RESULT:      -6.3      1.610      2.203
REMARK  8 active torsions:
REMARK  status: ('A' for Active; 'I' for Inactive)
REMARK    1  A    between atoms: C_2  and  C_3 
REMARK    2  A    between atoms: C_2  and  N_11 
REMARK    3  A    between atoms: C_3  and  N_4 
REMARK    4  A    between atoms: N_11  and  C_12 
REMARK    5  A    between atoms: C_12  and  C_13 
REMARK    6  A    between atoms: C_13  and  O_14 
REMARK    7  A    between atoms: C_13  and  C_15 
REMARK    8  A    between atoms: C_15  and  N_16 
ROOT
HETATM    1  C   UNL     1     -40.959 -52.816  12.872  1.00  0.00     0.164 C 
ENDROOT
BRANCH   1   2
HETATM    2  C   UNL     1     -39.745 -52.635  13.803  1.00  0.00     0.303 C 
BRANCH   2   3
HETATM    3  N   UNL     1     -38.879 -51.555  13.324  1.00  0.00     0.091 N 
HETATM    4  H   UNL     1     -38.111 -51.431  13.993  1.00  0.00     0.316 HD
BRANCH   3   5
HETATM    5  C   UNL     1     -39.594 -50.276  13.128  1.00  0.00     0.236 C 
HETATM    6  C   UNL     1     -39.059 -49.293  14.177  1.00  0.00     0.044 C 
BRANCH   5   7
HETATM    7  C   UNL     1     -39.398 -49.726  11.701  1.00  0.00     0.183 C 
BRANCH   7   8
HETATM    8  N   UNL     1     -40.400 -48.763  11.294  1.00  0.00    -0.301 N 
HETATM    9  C   UNL     1     -41.744 -48.980  11.212  1.00  0.00     0.118 A 
HETATM   10  C   UNL     1     -42.308 -47.777  10.852  1.00  0.00    -0.028 A 
HETATM   11  C   UNL     1     -43.736 -47.468  10.635  1.00  0.00     0.051 C 
HETATM   12  C   UNL     1     -41.205 -46.898  10.746  1.00  0.00     0.115 A 
HETATM   13  N   UNL     1     -40.045 -47.492  11.029  1.00  0.00    -0.310 N 
ATOM     14  HN  UNL     1     -39.111 -47.082  11.041  1.00  0.00     0.186 HD
ENDBRANCH   7   8
ENDBRANCH   5   7
ENDBRANCH   3   5
ENDBRANCH   2   3
ENDBRANCH   1   2
BRANCH   1  15
HETATM   15  O   UNL     1     -40.536 -53.463  11.664  1.00  0.00    -0.392 OA
HETATM   16  H   UNL     1     -41.056 -54.275  11.540  1.00  0.00     0.210 HD
ENDBRANCH   1  15
BRANCH   1  17
HETATM   17  C   UNL     1     -42.024 -53.643  13.601  1.00  0.00     0.163 C 
BRANCH  17  18
HETATM   18  N   UNL     1     -43.363 -53.133  13.402  1.00  0.00    -0.339 N 
HETATM   19  C   UNL     1     -44.024 -53.117  12.206  1.00  0.00     0.184 A 
HETATM   20  N   UNL     1     -45.252 -52.680  12.337  1.00  0.00    -0.350 N 
HETATM   21  C   UNL     1     -45.386 -52.386  13.673  1.00  0.00     0.060 A 
ATOM     22  HN  UNL     1     -45.957 -52.581  11.607  1.00  0.00     0.166 HD
HETATM   23  C   UNL     1     -46.494 -51.887  14.368  1.00  0.00     0.039 A 
HETATM   24  C   UNL     1     -44.215 -52.656  14.367  1.00  0.00     0.062 A 
HETATM   25  C   UNL     1     -46.410 -51.667  15.757  1.00  0.00    -0.054 A 
HETATM   26  C   UNL     1     -47.630 -51.146  16.467  1.00  0.00     0.049 C 
HETATM   27  C   UNL     1     -45.205 -51.938  16.442  1.00  0.00    -0.054 A 
HETATM   28  C   UNL     1     -45.042 -51.717  17.924  1.00  0.00     0.049 C 
HETATM   29  C   UNL     1     -44.085 -52.440  15.744  1.00  0.00     0.039 A 
ENDBRANCH  17  18
ENDBRANCH   1  17
TORSDOF 8
ENDMDL
MODEL 7
REMARK VINA RESULT:      -6.2      2.742      4.664
REMARK  8 active torsions:
REMARK  status: ('A' for Active; 'I' for Inactive)
REMARK    1  A    between atoms: C_2  and  C_3 
REMARK    2  A    between atoms: C_2  and  N_11 
REMARK    3  A    between atoms: C_3  and  N_4 
REMARK    4  A    between atoms: N_11  and  C_12 
REMARK    5  A    between atoms: C_12  and  C_13 
REMARK    6  A    between atoms: C_13  and  O_14 
REMARK    7  A    between atoms: C_13  and  C_15 
REMARK    8  A    between atoms: C_15  and  N_16 
ROOT
HETATM    1  C   UNL     1     -41.849 -52.612  12.069  1.00  0.00     0.164 C 
ENDROOT
BRANCH   1   2
HETATM    2  C   UNL     1     -41.617 -51.089  12.068  1.00  0.00     0.303 C 
BRANCH   2   3
HETATM    3  N   UNL     1     -40.600 -50.718  11.081  1.00  0.00     0.091 N 
HETATM    4  H   UNL     1     -40.084 -51.561  10.809  1.00  0.00     0.316 HD
BRANCH   3   5
HETATM    5  C   UNL     1     -39.663 -49.683  11.568  1.00  0.00     0.236 C 
HETATM    6  C   UNL     1     -40.361 -48.948  12.721  1.00  0.00     0.044 C 
BRANCH   5   7
HETATM    7  C   UNL     1     -38.325 -50.296  12.029  1.00  0.00     0.183 C 
BRANCH   7   8
HETATM    8  N   UNL     1     -38.240 -50.525  13.456  1.00  0.00    -0.301 N 
HETATM    9  C   UNL     1     -38.723 -51.608  14.131  1.00  0.00     0.118 A 
HETATM   10  C   UNL     1     -38.360 -51.434  15.448  1.00  0.00    -0.028 A 
HETATM   11  C   UNL     1     -38.634 -52.326  16.594  1.00  0.00     0.051 C 
HETATM   12  C   UNL     1     -37.656 -50.208  15.452  1.00  0.00     0.115 A 
HETATM   13  N   UNL     1     -37.569 -49.661  14.239  1.00  0.00    -0.310 N 
ATOM     14  HN  UNL     1     -37.105 -48.794  13.969  1.00  0.00     0.186 HD
ENDBRANCH   7   8
ENDBRANCH   5   7
ENDBRANCH   3   5
ENDBRANCH   2   3
ENDBRANCH   1   2
BRANCH   1  15
HETATM   15  O   UNL     1     -40.639 -53.274  11.678  1.00  0.00    -0.392 OA
HETATM   16  H   UNL     1     -40.009 -53.246  12.418  1.00  0.00     0.210 HD
ENDBRANCH   1  15
BRANCH   1  17
HETATM   17  C   UNL     1     -42.291 -53.044  13.471  1.00  0.00     0.163 C 
BRANCH  17  18
HETATM   18  N   UNL     1     -43.727 -53.169  13.593  1.00  0.00    -0.339 N 
HETATM   19  C   UNL     1     -44.496 -54.061  12.899  1.00  0.00     0.184 A 
HETATM   20  N   UNL     1     -45.751 -54.012  13.272  1.00  0.00    -0.350 N 
HETATM   21  C   UNL     1     -45.799 -53.034  14.237  1.00  0.00     0.060 A 
ATOM     22  HN  UNL     1     -46.525 -54.577  12.923  1.00  0.00     0.166 HD
HETATM   23  C   UNL     1     -46.891 -52.567  14.977  1.00  0.00     0.039 A 
HETATM   24  C   UNL     1     -44.544 -52.483  14.458  1.00  0.00     0.062 A 
HETATM   25  C   UNL     1     -46.705 -51.550  15.936  1.00  0.00    -0.054 A 
HETATM   26  C   UNL     1     -47.904 -51.091  16.721  1.00  0.00     0.049 C 
HETATM   27  C   UNL     1     -45.422 -50.997  16.136  1.00  0.00    -0.054 A 
HETATM   28  C   UNL     1     -45.155 -49.900  17.135  1.00  0.00     0.049 C 
HETATM   29  C   UNL     1     -44.319 -51.463  15.389  1.00  0.00     0.039 A 
ENDBRANCH  17  18
ENDBRANCH   1  17
TORSDOF 8
ENDMDL
MODEL 8
REMARK VINA RESULT:      -6.2      2.916      7.027
REMARK  8 active torsions:
REMARK  status: ('A' for Active; 'I' for Inactive)
REMARK    1  A    between atoms: C_2  and  C_3 
REMARK    2  A    between atoms: C_2  and  N_11 
REMARK    3  A    between atoms: C_3  and  N_4 
REMARK    4  A    between atoms: N_11  and  C_12 
REMARK    5  A    between atoms: C_12  and  C_13 
REMARK    6  A    between atoms: C_13  and  O_14 
REMARK    7  A    between atoms: C_13  and  C_15 
REMARK    8  A    between atoms: C_15  and  N_16 
ROOT
HETATM    1  C   UNL     1     -41.054 -52.333  12.337  1.00  0.00     0.164 C 
ENDROOT
BRANCH   1   2
HETATM    2  C   UNL     1     -42.589 -52.445  12.406  1.00  0.00     0.303 C 
BRANCH   2   3
HETATM    3  N   UNL     1     -43.017 -52.931  13.720  1.00  0.00     0.091 N 
HETATM    4  H   UNL     1     -42.228 -52.856  14.371  1.00  0.00     0.316 HD
BRANCH   3   5
HETATM    5  C   UNL     1     -43.523 -54.321  13.693  1.00  0.00     0.236 C 
HETATM    6  C   UNL     1     -43.249 -54.929  15.075  1.00  0.00     0.044 C 
BRANCH   5   7
HETATM    7  C   UNL     1     -45.026 -54.373  13.351  1.00  0.00     0.183 C 
BRANCH   7   8
HETATM    8  N   UNL     1     -45.798 -53.280  13.905  1.00  0.00    -0.301 N 
HETATM    9  C   UNL     1     -46.248 -53.178  15.188  1.00  0.00     0.118 A 
HETATM   10  C   UNL     1     -46.871 -51.954  15.282  1.00  0.00    -0.028 A 
HETATM   11  C   UNL     1     -47.525 -51.352  16.461  1.00  0.00     0.051 C 
HETATM   12  C   UNL     1     -46.732 -51.398  13.989  1.00  0.00     0.115 A 
HETATM   13  N   UNL     1     -46.067 -52.197  13.154  1.00  0.00    -0.310 N 
ATOM     14  HN  UNL     1     -45.821 -52.028  12.179  1.00  0.00     0.186 HD
ENDBRANCH   7   8
ENDBRANCH   5   7
ENDBRANCH   3   5
ENDBRANCH   2   3
ENDBRANCH   1   2
BRANCH   1  15
HETATM   15  O   UNL     1     -40.540 -53.390  11.516  1.00  0.00    -0.392 OA
HETATM   16  H   UNL     1     -41.205 -53.623  10.846  1.00  0.00     0.210 HD
ENDBRANCH   1  15
BRANCH   1  17
HETATM   17  C   UNL     1     -40.684 -50.959  11.770  1.00  0.00     0.163 C 
BRANCH  17  18
HETATM   18  N   UNL     1     -40.291 -50.016  12.795  1.00  0.00    -0.339 N 
HETATM   19  C   UNL     1     -39.993 -50.346  14.087  1.00  0.00     0.184 A 
HETATM   20  N   UNL     1     -39.585 -49.305  14.771  1.00  0.00    -0.350 N 
HETATM   21  C   UNL     1     -39.638 -48.254  13.887  1.00  0.00     0.060 A 
ATOM     22  HN  UNL     1     -39.292 -49.281  15.748  1.00  0.00     0.166 HD
HETATM   23  C   UNL     1     -39.312 -46.907  14.086  1.00  0.00     0.039 A 
HETATM   24  C   UNL     1     -40.082 -48.669  12.639  1.00  0.00     0.062 A 
HETATM   25  C   UNL     1     -39.434 -45.992  13.021  1.00  0.00    -0.054 A 
HETATM   26  C   UNL     1     -39.055 -44.558  13.274  1.00  0.00     0.049 C 
HETATM   27  C   UNL     1     -39.897 -46.433  11.762  1.00  0.00    -0.054 A 
HETATM   28  C   UNL     1     -40.061 -45.507  10.584  1.00  0.00     0.049 C 
HETATM   29  C   UNL     1     -40.230 -47.790  11.559  1.00  0.00     0.039 A 
ENDBRANCH  17  18
ENDBRANCH   1  17
TORSDOF 8
ENDMDL
MODEL 9
REMARK VINA RESULT:      -6.1      2.520      4.796
REMARK  8 active torsions:
REMARK  status: ('A' for Active; 'I' for Inactive)
REMARK    1  A    between atoms: C_2  and  C_3 
REMARK    2  A    between atoms: C_2  and  N_11 
REMARK    3  A    between atoms: C_3  and  N_4 
REMARK    4  A    between atoms: N_11  and  C_12 
REMARK    5  A    between atoms: C_12  and  C_13 
REMARK    6  A    between atoms: C_13  and  O_14 
REMARK    7  A    between atoms: C_13  and  C_15 
REMARK    8  A    between atoms: C_15  and  N_16 
ROOT
HETATM    1  C   UNL     1     -41.407 -49.777  11.190  1.00  0.00     0.164 C 
ENDROOT
BRANCH   1   2
HETATM    2  C   UNL     1     -41.706 -48.277  11.371  1.00  0.00     0.303 C 
BRANCH   2   3
HETATM    3  N   UNL     1     -40.883 -47.469  10.468  1.00  0.00     0.091 N 
HETATM    4  H   UNL     1     -40.428 -48.093   9.793  1.00  0.00     0.316 HD
BRANCH   3   5
HETATM    5  C   UNL     1     -39.870 -46.655  11.174  1.00  0.00     0.236 C 
HETATM    6  C   UNL     1     -39.826 -45.288  10.479  1.00  0.00     0.044 C 
BRANCH   5   7
HETATM    7  C   UNL     1     -40.200 -46.507  12.673  1.00  0.00     0.183 C 
BRANCH   7   8
HETATM    8  N   UNL     1     -39.393 -47.338  13.542  1.00  0.00    -0.301 N 
HETATM    9  C   UNL     1     -39.531 -47.468  14.892  1.00  0.00     0.118 A 
HETATM   10  C   UNL     1     -38.601 -48.404  15.287  1.00  0.00    -0.028 A 
HETATM   11  C   UNL     1     -38.341 -48.913  16.649  1.00  0.00     0.051 C 
HETATM   12  C   UNL     1     -37.956 -48.775  14.085  1.00  0.00     0.115 A 
HETATM   13  N   UNL     1     -38.446 -48.138  13.020  1.00  0.00    -0.310 N 
ATOM     14  HN  UNL     1     -38.168 -48.235  12.043  1.00  0.00     0.186 HD
ENDBRANCH   7   8
ENDBRANCH   5   7
ENDBRANCH   3   5
ENDBRANCH   2   3
ENDBRANCH   1   2
BRANCH   1  15
HETATM   15  O   UNL     1     -40.251 -49.931  10.356  1.00  0.00    -0.392 OA
HETATM   16  H   UNL     1     -39.606 -49.238  10.577  1.00  0.00     0.210 HD
ENDBRANCH   1  15
BRANCH   1  17
HETATM   17  C   UNL     1     -41.184 -50.408  12.569  1.00  0.00     0.163 C 
BRANCH  17  18
HETATM   18  N   UNL     1     -41.691 -51.759  12.656  1.00  0.00    -0.339 N 
HETATM   19  C   UNL     1     -40.977 -52.883  12.346  1.00  0.00     0.184 A 
HETATM   20  N   UNL     1     -41.657 -53.975  12.601  1.00  0.00    -0.350 N 
HETATM   21  C   UNL     1     -42.868 -53.537  13.081  1.00  0.00     0.060 A 
ATOM     22  HN  UNL     1     -41.352 -54.939  12.473  1.00  0.00     0.166 HD
HETATM   23  C   UNL     1     -43.976 -54.278  13.509  1.00  0.00     0.039 A 
HETATM   24  C   UNL     1     -42.921 -52.150  13.123  1.00  0.00     0.062 A 
HETATM   25  C   UNL     1     -45.126 -53.612  13.978  1.00  0.00    -0.054 A 
HETATM   26  C   UNL     1     -46.286 -54.448  14.445  1.00  0.00     0.049 C 
HETATM   27  C   UNL     1     -45.163 -52.201  14.002  1.00  0.00    -0.054 A 
HETATM   28  C   UNL     1     -46.363 -51.425  14.481  1.00  0.00     0.049 C 
HETATM   29  C   UNL     1     -44.049 -51.450  13.569  1.00  0.00     0.039 A 
ENDBRANCH  17  18
ENDBRANCH   1  17
TORSDOF 8
ENDMDL
