MODEL 1
REMARK VINA RESULT:      -6.5      0.000      0.000
REMARK  7 active torsions:
REMARK  status: ('A' for Active; 'I' for Inactive)
REMARK    1  A    between atoms: C_2  and  N_3 
REMARK    2  A    between atoms: C_2  and  C_6 
REMARK    3  A    between atoms: N_3  and  C_4 
REMARK    4  A    between atoms: N_15  and  C_16 
REMARK    5  A    between atoms: C_16  and  C_17 
REMARK    6  A    between atoms: C_17  and  O_18 
REMARK    7  A    between atoms: O_18  and  C_19 
ROOT
HETATM    1  C   UNL     1     -40.066 -48.641  12.082  1.00  0.00     0.107 A 
HETATM    2  N   UNL     1     -39.672 -47.938  11.037  1.00  0.00    -0.342 N 
ATOM      3  HN  UNL     1     -39.192 -48.293  10.210  1.00  0.00     0.167 HD
HETATM    4  C   UNL     1     -40.032 -46.645  11.277  1.00  0.00     0.060 A 
HETATM    5  C   UNL     1     -39.796 -45.509  10.485  1.00  0.00     0.032 A 
HETATM    6  C   UNL     1     -40.263 -44.262  10.913  1.00  0.00     0.002 A 
HETATM    7  C   UNL     1     -40.955 -44.151  12.109  1.00  0.00     0.002 A 
HETATM    8  C   UNL     1     -41.190 -45.271  12.913  1.00  0.00     0.032 A 
HETATM    9  C   UNL     1     -40.714 -46.528  12.489  1.00  0.00     0.062 A 
HETATM   10  N   UNL     1     -40.727 -47.821  12.999  1.00  0.00    -0.331 N 
ENDROOT
BRANCH  10  11
HETATM   11  C   UNL     1     -41.310 -48.293  14.248  1.00  0.00     0.157 C 
BRANCH  11  12
HETATM   12  C   UNL     1     -42.757 -48.749  14.204  1.00  0.00     0.196 C 
BRANCH  12  13
HETATM   13  O   UNL     1     -42.900 -50.056  14.763  1.00  0.00    -0.350 OA
BRANCH  13  14
HETATM   14  C   UNL     1     -44.181 -50.541  14.668  1.00  0.00     0.069 A 
HETATM   15  C   UNL     1     -44.878 -50.684  15.863  1.00  0.00     0.037 A 
HETATM   16  C   UNL     1     -46.189 -51.168  15.858  1.00  0.00     0.003 A 
HETATM   17  C   UNL     1     -46.802 -51.532  14.658  1.00  0.00     0.007 A 
HETATM   18  C   UNL     1     -46.107 -51.423  13.452  1.00  0.00    -0.059 A 
HETATM   19  C   UNL     1     -46.725 -51.818  12.144  1.00  0.00     0.048 C 
HETATM   20  C   UNL     1     -44.796 -50.925  13.469  1.00  0.00     0.043 A 
ENDBRANCH  13  14
ENDBRANCH  12  13
ENDBRANCH  11  12
ENDBRANCH  10  11
BRANCH   1  21
HETATM   21  C   UNL     1     -39.735 -50.114  12.240  1.00  0.00     0.147 C 
HETATM   22  C   UNL     1     -40.936 -50.960  11.813  1.00  0.00     0.040 C 
BRANCH  21  23
HETATM   23  N   UNL     1     -38.486 -50.438  11.568  1.00  0.00    -0.357 N 
HETATM   24  H   UNL     1     -38.278 -49.921  10.724  1.00  0.00     0.162 HD
BRANCH  23  25
HETATM   25  C   UNL     1     -37.374 -50.867  12.247  1.00  0.00     0.349 C 
HETATM   26  O   UNL     1     -36.766 -51.909  12.064  1.00  0.00    -0.284 OA
ENDBRANCH  23  25
ENDBRANCH  21  23
ENDBRANCH   1  21
TORSDOF 7
ENDMDL
MODEL 2
REMARK VINA RESULT:      -6.5      1.970      4.142
REMARK  7 active torsions:
REMARK  status: ('A' for Active; 'I' for Inactive)
REMARK    1  A    between atoms: C_2  and  N_3 
REMARK    2  A    between atoms: C_2  and  C_6 
REMARK    3  A    between atoms: N_3  and  C_4 
REMARK    4  A    between atoms: N_15  and  C_16 
REMARK    5  A    between atoms: C_16  and  C_17 
REMARK    6  A    between atoms: C_17  and  O_18 
REMARK    7  A    between atoms: O_18  and  C_19 
ROOT
HETATM    1  C   UNL     1     -40.429 -47.754  11.801  1.00  0.00     0.107 A 
HETATM    2  N   UNL     1     -39.410 -48.230  11.111  1.00  0.00    -0.342 N 
ATOM      3  HN  UNL     1     -39.114 -47.937  10.181  1.00  0.00     0.167 HD
HETATM    4  C   UNL     1     -38.829 -49.190  11.886  1.00  0.00     0.060 A 
HETATM    5  C   UNL     1     -37.736 -50.020  11.580  1.00  0.00     0.032 A 
HETATM    6  C   UNL     1     -37.285 -50.943  12.528  1.00  0.00     0.002 A 
HETATM    7  C   UNL     1     -37.912 -51.036  13.762  1.00  0.00     0.002 A 
HETATM    8  C   UNL     1     -39.007 -50.224  14.078  1.00  0.00     0.032 A 
HETATM    9  C   UNL     1     -39.468 -49.298  13.121  1.00  0.00     0.062 A 
HETATM   10  N   UNL     1     -40.499 -48.368  13.053  1.00  0.00    -0.331 N 
ENDROOT
BRANCH  10  11
HETATM   11  C   UNL     1     -41.495 -48.048  14.067  1.00  0.00     0.157 C 
BRANCH  11  12
HETATM   12  C   UNL     1     -42.872 -48.664  13.900  1.00  0.00     0.196 C 
BRANCH  12  13
HETATM   13  O   UNL     1     -42.935 -49.954  14.511  1.00  0.00    -0.350 OA
BRANCH  13  14
HETATM   14  C   UNL     1     -44.194 -50.500  14.478  1.00  0.00     0.069 A 
HETATM   15  C   UNL     1     -44.830 -50.661  15.706  1.00  0.00     0.037 A 
HETATM   16  C   UNL     1     -46.115 -51.208  15.765  1.00  0.00     0.003 A 
HETATM   17  C   UNL     1     -46.762 -51.615  14.596  1.00  0.00     0.007 A 
HETATM   18  C   UNL     1     -46.127 -51.489  13.360  1.00  0.00    -0.059 A 
HETATM   19  C   UNL     1     -46.783 -51.929  12.085  1.00  0.00     0.048 C 
HETATM   20  C   UNL     1     -44.842 -50.929  13.312  1.00  0.00     0.043 A 
ENDBRANCH  13  14
ENDBRANCH  12  13
ENDBRANCH  11  12
ENDBRANCH  10  11
BRANCH   1  21
HETATM   21  C   UNL     1     -41.401 -46.743  11.218  1.00  0.00     0.147 C 
HETATM   22  C   UNL     1     -40.725 -45.374  11.124  1.00  0.00     0.040 C 
BRANCH  21  23
HETATM   23  N   UNL     1     -41.971 -47.234   9.974  1.00  0.00    -0.357 N 
HETATM   24  H   UNL     1     -41.877 -48.224   9.791  1.00  0.00     0.162 HD
BRANCH  23  25
HETATM   25  C   UNL     1     -43.076 -46.663   9.394  1.00  0.00     0.349 C 
HETATM   26  O   UNL     1     -43.082 -45.811   8.520  1.00  0.00    -0.284 OA
ENDBRANCH  23  25
ENDBRANCH  21  23
ENDBRANCH   1  21
TORSDOF 7
ENDMDL
MODEL 3
REMARK VINA RESULT:      -6.5      2.957      4.841
REMARK  7 active torsions:
REMARK  status: ('A' for Active; 'I' for Inactive)
REMARK    1  A    between atoms: C_2  and  N_3 
REMARK    2  A    between atoms: C_2  and  C_6 
REMARK    3  A    between atoms: N_3  and  C_4 
REMARK    4  A    between atoms: N_15  and  C_16 
REMARK    5  A    between atoms: C_16  and  C_17 
REMARK    6  A    between atoms: C_17  and  O_18 
REMARK    7  A    between atoms: O_18  and  C_19 
ROOT
HETATM    1  C   UNL     1     -40.884 -48.444  11.541  1.00  0.00     0.107 A 
HETATM    2  N   UNL     1     -39.663 -48.524  11.046  1.00  0.00    -0.342 N 
ATOM      3  HN  UNL     1     -39.283 -47.982  10.270  1.00  0.00     0.167 HD
HETATM    4  C   UNL     1     -39.007 -49.471  11.776  1.00  0.00     0.060 A 
HETATM    5  C   UNL     1     -37.697 -49.951  11.611  1.00  0.00     0.032 A 
HETATM    6  C   UNL     1     -37.207 -50.929  12.482  1.00  0.00     0.002 A 
HETATM    7  C   UNL     1     -38.009 -51.418  13.502  1.00  0.00     0.002 A 
HETATM    8  C   UNL     1     -39.319 -50.956  13.673  1.00  0.00     0.032 A 
HETATM    9  C   UNL     1     -39.818 -49.977  12.791  1.00  0.00     0.062 A 
HETATM   10  N   UNL     1     -41.026 -49.309  12.628  1.00  0.00    -0.331 N 
ENDROOT
BRANCH  10  11
HETATM   11  C   UNL     1     -42.244 -49.440  13.416  1.00  0.00     0.157 C 
BRANCH  11  12
HETATM   12  C   UNL     1     -43.272 -50.447  12.932  1.00  0.00     0.196 C 
BRANCH  12  13
HETATM   13  O   UNL     1     -42.643 -51.650  12.489  1.00  0.00    -0.350 OA
BRANCH  13  14
HETATM   14  C   UNL     1     -43.153 -52.774  13.091  1.00  0.00     0.069 A 
HETATM   15  C   UNL     1     -44.413 -53.184  12.666  1.00  0.00     0.037 A 
HETATM   16  C   UNL     1     -45.007 -54.320  13.223  1.00  0.00     0.003 A 
HETATM   17  C   UNL     1     -44.351 -55.040  14.224  1.00  0.00     0.007 A 
HETATM   18  C   UNL     1     -43.100 -54.625  14.683  1.00  0.00    -0.059 A 
HETATM   19  C   UNL     1     -42.370 -55.361  15.767  1.00  0.00     0.048 C 
HETATM   20  C   UNL     1     -42.509 -53.490  14.108  1.00  0.00     0.043 A 
ENDBRANCH  13  14
ENDBRANCH  12  13
ENDBRANCH  11  12
ENDBRANCH  10  11
BRANCH   1  21
HETATM   21  C   UNL     1     -41.959 -47.577  10.911  1.00  0.00     0.147 C 
HETATM   22  C   UNL     1     -41.394 -46.184  10.623  1.00  0.00     0.040 C 
BRANCH  21  23
HETATM   23  N   UNL     1     -42.557 -48.245   9.766  1.00  0.00    -0.357 N 
HETATM   24  H   UNL     1     -42.852 -49.203   9.904  1.00  0.00     0.162 HD
BRANCH  23  25
HETATM   25  C   UNL     1     -43.277 -47.572   8.813  1.00  0.00     0.349 C 
HETATM   26  O   UNL     1     -43.468 -47.924   7.661  1.00  0.00    -0.284 OA
ENDBRANCH  23  25
ENDBRANCH  21  23
ENDBRANCH   1  21
TORSDOF 7
ENDMDL
MODEL 4
REMARK VINA RESULT:      -6.3      1.950      2.439
REMARK  7 active torsions:
REMARK  status: ('A' for Active; 'I' for Inactive)
REMARK    1  A    between atoms: C_2  and  N_3 
REMARK    2  A    between atoms: C_2  and  C_6 
REMARK    3  A    between atoms: N_3  and  C_4 
REMARK    4  A    between atoms: N_15  and  C_16 
REMARK    5  A    between atoms: C_16  and  C_17 
REMARK    6  A    between atoms: C_17  and  O_18 
REMARK    7  A    between atoms: O_18  and  C_19 
ROOT
HETATM    1  C   UNL     1     -39.666 -49.544  11.702  1.00  0.00     0.107 A 
HETATM    2  N   UNL     1     -39.560 -48.312  11.242  1.00  0.00    -0.342 N 
ATOM      3  HN  UNL     1     -38.697 -47.819  11.013  1.00  0.00     0.167 HD
HETATM    4  C   UNL     1     -40.829 -47.826  11.132  1.00  0.00     0.060 A 
HETATM    5  C   UNL     1     -41.245 -46.545  10.730  1.00  0.00     0.032 A 
HETATM    6  C   UNL     1     -42.610 -46.249  10.675  1.00  0.00     0.002 A 
HETATM    7  C   UNL     1     -43.546 -47.215  11.014  1.00  0.00     0.002 A 
HETATM    8  C   UNL     1     -43.148 -48.492  11.426  1.00  0.00     0.032 A 
HETATM    9  C   UNL     1     -41.772 -48.790  11.490  1.00  0.00     0.062 A 
HETATM   10  N   UNL     1     -41.009 -49.892  11.857  1.00  0.00    -0.331 N 
ENDROOT
BRANCH  10  11
HETATM   11  C   UNL     1     -41.469 -51.195  12.320  1.00  0.00     0.157 C 
BRANCH  11  12
HETATM   12  C   UNL     1     -41.889 -51.300  13.776  1.00  0.00     0.196 C 
BRANCH  12  13
HETATM   13  O   UNL     1     -42.758 -52.415  13.979  1.00  0.00    -0.350 OA
BRANCH  13  14
HETATM   14  C   UNL     1     -44.086 -52.066  13.974  1.00  0.00     0.069 A 
HETATM   15  C   UNL     1     -44.637 -51.710  15.202  1.00  0.00     0.037 A 
HETATM   16  C   UNL     1     -45.981 -51.338  15.287  1.00  0.00     0.003 A 
HETATM   17  C   UNL     1     -46.787 -51.340  14.147  1.00  0.00     0.007 A 
HETATM   18  C   UNL     1     -46.259 -51.722  12.913  1.00  0.00    -0.059 A 
HETATM   19  C   UNL     1     -47.096 -51.752  11.669  1.00  0.00     0.048 C 
HETATM   20  C   UNL     1     -44.905 -52.083  12.838  1.00  0.00     0.043 A 
ENDBRANCH  13  14
ENDBRANCH  12  13
ENDBRANCH  11  12
ENDBRANCH  10  11
BRANCH   1  21
HETATM   21  C   UNL     1     -38.453 -50.379  12.072  1.00  0.00     0.147 C 
HETATM   22  C   UNL     1     -37.284 -50.025  11.150  1.00  0.00     0.040 C 
BRANCH  21  23
HETATM   23  N   UNL     1     -38.167 -50.272  13.494  1.00  0.00    -0.357 N 
HETATM   24  H   UNL     1     -37.998 -51.137  13.988  1.00  0.00     0.162 HD
BRANCH  23  25
HETATM   25  C   UNL     1     -37.528 -49.186  14.037  1.00  0.00     0.349 C 
HETATM   26  O   UNL     1     -37.938 -48.037  14.063  1.00  0.00    -0.284 OA
ENDBRANCH  23  25
ENDBRANCH  21  23
ENDBRANCH   1  21
TORSDOF 7
ENDMDL
MODEL 5
REMARK VINA RESULT:      -6.3      3.300      4.611
REMARK  7 active torsions:
REMARK  status: ('A' for Active; 'I' for Inactive)
REMARK    1  A    between atoms: C_2  and  N_3 
REMARK    2  A    between atoms: C_2  and  C_6 
REMARK    3  A    between atoms: N_3  and  C_4 
REMARK    4  A    between atoms: N_15  and  C_16 
REMARK    5  A    between atoms: C_16  and  C_17 
REMARK    6  A    between atoms: C_17  and  O_18 
REMARK    7  A    between atoms: O_18  and  C_19 
ROOT
HETATM    1  C   UNL     1     -41.469 -47.616  11.249  1.00  0.00     0.107 A 
HETATM    2  N   UNL     1     -41.106 -46.462  11.776  1.00  0.00    -0.342 N 
ATOM      3  HN  UNL     1     -41.523 -45.550  11.592  1.00  0.00     0.167 HD
HETATM    4  C   UNL     1     -40.065 -46.726  12.616  1.00  0.00     0.060 A 
HETATM    5  C   UNL     1     -39.304 -45.824  13.378  1.00  0.00     0.032 A 
HETATM    6  C   UNL     1     -38.275 -46.306  14.192  1.00  0.00     0.002 A 
HETATM    7  C   UNL     1     -38.010 -47.666  14.247  1.00  0.00     0.002 A 
HETATM    8  C   UNL     1     -38.753 -48.577  13.487  1.00  0.00     0.032 A 
HETATM    9  C   UNL     1     -39.785 -48.092  12.659  1.00  0.00     0.062 A 
HETATM   10  N   UNL     1     -40.695 -48.655  11.772  1.00  0.00    -0.331 N 
ENDROOT
BRANCH  10  11
HETATM   11  C   UNL     1     -40.862 -50.058  11.418  1.00  0.00     0.157 C 
BRANCH  11  12
HETATM   12  C   UNL     1     -41.533 -50.953  12.444  1.00  0.00     0.196 C 
BRANCH  12  13
HETATM   13  O   UNL     1     -41.818 -52.240  11.893  1.00  0.00    -0.350 OA
BRANCH  13  14
HETATM   14  C   UNL     1     -42.300 -53.126  12.825  1.00  0.00     0.069 A 
HETATM   15  C   UNL     1     -41.395 -53.567  13.785  1.00  0.00     0.037 A 
HETATM   16  C   UNL     1     -41.801 -54.467  14.773  1.00  0.00     0.003 A 
HETATM   17  C   UNL     1     -43.113 -54.947  14.793  1.00  0.00     0.007 A 
HETATM   18  C   UNL     1     -44.026 -54.539  13.820  1.00  0.00    -0.059 A 
HETATM   19  C   UNL     1     -45.438 -55.044  13.799  1.00  0.00     0.048 C 
HETATM   20  C   UNL     1     -43.609 -53.626  12.840  1.00  0.00     0.043 A 
ENDBRANCH  13  14
ENDBRANCH  12  13
ENDBRANCH  11  12
ENDBRANCH  10  11
BRANCH   1  21
HETATM   21  C   UNL     1     -42.527 -47.716  10.165  1.00  0.00     0.147 C 
HETATM   22  C   UNL     1     -43.911 -47.839  10.806  1.00  0.00     0.040 C 
BRANCH  21  23
HETATM   23  N   UNL     1     -42.389 -46.630   9.207  1.00  0.00    -0.357 N 
HETATM   24  H   UNL     1     -41.607 -46.686   8.568  1.00  0.00     0.162 HD
BRANCH  23  25
HETATM   25  C   UNL     1     -43.469 -45.945   8.709  1.00  0.00     0.349 C 
HETATM   26  O   UNL     1     -43.799 -44.805   8.987  1.00  0.00    -0.284 OA
ENDBRANCH  23  25
ENDBRANCH  21  23
ENDBRANCH   1  21
TORSDOF 7
ENDMDL
MODEL 6
REMARK VINA RESULT:      -6.1      3.166      4.855
REMARK  7 active torsions:
REMARK  status: ('A' for Active; 'I' for Inactive)
REMARK    1  A    between atoms: C_2  and  N_3 
REMARK    2  A    between atoms: C_2  and  C_6 
REMARK    3  A    between atoms: N_3  and  C_4 
REMARK    4  A    between atoms: N_15  and  C_16 
REMARK    5  A    between atoms: C_16  and  C_17 
REMARK    6  A    between atoms: C_17  and  O_18 
REMARK    7  A    between atoms: O_18  and  C_19 
ROOT
HETATM    1  C   UNL     1     -39.884 -52.965  14.047  1.00  0.00     0.107 A 
HETATM    2  N   UNL     1     -38.936 -52.298  14.678  1.00  0.00    -0.342 N 
ATOM      3  HN  UNL     1     -38.443 -52.591  15.521  1.00  0.00     0.167 HD
HETATM    4  C   UNL     1     -38.743 -51.141  13.983  1.00  0.00     0.060 A 
HETATM    5  C   UNL     1     -37.872 -50.078  14.277  1.00  0.00     0.032 A 
HETATM    6  C   UNL     1     -37.819 -48.974  13.420  1.00  0.00     0.002 A 
HETATM    7  C   UNL     1     -38.618 -48.932  12.288  1.00  0.00     0.002 A 
HETATM    8  C   UNL     1     -39.497 -49.979  11.987  1.00  0.00     0.032 A 
HETATM    9  C   UNL     1     -39.559 -51.089  12.853  1.00  0.00     0.062 A 
HETATM   10  N   UNL     1     -40.291 -52.269  12.907  1.00  0.00    -0.331 N 
ENDROOT
BRANCH  10  11
HETATM   11  C   UNL     1     -41.304 -52.746  11.974  1.00  0.00     0.157 C 
BRANCH  11  12
HETATM   12  C   UNL     1     -42.756 -52.543  12.369  1.00  0.00     0.196 C 
BRANCH  12  13
HETATM   13  O   UNL     1     -42.864 -51.654  13.482  1.00  0.00    -0.350 OA
BRANCH  13  14
HETATM   14  C   UNL     1     -44.149 -51.544  13.955  1.00  0.00     0.069 A 
HETATM   15  C   UNL     1     -45.168 -51.746  13.030  1.00  0.00     0.037 A 
HETATM   16  C   UNL     1     -46.505 -51.655  13.426  1.00  0.00     0.003 A 
HETATM   17  C   UNL     1     -46.829 -51.342  14.748  1.00  0.00     0.007 A 
HETATM   18  C   UNL     1     -45.820 -51.107  15.682  1.00  0.00    -0.059 A 
HETATM   19  C   UNL     1     -46.127 -50.753  17.107  1.00  0.00     0.048 C 
HETATM   20  C   UNL     1     -44.481 -51.212  15.275  1.00  0.00     0.043 A 
ENDBRANCH  13  14
ENDBRANCH  12  13
ENDBRANCH  11  12
ENDBRANCH  10  11
BRANCH   1  21
HETATM   21  C   UNL     1     -40.465 -54.258  14.589  1.00  0.00     0.147 C 
HETATM   22  C   UNL     1     -39.371 -55.053  15.306  1.00  0.00     0.040 C 
BRANCH  21  23
HETATM   23  N   UNL     1     -41.654 -53.997  15.383  1.00  0.00    -0.357 N 
HETATM   24  H   UNL     1     -41.851 -53.029  15.601  1.00  0.00     0.162 HD
BRANCH  23  25
HETATM   25  C   UNL     1     -42.771 -54.792  15.322  1.00  0.00     0.349 C 
HETATM   26  O   UNL     1     -42.860 -55.953  15.686  1.00  0.00    -0.284 OA
ENDBRANCH  23  25
ENDBRANCH  21  23
ENDBRANCH   1  21
TORSDOF 7
ENDMDL
MODEL 7
REMARK VINA RESULT:      -6.1      3.227      5.119
REMARK  7 active torsions:
REMARK  status: ('A' for Active; 'I' for Inactive)
REMARK    1  A    between atoms: C_2  and  N_3 
REMARK    2  A    between atoms: C_2  and  C_6 
REMARK    3  A    between atoms: N_3  and  C_4 
REMARK    4  A    between atoms: N_15  and  C_16 
REMARK    5  A    between atoms: C_16  and  C_17 
REMARK    6  A    between atoms: C_17  and  O_18 
REMARK    7  A    between atoms: O_18  and  C_19 
ROOT
HETATM    1  C   UNL     1     -39.952 -47.822  12.092  1.00  0.00     0.107 A 
HETATM    2  N   UNL     1     -39.320 -47.123  13.016  1.00  0.00    -0.342 N 
ATOM      3  HN  UNL     1     -39.400 -46.120  13.182  1.00  0.00     0.167 HD
HETATM    4  C   UNL     1     -38.540 -48.003  13.707  1.00  0.00     0.060 A 
HETATM    5  C   UNL     1     -37.646 -47.742  14.759  1.00  0.00     0.032 A 
HETATM    6  C   UNL     1     -36.942 -48.799  15.343  1.00  0.00     0.002 A 
HETATM    7  C   UNL     1     -37.128 -50.095  14.888  1.00  0.00     0.002 A 
HETATM    8  C   UNL     1     -38.008 -50.370  13.835  1.00  0.00     0.032 A 
HETATM    9  C   UNL     1     -38.713 -49.306  13.239  1.00  0.00     0.062 A 
HETATM   10  N   UNL     1     -39.623 -49.176  12.196  1.00  0.00    -0.331 N 
ENDROOT
BRANCH  10  11
HETATM   11  C   UNL     1     -40.172 -50.219  11.341  1.00  0.00     0.157 C 
BRANCH  11  12
HETATM   12  C   UNL     1     -41.033 -51.276  12.009  1.00  0.00     0.196 C 
BRANCH  12  13
HETATM   13  O   UNL     1     -40.332 -52.517  12.116  1.00  0.00    -0.350 OA
BRANCH  13  14
HETATM   14  C   UNL     1     -40.761 -53.285  13.170  1.00  0.00     0.069 A 
HETATM   15  C   UNL     1     -39.788 -53.682  14.082  1.00  0.00     0.037 A 
HETATM   16  C   UNL     1     -40.137 -54.463  15.186  1.00  0.00     0.003 A 
HETATM   17  C   UNL     1     -41.460 -54.869  15.373  1.00  0.00     0.007 A 
HETATM   18  C   UNL     1     -42.444 -54.506  14.452  1.00  0.00    -0.059 A 
HETATM   19  C   UNL     1     -43.872 -54.935  14.608  1.00  0.00     0.048 C 
HETATM   20  C   UNL     1     -42.083 -53.712  13.353  1.00  0.00     0.043 A 
ENDBRANCH  13  14
ENDBRANCH  12  13
ENDBRANCH  11  12
ENDBRANCH  10  11
BRANCH   1  21
HETATM   21  C   UNL     1     -40.829 -47.169  11.039  1.00  0.00     0.147 C 
HETATM   22  C   UNL     1     -42.119 -46.661  11.687  1.00  0.00     0.040 C 
BRANCH  21  23
HETATM   23  N   UNL     1     -40.082 -46.170  10.292  1.00  0.00    -0.357 N 
HETATM   24  H   UNL     1     -39.945 -46.349   9.307  1.00  0.00     0.162 HD
BRANCH  23  25
HETATM   25  C   UNL     1     -40.105 -44.837  10.618  1.00  0.00     0.349 C 
HETATM   26  O   UNL     1     -39.533 -44.306  11.555  1.00  0.00    -0.284 OA
ENDBRANCH  23  25
ENDBRANCH  21  23
ENDBRANCH   1  21
TORSDOF 7
ENDMDL
MODEL 8
REMARK VINA RESULT:      -6.0      1.787      2.512
REMARK  7 active torsions:
REMARK  status: ('A' for Active; 'I' for Inactive)
REMARK    1  A    between atoms: C_2  and  N_3 
REMARK    2  A    between atoms: C_2  and  C_6 
REMARK    3  A    between atoms: N_3  and  C_4 
REMARK    4  A    between atoms: N_15  and  C_16 
REMARK    5  A    between atoms: C_16  and  C_17 
REMARK    6  A    between atoms: C_17  and  O_18 
REMARK    7  A    between atoms: O_18  and  C_19 
ROOT
HETATM    1  C   UNL     1     -39.800 -48.382  11.645  1.00  0.00     0.107 A 
HETATM    2  N   UNL     1     -39.873 -47.193  11.078  1.00  0.00    -0.342 N 
ATOM      3  HN  UNL     1     -39.102 -46.542  10.926  1.00  0.00     0.167 HD
HETATM    4  C   UNL     1     -41.178 -47.004  10.732  1.00  0.00     0.060 A 
HETATM    5  C   UNL     1     -41.772 -45.877  10.139  1.00  0.00     0.032 A 
HETATM    6  C   UNL     1     -43.141 -45.890   9.853  1.00  0.00     0.002 A 
HETATM    7  C   UNL     1     -43.904 -47.009  10.152  1.00  0.00     0.002 A 
HETATM    8  C   UNL     1     -43.329 -48.135  10.751  1.00  0.00     0.032 A 
HETATM    9  C   UNL     1     -41.951 -48.121  11.047  1.00  0.00     0.062 A 
HETATM   10  N   UNL     1     -41.052 -49.002  11.638  1.00  0.00    -0.331 N 
ENDROOT
BRANCH  10  11
HETATM   11  C   UNL     1     -41.308 -50.336  12.164  1.00  0.00     0.157 C 
BRANCH  11  12
HETATM   12  C   UNL     1     -42.154 -50.430  13.421  1.00  0.00     0.196 C 
BRANCH  12  13
HETATM   13  O   UNL     1     -42.846 -51.679  13.481  1.00  0.00    -0.350 OA
BRANCH  13  14
HETATM   14  C   UNL     1     -44.137 -51.554  13.930  1.00  0.00     0.069 A 
HETATM   15  C   UNL     1     -45.141 -51.747  12.986  1.00  0.00     0.037 A 
HETATM   16  C   UNL     1     -46.484 -51.642  13.357  1.00  0.00     0.003 A 
HETATM   17  C   UNL     1     -46.830 -51.322  14.672  1.00  0.00     0.007 A 
HETATM   18  C   UNL     1     -45.836 -51.095  15.624  1.00  0.00    -0.059 A 
HETATM   19  C   UNL     1     -46.165 -50.734  17.042  1.00  0.00     0.048 C 
HETATM   20  C   UNL     1     -44.491 -51.215  15.242  1.00  0.00     0.043 A 
ENDBRANCH  13  14
ENDBRANCH  12  13
ENDBRANCH  11  12
ENDBRANCH  10  11
BRANCH   1  21
HETATM   21  C   UNL     1     -38.522 -48.903  12.276  1.00  0.00     0.147 C 
HETATM   22  C   UNL     1     -38.646 -48.862  13.800  1.00  0.00     0.040 C 
BRANCH  21  23
HETATM   23  N   UNL     1     -38.165 -50.201  11.724  1.00  0.00    -0.357 N 
HETATM   24  H   UNL     1     -37.917 -50.223  10.744  1.00  0.00     0.162 HD
BRANCH  23  25
HETATM   25  C   UNL     1     -37.565 -51.181  12.473  1.00  0.00     0.349 C 
HETATM   26  O   UNL     1     -36.740 -51.991  12.086  1.00  0.00    -0.284 OA
ENDBRANCH  23  25
ENDBRANCH  21  23
ENDBRANCH   1  21
TORSDOF 7
ENDMDL
MODEL 9
REMARK VINA RESULT:      -5.9      3.177      5.889
REMARK  7 active torsions:
REMARK  status: ('A' for Active; 'I' for Inactive)
REMARK    1  A    between atoms: C_2  and  N_3 
REMARK    2  A    between atoms: C_2  and  C_6 
REMARK    3  A    between atoms: N_3  and  C_4 
REMARK    4  A    between atoms: N_15  and  C_16 
REMARK    5  A    between atoms: C_16  and  C_17 
REMARK    6  A    between atoms: C_17  and  O_18 
REMARK    7  A    between atoms: O_18  and  C_19 
ROOT
HETATM    1  C   UNL     1     -40.413 -50.883  13.047  1.00  0.00     0.107 A 
HETATM    2  N   UNL     1     -40.120 -52.167  13.122  1.00  0.00    -0.342 N 
ATOM      3  HN  UNL     1     -39.245 -52.610  12.841  1.00  0.00     0.167 HD
HETATM    4  C   UNL     1     -41.214 -52.788  13.650  1.00  0.00     0.060 A 
HETATM    5  C   UNL     1     -41.413 -54.158  13.887  1.00  0.00     0.032 A 
HETATM    6  C   UNL     1     -42.617 -54.592  14.451  1.00  0.00     0.002 A 
HETATM    7  C   UNL     1     -43.604 -53.673  14.776  1.00  0.00     0.002 A 
HETATM    8  C   UNL     1     -43.424 -52.306  14.537  1.00  0.00     0.032 A 
HETATM    9  C   UNL     1     -42.215 -51.868  13.961  1.00  0.00     0.062 A 
HETATM   10  N   UNL     1     -41.688 -50.644  13.565  1.00  0.00    -0.331 N 
ENDROOT
BRANCH  10  11
HETATM   11  C   UNL     1     -42.302 -49.326  13.654  1.00  0.00     0.157 C 
BRANCH  11  12
HETATM   12  C   UNL     1     -43.178 -48.894  12.492  1.00  0.00     0.196 C 
BRANCH  12  13
HETATM   13  O   UNL     1     -42.553 -47.856  11.735  1.00  0.00    -0.350 OA
BRANCH  13  14
HETATM   14  C   UNL     1     -43.373 -47.331  10.767  1.00  0.00     0.069 A 
HETATM   15  C   UNL     1     -42.962 -46.131  10.194  1.00  0.00     0.037 A 
HETATM   16  C   UNL     1     -43.736 -45.528   9.199  1.00  0.00     0.003 A 
HETATM   17  C   UNL     1     -44.936 -46.112   8.787  1.00  0.00     0.007 A 
HETATM   18  C   UNL     1     -45.378 -47.298   9.373  1.00  0.00    -0.059 A 
HETATM   19  C   UNL     1     -46.668 -47.948   8.969  1.00  0.00     0.048 C 
HETATM   20  C   UNL     1     -44.587 -47.901  10.363  1.00  0.00     0.043 A 
ENDBRANCH  13  14
ENDBRANCH  12  13
ENDBRANCH  11  12
ENDBRANCH  10  11
BRANCH   1  21
HETATM   21  C   UNL     1     -39.484 -49.876  12.394  1.00  0.00     0.147 C 
HETATM   22  C   UNL     1     -38.842 -48.997  13.469  1.00  0.00     0.040 C 
BRANCH  21  23
HETATM   23  N   UNL     1     -38.546 -50.540  11.503  1.00  0.00    -0.357 N 
HETATM   24  H   UNL     1     -38.674 -50.384  10.512  1.00  0.00     0.162 HD
BRANCH  23  25
HETATM   25  C   UNL     1     -37.248 -50.803  11.863  1.00  0.00     0.349 C 
HETATM   26  O   UNL     1     -36.707 -51.896  11.892  1.00  0.00    -0.284 OA
ENDBRANCH  23  25
ENDBRANCH  21  23
ENDBRANCH   1  21
TORSDOF 7
ENDMDL
