MODEL 1
REMARK VINA RESULT:      -4.7      0.000      0.000
REMARK  1 active torsions:
REMARK  status: ('A' for Active; 'I' for Inactive)
REMARK    1  A    between atoms: N_11  and  C_14 
ROOT
HETATM    1  C   UNL     3     -30.341 -63.553  15.551  1.00  0.00     0.090 C 
HETATM    2  C   UNL     3     -28.877 -63.275  15.457  1.00  0.00     0.093 A 
HETATM    3  N   UNL     3     -28.360 -62.038  15.581  1.00  0.00    -0.334 N 
ATOM      4  HN  UNL     3     -28.851 -61.159  15.744  1.00  0.00     0.168 HD
HETATM    5  C   UNL     3     -27.040 -62.246  15.436  1.00  0.00     0.096 A 
HETATM    6  C   UNL     3     -26.015 -61.163  15.528  1.00  0.00     0.091 C 
HETATM    7  N   UNL     3     -26.772 -63.552  15.239  1.00  0.00    -0.271 N 
HETATM    8  N   UNL     3     -27.919 -64.212  15.256  1.00  0.00    -0.285 N 
ATOM      9  HN  UNL     3     -28.054 -65.216  15.141  1.00  0.00     0.188 HD
ENDROOT
BRANCH   7  10
HETATM   10  C   UNL     3     -25.430 -64.127  15.085  1.00  0.00     0.165 C 
HETATM   11  C   UNL     3     -25.330 -65.345  14.187  1.00  0.00     0.298 C 
HETATM   12  N   UNL     3     -24.455 -66.035  15.144  1.00  0.00     0.087 N 
HETATM   13  C   UNL     3     -24.902 -65.067  16.154  1.00  0.00     0.298 C 
HETATM   14  H   UNL     3     -23.469 -65.791  14.885  1.00  0.00     0.316 HD
ENDBRANCH   7  10
TORSDOF 1
ENDMDL
MODEL 2
REMARK VINA RESULT:      -4.5     20.984     23.341
REMARK  1 active torsions:
REMARK  status: ('A' for Active; 'I' for Inactive)
REMARK    1  A    between atoms: N_11  and  C_14 
ROOT
HETATM    1  C   UNL     3     -39.891 -49.450  11.508  1.00  0.00     0.090 C 
HETATM    2  C   UNL     3     -40.850 -48.415  11.018  1.00  0.00     0.093 A 
HETATM    3  N   UNL     3     -40.947 -47.192  11.572  1.00  0.00    -0.334 N 
ATOM      4  HN  UNL     3     -40.423 -46.807  12.357  1.00  0.00     0.168 HD
HETATM    5  C   UNL     3     -41.905 -46.603  10.835  1.00  0.00     0.096 A 
HETATM    6  C   UNL     3     -42.361 -45.195  11.041  1.00  0.00     0.091 C 
HETATM    7  N   UNL     3     -42.361 -47.433   9.876  1.00  0.00    -0.271 N 
HETATM    8  N   UNL     3     -41.701 -48.575   9.976  1.00  0.00    -0.285 N 
ATOM      9  HN  UNL     3     -41.809 -49.403   9.391  1.00  0.00     0.188 HD
ENDROOT
BRANCH   7  10
HETATM   10  C   UNL     3     -43.378 -47.090   8.874  1.00  0.00     0.165 C 
HETATM   11  C   UNL     3     -44.794 -47.536   9.189  1.00  0.00     0.298 C 
HETATM   12  N   UNL     3     -44.999 -48.010   7.814  1.00  0.00     0.087 N 
HETATM   13  C   UNL     3     -43.539 -47.977   7.652  1.00  0.00     0.298 C 
HETATM   14  H   UNL     3     -45.396 -47.206   7.270  1.00  0.00     0.316 HD
ENDBRANCH   7  10
TORSDOF 1
ENDMDL
MODEL 3
REMARK VINA RESULT:      -4.3     21.579     23.530
REMARK  1 active torsions:
REMARK  status: ('A' for Active; 'I' for Inactive)
REMARK    1  A    between atoms: N_11  and  C_14 
ROOT
HETATM    1  C   UNL     3     -43.829 -47.824   8.041  1.00  0.00     0.090 C 
HETATM    2  C   UNL     3     -42.840 -47.511   9.115  1.00  0.00     0.093 A 
HETATM    3  N   UNL     3     -42.316 -48.454   9.920  1.00  0.00    -0.334 N 
ATOM      4  HN  UNL     3     -42.500 -49.457   9.927  1.00  0.00     0.168 HD
HETATM    5  C   UNL     3     -41.492 -47.749  10.715  1.00  0.00     0.096 A 
HETATM    6  C   UNL     3     -40.639 -48.362  11.777  1.00  0.00     0.091 C 
HETATM    7  N   UNL     3     -41.514 -46.439  10.399  1.00  0.00    -0.271 N 
HETATM    8  N   UNL     3     -42.353 -46.277   9.389  1.00  0.00    -0.285 N 
ATOM      9  HN  UNL     3     -42.586 -45.404   8.915  1.00  0.00     0.188 HD
ENDROOT
BRANCH   7  10
HETATM   10  C   UNL     3     -40.702 -45.399  11.043  1.00  0.00     0.165 C 
HETATM   11  C   UNL     3     -41.393 -44.070  11.277  1.00  0.00     0.298 C 
HETATM   12  N   UNL     3     -40.219 -43.325  10.804  1.00  0.00     0.087 N 
HETATM   13  C   UNL     3     -39.749 -44.576  10.194  1.00  0.00     0.298 C 
HETATM   14  H   UNL     3     -39.619 -43.136  11.643  1.00  0.00     0.316 HD
ENDBRANCH   7  10
TORSDOF 1
ENDMDL
MODEL 4
REMARK VINA RESULT:      -4.3     21.289     23.484
REMARK  1 active torsions:
REMARK  status: ('A' for Active; 'I' for Inactive)
REMARK    1  A    between atoms: N_11  and  C_14 
ROOT
HETATM    1  C   UNL     3     -39.640 -44.601  10.770  1.00  0.00     0.090 C 
HETATM    2  C   UNL     3     -40.462 -45.844  10.659  1.00  0.00     0.093 A 
HETATM    3  N   UNL     3     -40.174 -46.970  11.339  1.00  0.00    -0.334 N 
ATOM      4  HN  UNL     3     -39.406 -47.141  11.988  1.00  0.00     0.168 HD
HETATM    5  C   UNL     3     -41.148 -47.812  10.953  1.00  0.00     0.096 A 
HETATM    6  C   UNL     3     -41.289 -49.208  11.466  1.00  0.00     0.091 C 
HETATM    7  N   UNL     3     -41.988 -47.219  10.083  1.00  0.00    -0.271 N 
HETATM    8  N   UNL     3     -41.571 -45.977   9.894  1.00  0.00    -0.285 N 
ATOM      9  HN  UNL     3     -41.996 -45.268   9.297  1.00  0.00     0.188 HD
ENDROOT
BRANCH   7  10
HETATM   10  C   UNL     3     -43.181 -47.844   9.498  1.00  0.00     0.165 C 
HETATM   11  C   UNL     3     -43.517 -47.429   8.078  1.00  0.00     0.298 C 
HETATM   12  N   UNL     3     -44.942 -47.293   8.406  1.00  0.00     0.087 N 
HETATM   13  C   UNL     3     -44.550 -47.270   9.821  1.00  0.00     0.298 C 
HETATM   14  H   UNL     3     -45.388 -48.223   8.216  1.00  0.00     0.316 HD
ENDBRANCH   7  10
TORSDOF 1
ENDMDL
MODEL 5
REMARK VINA RESULT:      -4.1     18.796     21.297
REMARK  1 active torsions:
REMARK  status: ('A' for Active; 'I' for Inactive)
REMARK    1  A    between atoms: N_11  and  C_14 
ROOT
HETATM    1  C   UNL     3     -47.557 -51.776  11.198  1.00  0.00     0.090 C 
HETATM    2  C   UNL     3     -46.488 -51.830  12.239  1.00  0.00     0.093 A 
HETATM    3  N   UNL     3     -46.647 -51.317  13.473  1.00  0.00    -0.334 N 
ATOM      4  HN  UNL     3     -47.461 -50.842  13.864  1.00  0.00     0.168 HD
HETATM    5  C   UNL     3     -45.469 -51.583  14.064  1.00  0.00     0.096 A 
HETATM    6  C   UNL     3     -45.155 -51.233  15.483  1.00  0.00     0.091 C 
HETATM    7  N   UNL     3     -44.639 -52.232  13.225  1.00  0.00    -0.271 N 
HETATM    8  N   UNL     3     -45.270 -52.400  12.074  1.00  0.00    -0.285 N 
ATOM      9  HN  UNL     3     -44.915 -52.862  11.238  1.00  0.00     0.188 HD
ENDROOT
BRANCH   7  10
HETATM   10  C   UNL     3     -43.291 -52.706  13.565  1.00  0.00     0.165 C 
HETATM   11  C   UNL     3     -42.245 -52.565  12.476  1.00  0.00     0.298 C 
HETATM   12  N   UNL     3     -41.729 -53.916  12.733  1.00  0.00     0.087 N 
HETATM   13  C   UNL     3     -42.980 -54.188  13.454  1.00  0.00     0.298 C 
HETATM   14  H   UNL     3     -40.967 -53.820  13.447  1.00  0.00     0.316 HD
ENDBRANCH   7  10
TORSDOF 1
ENDMDL
MODEL 6
REMARK VINA RESULT:      -4.1     17.824     20.342
REMARK  1 active torsions:
REMARK  status: ('A' for Active; 'I' for Inactive)
REMARK    1  A    between atoms: N_11  and  C_14 
ROOT
HETATM    1  C   UNL     3     -47.066 -51.758  11.840  1.00  0.00     0.090 C 
HETATM    2  C   UNL     3     -45.911 -52.438  12.499  1.00  0.00     0.093 A 
HETATM    3  N   UNL     3     -46.055 -53.521  13.285  1.00  0.00    -0.334 N 
ATOM      4  HN  UNL     3     -46.913 -54.012  13.539  1.00  0.00     0.168 HD
HETATM    5  C   UNL     3     -44.792 -53.797  13.654  1.00  0.00     0.096 A 
HETATM    6  C   UNL     3     -44.415 -54.954  14.521  1.00  0.00     0.091 C 
HETATM    7  N   UNL     3     -43.924 -52.922  13.110  1.00  0.00    -0.271 N 
HETATM    8  N   UNL     3     -44.614 -52.065  12.376  1.00  0.00    -0.285 N 
ATOM      9  HN  UNL     3     -44.247 -51.285  11.830  1.00  0.00     0.188 HD
ENDROOT
BRANCH   7  10
HETATM   10  C   UNL     3     -42.466 -52.962  13.276  1.00  0.00     0.165 C 
HETATM   11  C   UNL     3     -41.654 -52.373  12.138  1.00  0.00     0.298 C 
HETATM   12  N   UNL     3     -40.712 -53.500  12.167  1.00  0.00     0.087 N 
HETATM   13  C   UNL     3     -41.719 -54.240  12.939  1.00  0.00     0.298 C 
HETATM   14  H   UNL     3     -39.940 -53.235  12.826  1.00  0.00     0.316 HD
ENDBRANCH   7  10
TORSDOF 1
ENDMDL
MODEL 7
REMARK VINA RESULT:      -4.1     20.300     22.621
REMARK  1 active torsions:
REMARK  status: ('A' for Active; 'I' for Inactive)
REMARK    1  A    between atoms: N_11  and  C_14 
ROOT
HETATM    1  C   UNL     3     -39.823 -50.234  11.819  1.00  0.00     0.090 C 
HETATM    2  C   UNL     3     -40.597 -49.067  11.301  1.00  0.00     0.093 A 
HETATM    3  N   UNL     3     -41.887 -49.157  10.925  1.00  0.00    -0.334 N 
ATOM      4  HN  UNL     3     -42.494 -49.976  10.931  1.00  0.00     0.168 HD
HETATM    5  C   UNL     3     -42.177 -47.902  10.540  1.00  0.00     0.096 A 
HETATM    6  C   UNL     3     -43.525 -47.473  10.059  1.00  0.00     0.091 C 
HETATM    7  N   UNL     3     -41.111 -47.090  10.682  1.00  0.00    -0.271 N 
HETATM    8  N   UNL     3     -40.112 -47.809  11.167  1.00  0.00    -0.285 N 
ATOM      9  HN  UNL     3     -39.172 -47.485  11.392  1.00  0.00     0.188 HD
ENDROOT
BRANCH   7  10
HETATM   10  C   UNL     3     -41.099 -45.651  10.392  1.00  0.00     0.165 C 
HETATM   11  C   UNL     3     -39.728 -45.011  10.280  1.00  0.00     0.298 C 
HETATM   12  N   UNL     3     -40.152 -43.856  11.082  1.00  0.00     0.087 N 
HETATM   13  C   UNL     3     -41.292 -44.666  11.532  1.00  0.00     0.298 C 
HETATM   14  H   UNL     3     -40.519 -43.137  10.413  1.00  0.00     0.316 HD
ENDBRANCH   7  10
TORSDOF 1
ENDMDL
MODEL 8
REMARK VINA RESULT:      -3.9     18.969     21.513
REMARK  1 active torsions:
REMARK  status: ('A' for Active; 'I' for Inactive)
REMARK    1  A    between atoms: N_11  and  C_14 
ROOT
HETATM    1  C   UNL     3     -46.160 -50.870  16.643  1.00  0.00     0.090 C 
HETATM    2  C   UNL     3     -45.933 -51.407  15.268  1.00  0.00     0.093 A 
HETATM    3  N   UNL     3     -46.815 -51.238  14.265  1.00  0.00    -0.334 N 
ATOM      4  HN  UNL     3     -47.713 -50.755  14.284  1.00  0.00     0.168 HD
HETATM    5  C   UNL     3     -46.222 -51.863  13.233  1.00  0.00     0.096 A 
HETATM    6  C   UNL     3     -46.803 -51.928  11.858  1.00  0.00     0.091 C 
HETATM    7  N   UNL     3     -45.033 -52.382  13.597  1.00  0.00    -0.271 N 
HETATM    8  N   UNL     3     -44.836 -52.096  14.874  1.00  0.00    -0.285 N 
ATOM      9  HN  UNL     3     -44.026 -52.343  15.443  1.00  0.00     0.188 HD
ENDROOT
BRANCH   7  10
HETATM   10  C   UNL     3     -44.110 -53.092  12.703  1.00  0.00     0.165 C 
HETATM   11  C   UNL     3     -43.294 -54.202  13.339  1.00  0.00     0.298 C 
HETATM   12  N   UNL     3     -42.073 -53.757  12.655  1.00  0.00     0.087 N 
HETATM   13  C   UNL     3     -42.753 -52.480  12.404  1.00  0.00     0.298 C 
HETATM   14  H   UNL     3     -42.027 -54.276  11.744  1.00  0.00     0.316 HD
ENDBRANCH   7  10
TORSDOF 1
ENDMDL
MODEL 9
REMARK VINA RESULT:      -3.9     18.456     21.037
REMARK  1 active torsions:
REMARK  status: ('A' for Active; 'I' for Inactive)
REMARK    1  A    between atoms: N_11  and  C_14 
ROOT
HETATM    1  C   UNL     3     -37.502 -49.825  11.362  1.00  0.00     0.090 C 
HETATM    2  C   UNL     3     -38.989 -49.889  11.489  1.00  0.00     0.093 A 
HETATM    3  N   UNL     3     -39.635 -50.977  11.949  1.00  0.00    -0.334 N 
ATOM      4  HN  UNL     3     -39.241 -51.866  12.258  1.00  0.00     0.168 HD
HETATM    5  C   UNL     3     -40.926 -50.605  11.900  1.00  0.00     0.096 A 
HETATM    6  C   UNL     3     -42.056 -51.474  12.347  1.00  0.00     0.091 C 
HETATM    7  N   UNL     3     -41.052 -49.347  11.436  1.00  0.00    -0.271 N 
HETATM    8  N   UNL     3     -39.840 -48.882  11.180  1.00  0.00    -0.285 N 
ATOM      9  HN  UNL     3     -39.597 -47.958  10.823  1.00  0.00     0.188 HD
ENDROOT
BRANCH   7  10
HETATM   10  C   UNL     3     -42.320 -48.620  11.296  1.00  0.00     0.165 C 
HETATM   11  C   UNL     3     -42.235 -47.265  10.619  1.00  0.00     0.298 C 
HETATM   12  N   UNL     3     -43.121 -46.658  11.621  1.00  0.00     0.087 N 
HETATM   13  C   UNL     3     -42.849 -47.822  12.475  1.00  0.00     0.298 C 
HETATM   14  H   UNL     3     -44.101 -46.753  11.260  1.00  0.00     0.316 HD
ENDBRANCH   7  10
TORSDOF 1
ENDMDL
