MODEL 1
REMARK VINA RESULT:      -5.9      0.000      0.000
REMARK  5 active torsions:
REMARK  status: ('A' for Active; 'I' for Inactive)
REMARK    1  A    between atoms: C_2  and  S_3 
REMARK    2  A    between atoms: S_3  and  C_4 
REMARK    3  A    between atoms: C_8  and  N_9 
REMARK       I    between atoms: N_9  and  C_10 
REMARK       I    between atoms: C_10  and  N_12 
REMARK    4  A    between atoms: N_12  and  C_13 
REMARK    5  A    between atoms: N_17  and  C_19 
ROOT
HETATM    1  N   UNL     1     -42.888 -50.959  12.460  1.00  0.00    -0.337 N 
HETATM    2  C   UNL     1     -42.646 -49.621  12.290  1.00  0.00     0.321 C 
HETATM    3  O   UNL     1     -43.061 -48.774  13.070  1.00  0.00    -0.247 OA
HETATM    4  N   UNL     1     -41.925 -49.309  11.159  1.00  0.00    -0.306 N 
HETATM    5  H   UNL     1     -42.324 -51.601  11.920  1.00  0.00     0.164 HD
HETATM    6  H   UNL     1     -41.786 -50.004  10.442  1.00  0.00     0.171 HD
ENDROOT
BRANCH   1   7
HETATM    7  C   UNL     1     -43.653 -51.542  13.577  1.00  0.00     0.100 C 
HETATM    8  C   UNL     1     -43.510 -53.079  13.654  1.00  0.00     0.070 C 
HETATM    9  C   UNL     1     -44.499 -53.598  12.597  1.00  0.00     0.017 C 
HETATM   10  C   UNL     1     -45.597 -52.532  12.516  1.00  0.00     0.003 C 
HETATM   11  C   UNL     1     -45.186 -51.450  13.516  1.00  0.00     0.026 C 
BRANCH   8  12
HETATM   12  S   UNL     1     -41.844 -53.784  13.426  1.00  0.00    -0.163 SA
BRANCH  12  13
HETATM   13  C   UNL     1     -41.551 -54.523  15.068  1.00  0.00     0.070 C 
HETATM   14  C   UNL     1     -42.706 -55.357  15.594  1.00  0.00     0.016 C 
ENDBRANCH  12  13
ENDBRANCH   8  12
ENDBRANCH   1   7
BRANCH   4  15
HETATM   15  C   UNL     1     -41.659 -47.978  10.849  1.00  0.00     0.070 A 
HETATM   16  C   UNL     1     -42.334 -47.104   9.961  1.00  0.00     0.138 A 
HETATM   17  N   UNL     1     -41.757 -45.907   9.870  1.00  0.00    -0.307 N 
HETATM   18  N   UNL     1     -40.678 -46.027  10.665  1.00  0.00    -0.297 N 
ATOM     19  HN  UNL     1     -42.059 -45.097   9.329  1.00  0.00     0.186 HD
HETATM   20  C   UNL     1     -40.617 -47.222  11.337  1.00  0.00     0.141 A 
BRANCH  18  21
HETATM   21  C   UNL     1     -39.709 -44.939  10.682  1.00  0.00     0.099 C 
HETATM   22  C   UNL     1     -39.019 -44.804   9.322  1.00  0.00     0.034 C 
HETATM   23  C   UNL     1     -40.376 -43.627  11.094  1.00  0.00     0.034 C 
ENDBRANCH  18  21
ENDBRANCH   4  15
TORSDOF 5
ENDMDL
MODEL 2
REMARK VINA RESULT:      -5.8      1.487      1.896
REMARK  5 active torsions:
REMARK  status: ('A' for Active; 'I' for Inactive)
REMARK    1  A    between atoms: C_2  and  S_3 
REMARK    2  A    between atoms: S_3  and  C_4 
REMARK    3  A    between atoms: C_8  and  N_9 
REMARK       I    between atoms: N_9  and  C_10 
REMARK       I    between atoms: C_10  and  N_12 
REMARK    4  A    between atoms: N_12  and  C_13 
REMARK    5  A    between atoms: N_17  and  C_19 
ROOT
HETATM    1  N   UNL     1     -44.366 -50.560  13.223  1.00  0.00    -0.337 N 
HETATM    2  C   UNL     1     -43.283 -49.773  12.933  1.00  0.00     0.321 C 
HETATM    3  O   UNL     1     -42.309 -49.699  13.669  1.00  0.00    -0.247 OA
HETATM    4  N   UNL     1     -43.394 -49.056  11.762  1.00  0.00    -0.306 N 
HETATM    5  H   UNL     1     -45.012 -50.751  12.470  1.00  0.00     0.164 HD
HETATM    6  H   UNL     1     -44.286 -48.983  11.298  1.00  0.00     0.171 HD
ENDROOT
BRANCH   1   7
HETATM    7  C   UNL     1     -44.498 -51.403  14.425  1.00  0.00     0.100 C 
HETATM    8  C   UNL     1     -44.988 -52.832  14.097  1.00  0.00     0.070 C 
HETATM    9  C   UNL     1     -46.509 -52.677  13.938  1.00  0.00     0.017 C 
HETATM   10  C   UNL     1     -46.889 -51.492  14.832  1.00  0.00     0.003 C 
HETATM   11  C   UNL     1     -45.574 -51.016  15.453  1.00  0.00     0.026 C 
BRANCH   8  12
HETATM   12  S   UNL     1     -44.238 -53.670  12.662  1.00  0.00    -0.163 SA
BRANCH  12  13
HETATM   13  C   UNL     1     -42.555 -53.993  13.287  1.00  0.00     0.070 C 
HETATM   14  C   UNL     1     -42.511 -54.660  14.650  1.00  0.00     0.016 C 
ENDBRANCH  12  13
ENDBRANCH   8  12
ENDBRANCH   1   7
BRANCH   4  15
HETATM   15  C   UNL     1     -42.379 -48.182  11.383  1.00  0.00     0.070 A 
HETATM   16  C   UNL     1     -41.140 -48.454  10.751  1.00  0.00     0.138 A 
HETATM   17  N   UNL     1     -40.386 -47.368  10.596  1.00  0.00    -0.307 N 
HETATM   18  N   UNL     1     -41.119 -46.401  11.177  1.00  0.00    -0.297 N 
ATOM     19  HN  UNL     1     -39.473 -47.289  10.147  1.00  0.00     0.186 HD
HETATM   20  C   UNL     1     -42.357 -46.822  11.593  1.00  0.00     0.141 A 
BRANCH  18  21
HETATM   21  C   UNL     1     -40.520 -45.082  11.336  1.00  0.00     0.099 C 
HETATM   22  C   UNL     1     -39.768 -44.983  12.666  1.00  0.00     0.034 C 
HETATM   23  C   UNL     1     -39.601 -44.760  10.158  1.00  0.00     0.034 C 
ENDBRANCH  18  21
ENDBRANCH   4  15
TORSDOF 5
ENDMDL
MODEL 3
REMARK VINA RESULT:      -5.3      2.828      7.702
REMARK  5 active torsions:
REMARK  status: ('A' for Active; 'I' for Inactive)
REMARK    1  A    between atoms: C_2  and  S_3 
REMARK    2  A    between atoms: S_3  and  C_4 
REMARK    3  A    between atoms: C_8  and  N_9 
REMARK       I    between atoms: N_9  and  C_10 
REMARK       I    between atoms: C_10  and  N_12 
REMARK    4  A    between atoms: N_12  and  C_13 
REMARK    5  A    between atoms: N_17  and  C_19 
ROOT
HETATM    1  N   UNL     1     -42.585 -48.960  11.398  1.00  0.00    -0.337 N 
HETATM    2  C   UNL     1     -42.531 -49.995  12.294  1.00  0.00     0.321 C 
HETATM    3  O   UNL     1     -42.928 -49.889  13.446  1.00  0.00    -0.247 OA
HETATM    4  N   UNL     1     -41.971 -51.152  11.798  1.00  0.00    -0.306 N 
HETATM    5  H   UNL     1     -42.464 -49.189  10.421  1.00  0.00     0.164 HD
HETATM    6  H   UNL     1     -41.471 -51.134  10.922  1.00  0.00     0.171 HD
ENDROOT
BRANCH   1   7
HETATM    7  C   UNL     1     -43.118 -47.617  11.693  1.00  0.00     0.100 C 
HETATM    8  C   UNL     1     -43.197 -46.722  10.435  1.00  0.00     0.070 C 
HETATM    9  C   UNL     1     -41.762 -46.202  10.257  1.00  0.00     0.017 C 
HETATM   10  C   UNL     1     -41.163 -46.180  11.667  1.00  0.00     0.003 C 
HETATM   11  C   UNL     1     -42.273 -46.695  12.587  1.00  0.00     0.026 C 
BRANCH   8  12
HETATM   12  S   UNL     1     -43.842 -47.474   8.904  1.00  0.00    -0.163 SA
BRANCH  12  13
HETATM   13  C   UNL     1     -45.634 -47.206   9.112  1.00  0.00     0.070 C 
HETATM   14  C   UNL     1     -46.494 -48.393   8.714  1.00  0.00     0.016 C 
ENDBRANCH  12  13
ENDBRANCH   8  12
ENDBRANCH   1   7
BRANCH   4  15
HETATM   15  C   UNL     1     -41.815 -52.259  12.626  1.00  0.00     0.070 A 
HETATM   16  C   UNL     1     -42.699 -53.339  12.869  1.00  0.00     0.138 A 
HETATM   17  N   UNL     1     -42.238 -54.195  13.779  1.00  0.00    -0.307 N 
HETATM   18  N   UNL     1     -41.076 -53.637  14.162  1.00  0.00    -0.297 N 
ATOM     19  HN  UNL     1     -42.664 -55.063  14.106  1.00  0.00     0.186 HD
HETATM   20  C   UNL     1     -40.738 -52.518  13.444  1.00  0.00     0.141 A 
BRANCH  18  21
HETATM   21  C   UNL     1     -40.361 -54.232  15.284  1.00  0.00     0.099 C 
HETATM   22  C   UNL     1     -41.255 -55.222  16.035  1.00  0.00     0.034 C 
HETATM   23  C   UNL     1     -39.073 -54.904  14.809  1.00  0.00     0.034 C 
ENDBRANCH  18  21
ENDBRANCH   4  15
TORSDOF 5
ENDMDL
MODEL 4
REMARK VINA RESULT:      -5.3      2.197      4.028
REMARK  5 active torsions:
REMARK  status: ('A' for Active; 'I' for Inactive)
REMARK    1  A    between atoms: C_2  and  S_3 
REMARK    2  A    between atoms: S_3  and  C_4 
REMARK    3  A    between atoms: C_8  and  N_9 
REMARK       I    between atoms: N_9  and  C_10 
REMARK       I    between atoms: C_10  and  N_12 
REMARK    4  A    between atoms: N_12  and  C_13 
REMARK    5  A    between atoms: N_17  and  C_19 
ROOT
HETATM    1  N   UNL     1     -42.675 -52.929  14.682  1.00  0.00    -0.337 N 
HETATM    2  C   UNL     1     -42.585 -52.226  13.509  1.00  0.00     0.321 C 
HETATM    3  O   UNL     1     -43.123 -52.601  12.476  1.00  0.00    -0.247 OA
HETATM    4  N   UNL     1     -41.820 -51.083  13.584  1.00  0.00    -0.306 N 
HETATM    5  H   UNL     1     -42.413 -52.445  15.530  1.00  0.00     0.164 HD
HETATM    6  H   UNL     1     -41.230 -50.924  14.386  1.00  0.00     0.171 HD
ENDROOT
BRANCH   1   7
HETATM    7  C   UNL     1     -43.415 -54.192  14.853  1.00  0.00     0.100 C 
HETATM    8  C   UNL     1     -44.558 -54.075  15.887  1.00  0.00     0.070 C 
HETATM    9  C   UNL     1     -43.849 -54.211  17.243  1.00  0.00     0.017 C 
HETATM   10  C   UNL     1     -42.613 -55.073  16.967  1.00  0.00     0.003 C 
HETATM   11  C   UNL     1     -42.661 -55.382  15.469  1.00  0.00     0.026 C 
BRANCH   8  12
HETATM   12  S   UNL     1     -45.608 -52.585  15.816  1.00  0.00    -0.163 SA
BRANCH  12  13
HETATM   13  C   UNL     1     -46.414 -52.802  14.194  1.00  0.00     0.070 C 
HETATM   14  C   UNL     1     -46.469 -51.542  13.349  1.00  0.00     0.016 C 
ENDBRANCH  12  13
ENDBRANCH   8  12
ENDBRANCH   1   7
BRANCH   4  15
HETATM   15  C   UNL     1     -41.612 -50.310  12.446  1.00  0.00     0.070 A 
HETATM   16  C   UNL     1     -40.562 -50.365  11.496  1.00  0.00     0.138 A 
HETATM   17  N   UNL     1     -40.656 -49.422  10.561  1.00  0.00    -0.307 N 
HETATM   18  N   UNL     1     -41.743 -48.725  10.939  1.00  0.00    -0.297 N 
ATOM     19  HN  UNL     1     -40.052 -49.266   9.754  1.00  0.00     0.186 HD
HETATM   20  C   UNL     1     -42.398 -49.265  12.017  1.00  0.00     0.141 A 
BRANCH  18  21
HETATM   21  C   UNL     1     -42.060 -47.497  10.220  1.00  0.00     0.099 C 
HETATM   22  C   UNL     1     -43.536 -47.130  10.396  1.00  0.00     0.034 C 
HETATM   23  C   UNL     1     -41.151 -46.356  10.672  1.00  0.00     0.034 C 
ENDBRANCH  18  21
ENDBRANCH   4  15
TORSDOF 5
ENDMDL
MODEL 5
REMARK VINA RESULT:      -5.1      1.622      2.336
REMARK  5 active torsions:
REMARK  status: ('A' for Active; 'I' for Inactive)
REMARK    1  A    between atoms: C_2  and  S_3 
REMARK    2  A    between atoms: S_3  and  C_4 
REMARK    3  A    between atoms: C_8  and  N_9 
REMARK       I    between atoms: N_9  and  C_10 
REMARK       I    between atoms: C_10  and  N_12 
REMARK    4  A    between atoms: N_12  and  C_13 
REMARK    5  A    between atoms: N_17  and  C_19 
ROOT
HETATM    1  N   UNL     1     -43.160 -52.235  13.316  1.00  0.00    -0.337 N 
HETATM    2  C   UNL     1     -42.569 -51.014  13.121  1.00  0.00     0.321 C 
HETATM    3  O   UNL     1     -42.619 -50.120  13.954  1.00  0.00    -0.247 OA
HETATM    4  N   UNL     1     -41.940 -50.871  11.904  1.00  0.00    -0.306 N 
HETATM    5  H   UNL     1     -42.878 -52.986  12.702  1.00  0.00     0.164 HD
HETATM    6  H   UNL     1     -42.100 -51.546  11.171  1.00  0.00     0.171 HD
ENDROOT
BRANCH   1   7
HETATM    7  C   UNL     1     -43.909 -52.626  14.524  1.00  0.00     0.100 C 
HETATM    8  C   UNL     1     -43.095 -53.554  15.453  1.00  0.00     0.070 C 
HETATM    9  C   UNL     1     -43.242 -54.944  14.813  1.00  0.00     0.017 C 
HETATM   10  C   UNL     1     -44.592 -54.913  14.089  1.00  0.00     0.003 C 
HETATM   11  C   UNL     1     -45.152 -53.511  14.336  1.00  0.00     0.026 C 
BRANCH   8  12
HETATM   12  S   UNL     1     -41.348 -53.125  15.752  1.00  0.00    -0.163 SA
BRANCH  12  13
HETATM   13  C   UNL     1     -40.506 -54.579  15.041  1.00  0.00     0.070 C 
HETATM   14  C   UNL     1     -39.541 -54.254  13.914  1.00  0.00     0.016 C 
ENDBRANCH  12  13
ENDBRANCH   8  12
ENDBRANCH   1   7
BRANCH   4  15
HETATM   15  C   UNL     1     -41.346 -49.658  11.567  1.00  0.00     0.070 A 
HETATM   16  C   UNL     1     -39.976 -49.298  11.543  1.00  0.00     0.138 A 
HETATM   17  N   UNL     1     -39.779 -48.020  11.227  1.00  0.00    -0.307 N 
HETATM   18  N   UNL     1     -41.030 -47.541  11.097  1.00  0.00    -0.297 N 
ATOM     19  HN  UNL     1     -38.895 -47.524  11.112  1.00  0.00     0.186 HD
HETATM   20  C   UNL     1     -42.003 -48.501  11.212  1.00  0.00     0.141 A 
BRANCH  18  21
HETATM   21  C   UNL     1     -41.204 -46.107  10.906  1.00  0.00     0.099 C 
HETATM   22  C   UNL     1     -39.903 -45.461  10.421  1.00  0.00     0.034 C 
HETATM   23  C   UNL     1     -42.352 -45.825   9.939  1.00  0.00     0.034 C 
ENDBRANCH  18  21
ENDBRANCH   4  15
TORSDOF 5
ENDMDL
MODEL 6
REMARK VINA RESULT:      -5.1      1.639      2.759
REMARK  5 active torsions:
REMARK  status: ('A' for Active; 'I' for Inactive)
REMARK    1  A    between atoms: C_2  and  S_3 
REMARK    2  A    between atoms: S_3  and  C_4 
REMARK    3  A    between atoms: C_8  and  N_9 
REMARK       I    between atoms: N_9  and  C_10 
REMARK       I    between atoms: C_10  and  N_12 
REMARK    4  A    between atoms: N_12  and  C_13 
REMARK    5  A    between atoms: N_17  and  C_19 
ROOT
HETATM    1  N   UNL     1     -42.295 -51.058  12.383  1.00  0.00    -0.337 N 
HETATM    2  C   UNL     1     -41.698 -49.958  11.827  1.00  0.00     0.321 C 
HETATM    3  O   UNL     1     -40.629 -50.019  11.236  1.00  0.00    -0.247 OA
HETATM    4  N   UNL     1     -42.387 -48.779  12.010  1.00  0.00    -0.306 N 
HETATM    5  H   UNL     1     -43.270 -50.973  12.639  1.00  0.00     0.164 HD
HETATM    6  H   UNL     1     -43.145 -48.736  12.673  1.00  0.00     0.171 HD
ENDROOT
BRANCH   1   7
HETATM    7  C   UNL     1     -41.748 -52.426  12.343  1.00  0.00     0.100 C 
HETATM    8  C   UNL     1     -42.689 -53.461  12.999  1.00  0.00     0.070 C 
HETATM    9  C   UNL     1     -42.418 -53.310  14.504  1.00  0.00     0.017 C 
HETATM   10  C   UNL     1     -40.968 -52.824  14.606  1.00  0.00     0.003 C 
HETATM   11  C   UNL     1     -40.477 -52.710  13.161  1.00  0.00     0.026 C 
BRANCH   8  12
HETATM   12  S   UNL     1     -44.468 -53.346  12.615  1.00  0.00    -0.163 SA
BRANCH  12  13
HETATM   13  C   UNL     1     -45.085 -52.456  14.083  1.00  0.00     0.070 C 
HETATM   14  C   UNL     1     -46.276 -51.554  13.813  1.00  0.00     0.016 C 
ENDBRANCH  12  13
ENDBRANCH   8  12
ENDBRANCH   1   7
BRANCH   4  15
HETATM   15  C   UNL     1     -41.857 -47.583  11.533  1.00  0.00     0.070 A 
HETATM   16  C   UNL     1     -41.923 -47.018  10.236  1.00  0.00     0.138 A 
HETATM   17  N   UNL     1     -41.241 -45.880  10.129  1.00  0.00    -0.307 N 
HETATM   18  N   UNL     1     -40.691 -45.737  11.348  1.00  0.00    -0.297 N 
ATOM     19  HN  UNL     1     -41.155 -45.265   9.319  1.00  0.00     0.186 HD
HETATM   20  C   UNL     1     -41.093 -46.689  12.250  1.00  0.00     0.141 A 
BRANCH  18  21
HETATM   21  C   UNL     1     -39.730 -44.660  11.550  1.00  0.00     0.099 C 
HETATM   22  C   UNL     1     -40.358 -43.303  11.226  1.00  0.00     0.034 C 
HETATM   23  C   UNL     1     -39.180 -44.687  12.976  1.00  0.00     0.034 C 
ENDBRANCH  18  21
ENDBRANCH   4  15
TORSDOF 5
ENDMDL
MODEL 7
REMARK VINA RESULT:      -5.1      1.939      3.082
REMARK  5 active torsions:
REMARK  status: ('A' for Active; 'I' for Inactive)
REMARK    1  A    between atoms: C_2  and  S_3 
REMARK    2  A    between atoms: S_3  and  C_4 
REMARK    3  A    between atoms: C_8  and  N_9 
REMARK       I    between atoms: N_9  and  C_10 
REMARK       I    between atoms: C_10  and  N_12 
REMARK    4  A    between atoms: N_12  and  C_13 
REMARK    5  A    between atoms: N_17  and  C_19 
ROOT
HETATM    1  N   UNL     1     -42.742 -51.791  13.318  1.00  0.00    -0.337 N 
HETATM    2  C   UNL     1     -42.015 -50.778  12.751  1.00  0.00     0.321 C 
HETATM    3  O   UNL     1     -41.355 -50.933  11.733  1.00  0.00    -0.247 OA
HETATM    4  N   UNL     1     -42.067 -49.583  13.436  1.00  0.00    -0.306 N 
HETATM    5  H   UNL     1     -43.436 -51.530  14.006  1.00  0.00     0.164 HD
HETATM    6  H   UNL     1     -42.444 -49.554  14.371  1.00  0.00     0.171 HD
ENDROOT
BRANCH   1   7
HETATM    7  C   UNL     1     -42.831 -53.164  12.790  1.00  0.00     0.100 C 
HETATM    8  C   UNL     1     -44.229 -53.790  12.994  1.00  0.00     0.070 C 
HETATM    9  C   UNL     1     -44.214 -54.266  14.456  1.00  0.00     0.017 C 
HETATM   10  C   UNL     1     -42.744 -54.571  14.765  1.00  0.00     0.003 C 
HETATM   11  C   UNL     1     -41.984 -54.248  13.477  1.00  0.00     0.026 C 
BRANCH   8  12
HETATM   12  S   UNL     1     -45.680 -52.745  12.636  1.00  0.00    -0.163 SA
BRANCH  12  13
HETATM   13  C   UNL     1     -46.552 -52.799  14.237  1.00  0.00     0.070 C 
HETATM   14  C   UNL     1     -46.813 -51.435  14.853  1.00  0.00     0.016 C 
ENDBRANCH  12  13
ENDBRANCH   8  12
ENDBRANCH   1   7
BRANCH   4  15
HETATM   15  C   UNL     1     -41.328 -48.492  12.987  1.00  0.00     0.070 A 
HETATM   16  C   UNL     1     -39.993 -48.121  13.282  1.00  0.00     0.138 A 
HETATM   17  N   UNL     1     -39.636 -46.971  12.715  1.00  0.00    -0.307 N 
HETATM   18  N   UNL     1     -40.761 -46.573  12.094  1.00  0.00    -0.297 N 
ATOM     19  HN  UNL     1     -38.729 -46.504  12.745  1.00  0.00     0.186 HD
HETATM   20  C   UNL     1     -41.780 -47.489  12.160  1.00  0.00     0.141 A 
BRANCH  18  21
HETATM   21  C   UNL     1     -40.784 -45.247  11.489  1.00  0.00     0.099 C 
HETATM   22  C   UNL     1     -39.752 -45.145  10.364  1.00  0.00     0.034 C 
HETATM   23  C   UNL     1     -42.186 -44.908  10.985  1.00  0.00     0.034 C 
ENDBRANCH  18  21
ENDBRANCH   4  15
TORSDOF 5
ENDMDL
MODEL 8
REMARK VINA RESULT:      -4.7      2.734      7.647
REMARK  5 active torsions:
REMARK  status: ('A' for Active; 'I' for Inactive)
REMARK    1  A    between atoms: C_2  and  S_3 
REMARK    2  A    between atoms: S_3  and  C_4 
REMARK    3  A    between atoms: C_8  and  N_9 
REMARK       I    between atoms: N_9  and  C_10 
REMARK       I    between atoms: C_10  and  N_12 
REMARK    4  A    between atoms: N_12  and  C_13 
REMARK    5  A    between atoms: N_17  and  C_19 
ROOT
HETATM    1  N   UNL     1     -41.762 -48.135  11.960  1.00  0.00    -0.337 N 
HETATM    2  C   UNL     1     -41.744 -49.352  12.587  1.00  0.00     0.321 C 
HETATM    3  O   UNL     1     -40.974 -49.609  13.502  1.00  0.00    -0.247 OA
HETATM    4  N   UNL     1     -42.644 -50.267  12.085  1.00  0.00    -0.306 N 
HETATM    5  H   UNL     1     -42.568 -47.922  11.389  1.00  0.00     0.164 HD
HETATM    6  H   UNL     1     -43.106 -50.090  11.206  1.00  0.00     0.171 HD
ENDROOT
BRANCH   1   7
HETATM    7  C   UNL     1     -40.883 -47.000  12.297  1.00  0.00     0.100 C 
HETATM    8  C   UNL     1     -41.675 -45.747  12.735  1.00  0.00     0.070 C 
HETATM    9  C   UNL     1     -42.126 -45.110  11.411  1.00  0.00     0.017 C 
HETATM   10  C   UNL     1     -41.063 -45.517  10.384  1.00  0.00     0.003 C 
HETATM   11  C   UNL     1     -40.060 -46.373  11.159  1.00  0.00     0.026 C 
BRANCH   8  12
HETATM   12  S   UNL     1     -43.071 -45.990  13.881  1.00  0.00    -0.163 SA
BRANCH  12  13
HETATM   13  C   UNL     1     -42.231 -46.789  15.290  1.00  0.00     0.070 C 
HETATM   14  C   UNL     1     -43.046 -47.875  15.970  1.00  0.00     0.016 C 
ENDBRANCH  12  13
ENDBRANCH   8  12
ENDBRANCH   1   7
BRANCH   4  15
HETATM   15  C   UNL     1     -42.687 -51.557  12.606  1.00  0.00     0.070 A 
HETATM   16  C   UNL     1     -41.981 -52.718  12.204  1.00  0.00     0.138 A 
HETATM   17  N   UNL     1     -42.323 -53.802  12.900  1.00  0.00    -0.307 N 
HETATM   18  N   UNL     1     -43.289 -53.347  13.718  1.00  0.00    -0.297 N 
ATOM     19  HN  UNL     1     -41.944 -54.746  12.828  1.00  0.00     0.186 HD
HETATM   20  C   UNL     1     -43.489 -51.992  13.637  1.00  0.00     0.141 A 
BRANCH  18  21
HETATM   21  C   UNL     1     -44.018 -54.314  14.528  1.00  0.00     0.099 C 
HETATM   22  C   UNL     1     -45.103 -55.009  13.701  1.00  0.00     0.034 C 
HETATM   23  C   UNL     1     -43.062 -55.332  15.148  1.00  0.00     0.034 C 
ENDBRANCH  18  21
ENDBRANCH   4  15
TORSDOF 5
ENDMDL
MODEL 9
REMARK VINA RESULT:      -4.6     15.356     17.702
REMARK  5 active torsions:
REMARK  status: ('A' for Active; 'I' for Inactive)
REMARK    1  A    between atoms: C_2  and  S_3 
REMARK    2  A    between atoms: S_3  and  C_4 
REMARK    3  A    between atoms: C_8  and  N_9 
REMARK       I    between atoms: N_9  and  C_10 
REMARK       I    between atoms: C_10  and  N_12 
REMARK    4  A    between atoms: N_12  and  C_13 
REMARK    5  A    between atoms: N_17  and  C_19 
ROOT
HETATM    1  N   UNL     1     -50.667 -50.551   0.096  1.00  0.00    -0.337 N 
HETATM    2  C   UNL     1     -51.457 -51.438  -0.587  1.00  0.00     0.321 C 
HETATM    3  O   UNL     1     -52.481 -51.097  -1.164  1.00  0.00    -0.247 OA
HETATM    4  N   UNL     1     -51.020 -52.744  -0.546  1.00  0.00    -0.306 N 
HETATM    5  H   UNL     1     -49.735 -50.858   0.339  1.00  0.00     0.164 HD
HETATM    6  H   UNL     1     -50.300 -53.014   0.107  1.00  0.00     0.171 HD
ENDROOT
BRANCH   1   7
HETATM    7  C   UNL     1     -50.933 -49.107   0.219  1.00  0.00     0.100 C 
HETATM    8  C   UNL     1     -49.966 -48.251  -0.631  1.00  0.00     0.070 C 
HETATM    9  C   UNL     1     -48.690 -48.173   0.223  1.00  0.00     0.017 C 
HETATM   10  C   UNL     1     -49.167 -48.297   1.674  1.00  0.00     0.003 C 
HETATM   11  C   UNL     1     -50.687 -48.451   1.588  1.00  0.00     0.026 C 
BRANCH   8  12
HETATM   12  S   UNL     1     -49.613 -48.815  -2.329  1.00  0.00    -0.163 SA
BRANCH  12  13
HETATM   13  C   UNL     1     -47.920 -49.465  -2.136  1.00  0.00     0.070 C 
HETATM   14  C   UNL     1     -47.829 -50.980  -2.118  1.00  0.00     0.016 C 
ENDBRANCH  12  13
ENDBRANCH   8  12
ENDBRANCH   1   7
BRANCH   4  15
HETATM   15  C   UNL     1     -51.765 -53.746  -1.160  1.00  0.00     0.070 A 
HETATM   16  C   UNL     1     -52.942 -54.398  -0.716  1.00  0.00     0.138 A 
HETATM   17  N   UNL     1     -53.348 -55.359  -1.543  1.00  0.00    -0.307 N 
HETATM   18  N   UNL     1     -52.401 -55.360  -2.498  1.00  0.00    -0.297 N 
ATOM     19  HN  UNL     1     -54.176 -55.951  -1.471  1.00  0.00     0.186 HD
HETATM   20  C   UNL     1     -51.473 -54.360  -2.357  1.00  0.00     0.141 A 
BRANCH  18  21
HETATM   21  C   UNL     1     -52.437 -56.414  -3.505  1.00  0.00     0.099 C 
HETATM   22  C   UNL     1     -51.023 -56.897  -3.838  1.00  0.00     0.034 C 
HETATM   23  C   UNL     1     -53.321 -57.572  -3.045  1.00  0.00     0.034 C 
ENDBRANCH  18  21
ENDBRANCH   4  15
TORSDOF 5
ENDMDL
