MODEL 1
REMARK VINA RESULT:      -6.3      0.000      0.000
REMARK  4 active torsions:
REMARK  status: ('A' for Active; 'I' for Inactive)
REMARK    1  A    between atoms: N_4  and  C_5 
REMARK    2  A    between atoms: C_5  and  C_6 
REMARK    3  A    between atoms: C_6  and  N_7 
REMARK       I    between atoms: N_7  and  C_8 
REMARK       I    between atoms: C_8  and  N_10 
REMARK    4  A    between atoms: N_10  and  C_11 
ROOT
HETATM    1  N   UNL     1     -40.925 -49.226  10.379  1.00  0.00    -0.341 N 
HETATM    2  C   UNL     1     -42.050 -48.429  10.505  1.00  0.00     0.320 C 
HETATM    3  O   UNL     1     -42.464 -48.043  11.591  1.00  0.00    -0.247 OA
HETATM    4  N   UNL     1     -42.573 -48.090   9.282  1.00  0.00    -0.306 N 
HETATM    5  H   UNL     1     -40.968 -49.919   9.645  1.00  0.00     0.164 HD
HETATM    6  H   UNL     1     -42.041 -48.314   8.457  1.00  0.00     0.171 HD
ENDROOT
BRANCH   1   7
HETATM    7  C   UNL     1     -40.218 -49.600  11.594  1.00  0.00     0.154 C 
BRANCH   7   8
HETATM    8  C   UNL     1     -40.492 -51.049  12.035  1.00  0.00     0.292 C 
BRANCH   8   9
HETATM    9  N   UNL     1     -41.781 -51.216  12.736  1.00  0.00     0.095 N 
HETATM   10  C   UNL     1     -41.622 -51.195  14.210  1.00  0.00     0.303 C 
HETATM   11  C   UNL     1     -42.958 -51.411  14.949  1.00  0.00     0.146 C 
HETATM   12  C   UNL     1     -43.907 -50.221  14.811  1.00  0.00     0.041 C 
HETATM   13  O   UNL     1     -43.582 -52.637  14.538  1.00  0.00    -0.378 OA
HETATM   14  C   UNL     1     -43.749 -52.721  13.113  1.00  0.00     0.146 C 
HETATM   15  C   UNL     1     -42.409 -52.507  12.371  1.00  0.00     0.303 C 
HETATM   16  C   UNL     1     -44.326 -54.098  12.814  1.00  0.00     0.041 C 
ENDBRANCH   8   9
ENDBRANCH   7   8
ENDBRANCH   1   7
BRANCH   4  17
HETATM   17  C   UNL     1     -43.628 -47.206   9.142  1.00  0.00     0.070 A 
HETATM   18  C   UNL     1     -45.013 -47.428   8.975  1.00  0.00     0.138 A 
HETATM   19  N   UNL     1     -45.711 -46.287   8.920  1.00  0.00    -0.310 N 
HETATM   20  N   UNL     1     -44.771 -45.341   9.067  1.00  0.00    -0.310 N 
ATOM     21  HN  UNL     1     -46.716 -46.167   8.797  1.00  0.00     0.186 HD
HETATM   22  C   UNL     1     -43.503 -45.837   9.168  1.00  0.00     0.138 A 
HETATM   23  H   UNL     1     -45.073 -44.371   9.098  1.00  0.00     0.186 HD
ENDBRANCH   4  17
TORSDOF 4
ENDMDL
MODEL 2
REMARK VINA RESULT:      -6.3      1.267      1.485
REMARK  4 active torsions:
REMARK  status: ('A' for Active; 'I' for Inactive)
REMARK    1  A    between atoms: N_4  and  C_5 
REMARK    2  A    between atoms: C_5  and  C_6 
REMARK    3  A    between atoms: C_6  and  N_7 
REMARK       I    between atoms: N_7  and  C_8 
REMARK       I    between atoms: C_8  and  N_10 
REMARK    4  A    between atoms: N_10  and  C_11 
ROOT
HETATM    1  N   UNL     1     -40.921 -49.213  10.646  1.00  0.00    -0.341 N 
HETATM    2  C   UNL     1     -42.064 -48.432  10.695  1.00  0.00     0.320 C 
HETATM    3  O   UNL     1     -42.563 -48.064  11.751  1.00  0.00    -0.247 OA
HETATM    4  N   UNL     1     -42.499 -48.085   9.440  1.00  0.00    -0.306 N 
HETATM    5  H   UNL     1     -40.900 -49.897   9.903  1.00  0.00     0.164 HD
HETATM    6  H   UNL     1     -41.904 -48.293   8.655  1.00  0.00     0.171 HD
ENDROOT
BRANCH   1   7
HETATM    7  C   UNL     1     -40.302 -49.591  11.906  1.00  0.00     0.154 C 
BRANCH   7   8
HETATM    8  C   UNL     1     -39.945 -51.087  11.983  1.00  0.00     0.292 C 
BRANCH   8   9
HETATM    9  N   UNL     1     -40.807 -51.849  12.908  1.00  0.00     0.095 N 
HETATM   10  C   UNL     1     -40.163 -53.103  13.366  1.00  0.00     0.303 C 
HETATM   11  C   UNL     1     -41.075 -53.925  14.300  1.00  0.00     0.146 C 
HETATM   12  C   UNL     1     -41.272 -53.264  15.664  1.00  0.00     0.041 C 
HETATM   13  O   UNL     1     -42.329 -54.220  13.666  1.00  0.00    -0.378 OA
HETATM   14  C   UNL     1     -42.995 -53.040  13.186  1.00  0.00     0.146 C 
HETATM   15  C   UNL     1     -42.083 -52.216  12.248  1.00  0.00     0.303 C 
HETATM   16  C   UNL     1     -44.250 -53.504  12.459  1.00  0.00     0.041 C 
ENDBRANCH   8   9
ENDBRANCH   7   8
ENDBRANCH   1   7
BRANCH   4  17
HETATM   17  C   UNL     1     -43.553 -47.214   9.230  1.00  0.00     0.070 A 
HETATM   18  C   UNL     1     -44.929 -47.452   9.015  1.00  0.00     0.138 A 
HETATM   19  N   UNL     1     -45.631 -46.319   8.898  1.00  0.00    -0.310 N 
HETATM   20  N   UNL     1     -44.704 -45.361   9.052  1.00  0.00    -0.310 N 
ATOM     21  HN  UNL     1     -46.631 -46.210   8.730  1.00  0.00     0.186 HD
HETATM   22  C   UNL     1     -43.438 -45.844   9.219  1.00  0.00     0.138 A 
HETATM   23  H   UNL     1     -45.012 -44.394   9.042  1.00  0.00     0.186 HD
ENDBRANCH   4  17
TORSDOF 4
ENDMDL
MODEL 3
REMARK VINA RESULT:      -5.9      2.063      3.103
REMARK  4 active torsions:
REMARK  status: ('A' for Active; 'I' for Inactive)
REMARK    1  A    between atoms: N_4  and  C_5 
REMARK    2  A    between atoms: C_5  and  C_6 
REMARK    3  A    between atoms: C_6  and  N_7 
REMARK       I    between atoms: N_7  and  C_8 
REMARK       I    between atoms: C_8  and  N_10 
REMARK    4  A    between atoms: N_10  and  C_11 
ROOT
HETATM    1  N   UNL     1     -40.941 -49.239  10.428  1.00  0.00    -0.341 N 
HETATM    2  C   UNL     1     -42.085 -48.464  10.526  1.00  0.00     0.320 C 
HETATM    3  O   UNL     1     -42.652 -48.261  11.592  1.00  0.00    -0.247 OA
HETATM    4  N   UNL     1     -42.436 -47.921   9.315  1.00  0.00    -0.306 N 
HETATM    5  H   UNL     1     -40.870 -49.798   9.590  1.00  0.00     0.164 HD
HETATM    6  H   UNL     1     -41.791 -48.009   8.547  1.00  0.00     0.171 HD
ENDROOT
BRANCH   1   7
HETATM    7  C   UNL     1     -40.405 -49.816  11.651  1.00  0.00     0.154 C 
BRANCH   7   8
HETATM    8  C   UNL     1     -40.896 -51.252  11.911  1.00  0.00     0.292 C 
BRANCH   8   9
HETATM    9  N   UNL     1     -40.120 -51.959  12.948  1.00  0.00     0.095 N 
HETATM   10  C   UNL     1     -40.965 -52.874  13.752  1.00  0.00     0.303 C 
HETATM   11  C   UNL     1     -40.168 -53.585  14.865  1.00  0.00     0.146 C 
HETATM   12  C   UNL     1     -39.182 -54.617  14.318  1.00  0.00     0.041 C 
HETATM   13  O   UNL     1     -39.520 -52.634  15.722  1.00  0.00    -0.378 OA
HETATM   14  C   UNL     1     -38.695 -51.708  14.995  1.00  0.00     0.146 C 
HETATM   15  C   UNL     1     -39.493 -50.992  13.880  1.00  0.00     0.303 C 
HETATM   16  C   UNL     1     -38.152 -50.707  16.007  1.00  0.00     0.041 C 
ENDBRANCH   8   9
ENDBRANCH   7   8
ENDBRANCH   1   7
BRANCH   4  17
HETATM   17  C   UNL     1     -43.475 -47.017   9.177  1.00  0.00     0.070 A 
HETATM   18  C   UNL     1     -44.840 -47.207   8.868  1.00  0.00     0.138 A 
HETATM   19  N   UNL     1     -45.530 -46.061   8.873  1.00  0.00    -0.310 N 
HETATM   20  N   UNL     1     -44.607 -45.144   9.201  1.00  0.00    -0.310 N 
ATOM     21  HN  UNL     1     -46.520 -45.918   8.676  1.00  0.00     0.186 HD
HETATM   22  C   UNL     1     -43.352 -45.659   9.359  1.00  0.00     0.138 A 
HETATM   23  H   UNL     1     -44.909 -44.180   9.308  1.00  0.00     0.186 HD
ENDBRANCH   4  17
TORSDOF 4
ENDMDL
MODEL 4
REMARK VINA RESULT:      -5.9      1.402      2.124
REMARK  4 active torsions:
REMARK  status: ('A' for Active; 'I' for Inactive)
REMARK    1  A    between atoms: N_4  and  C_5 
REMARK    2  A    between atoms: C_5  and  C_6 
REMARK    3  A    between atoms: C_6  and  N_7 
REMARK       I    between atoms: N_7  and  C_8 
REMARK       I    between atoms: C_8  and  N_10 
REMARK    4  A    between atoms: N_10  and  C_11 
ROOT
HETATM    1  N   UNL     1     -40.966 -49.201  10.580  1.00  0.00    -0.341 N 
HETATM    2  C   UNL     1     -41.838 -48.126  10.622  1.00  0.00     0.320 C 
HETATM    3  O   UNL     1     -41.685 -47.186  11.393  1.00  0.00    -0.247 OA
HETATM    4  N   UNL     1     -42.816 -48.227   9.665  1.00  0.00    -0.306 N 
HETATM    5  H   UNL     1     -41.396 -50.097  10.399  1.00  0.00     0.164 HD
HETATM    6  H   UNL     1     -42.731 -48.951   8.970  1.00  0.00     0.171 HD
ENDROOT
BRANCH   1   7
HETATM    7  C   UNL     1     -39.830 -49.190  11.488  1.00  0.00     0.154 C 
BRANCH   7   8
HETATM    8  C   UNL     1     -40.168 -49.726  12.892  1.00  0.00     0.292 C 
BRANCH   8   9
HETATM    9  N   UNL     1     -40.775 -51.072  12.876  1.00  0.00     0.095 N 
HETATM   10  C   UNL     1     -41.974 -51.155  13.744  1.00  0.00     0.303 C 
HETATM   11  C   UNL     1     -42.588 -52.570  13.765  1.00  0.00     0.146 C 
HETATM   12  C   UNL     1     -43.247 -52.946  12.438  1.00  0.00     0.041 C 
HETATM   13  O   UNL     1     -41.618 -53.546  14.171  1.00  0.00    -0.378 OA
HETATM   14  C   UNL     1     -40.423 -53.503  13.372  1.00  0.00     0.146 C 
HETATM   15  C   UNL     1     -39.805 -52.086  13.352  1.00  0.00     0.303 C 
HETATM   16  C   UNL     1     -39.454 -54.515  13.969  1.00  0.00     0.041 C 
ENDBRANCH   8   9
ENDBRANCH   7   8
ENDBRANCH   1   7
BRANCH   4  17
HETATM   17  C   UNL     1     -43.736 -47.220   9.430  1.00  0.00     0.070 A 
HETATM   18  C   UNL     1     -43.575 -45.823   9.299  1.00  0.00     0.138 A 
HETATM   19  N   UNL     1     -44.727 -45.199   9.029  1.00  0.00    -0.310 N 
HETATM   20  N   UNL     1     -45.618 -46.200   8.972  1.00  0.00    -0.310 N 
ATOM     21  HN  UNL     1     -44.889 -44.200   8.896  1.00  0.00     0.186 HD
HETATM   22  C   UNL     1     -45.082 -47.427   9.240  1.00  0.00     0.138 A 
HETATM   23  H   UNL     1     -46.578 -45.970   8.735  1.00  0.00     0.186 HD
ENDBRANCH   4  17
TORSDOF 4
ENDMDL
MODEL 5
REMARK VINA RESULT:      -5.9      2.838      6.279
REMARK  4 active torsions:
REMARK  status: ('A' for Active; 'I' for Inactive)
REMARK    1  A    between atoms: N_4  and  C_5 
REMARK    2  A    between atoms: C_5  and  C_6 
REMARK    3  A    between atoms: C_6  and  N_7 
REMARK       I    between atoms: N_7  and  C_8 
REMARK       I    between atoms: C_8  and  N_10 
REMARK    4  A    between atoms: N_10  and  C_11 
ROOT
HETATM    1  N   UNL     1     -41.374 -51.907  11.572  1.00  0.00    -0.341 N 
HETATM    2  C   UNL     1     -42.387 -52.212  12.466  1.00  0.00     0.320 C 
HETATM    3  O   UNL     1     -42.435 -51.735  13.593  1.00  0.00    -0.247 OA
HETATM    4  N   UNL     1     -43.329 -53.038  11.904  1.00  0.00    -0.306 N 
HETATM    5  H   UNL     1     -41.080 -52.670  10.979  1.00  0.00     0.164 HD
HETATM    6  H   UNL     1     -43.279 -53.216  10.915  1.00  0.00     0.171 HD
ENDROOT
BRANCH   1   7
HETATM    7  C   UNL     1     -40.344 -50.977  12.006  1.00  0.00     0.154 C 
BRANCH   7   8
HETATM    8  C   UNL     1     -40.273 -49.704  11.142  1.00  0.00     0.292 C 
BRANCH   8   9
HETATM    9  N   UNL     1     -40.852 -48.515  11.800  1.00  0.00     0.095 N 
HETATM   10  C   UNL     1     -42.313 -48.408  11.573  1.00  0.00     0.303 C 
HETATM   11  C   UNL     1     -42.918 -47.146  12.221  1.00  0.00     0.146 C 
HETATM   12  C   UNL     1     -42.935 -47.218  13.748  1.00  0.00     0.041 C 
HETATM   13  O   UNL     1     -42.258 -45.960  11.753  1.00  0.00    -0.378 OA
HETATM   14  C   UNL     1     -40.833 -46.013  11.934  1.00  0.00     0.146 C 
HETATM   15  C   UNL     1     -40.225 -47.276  11.282  1.00  0.00     0.303 C 
HETATM   16  C   UNL     1     -40.260 -44.746  11.312  1.00  0.00     0.041 C 
ENDBRANCH   8   9
ENDBRANCH   7   8
ENDBRANCH   1   7
BRANCH   4  17
HETATM   17  C   UNL     1     -44.497 -53.390  12.558  1.00  0.00     0.070 A 
HETATM   18  C   UNL     1     -44.799 -54.483  13.400  1.00  0.00     0.138 A 
HETATM   19  N   UNL     1     -46.050 -54.435  13.871  1.00  0.00    -0.310 N 
HETATM   20  N   UNL     1     -46.539 -53.303  13.341  1.00  0.00    -0.310 N 
ATOM     21  HN  UNL     1     -46.520 -55.099  14.487  1.00  0.00     0.186 HD
HETATM   22  C   UNL     1     -45.660 -52.658  12.519  1.00  0.00     0.138 A 
HETATM   23  H   UNL     1     -47.482 -53.027  13.595  1.00  0.00     0.186 HD
ENDBRANCH   4  17
TORSDOF 4
ENDMDL
MODEL 6
REMARK VINA RESULT:      -5.8      2.673      6.439
REMARK  4 active torsions:
REMARK  status: ('A' for Active; 'I' for Inactive)
REMARK    1  A    between atoms: N_4  and  C_5 
REMARK    2  A    between atoms: C_5  and  C_6 
REMARK    3  A    between atoms: C_6  and  N_7 
REMARK       I    between atoms: N_7  and  C_8 
REMARK       I    between atoms: C_8  and  N_10 
REMARK    4  A    between atoms: N_10  and  C_11 
ROOT
HETATM    1  N   UNL     1     -42.262 -51.846  11.798  1.00  0.00    -0.341 N 
HETATM    2  C   UNL     1     -43.035 -52.410  12.800  1.00  0.00     0.320 C 
HETATM    3  O   UNL     1     -42.710 -52.375  13.980  1.00  0.00    -0.247 OA
HETATM    4  N   UNL     1     -44.206 -52.930  12.306  1.00  0.00    -0.306 N 
HETATM    5  H   UNL     1     -42.255 -52.352  10.924  1.00  0.00     0.164 HD
HETATM    6  H   UNL     1     -44.448 -52.737  11.348  1.00  0.00     0.171 HD
ENDROOT
BRANCH   1   7
HETATM    7  C   UNL     1     -41.026 -51.185  12.186  1.00  0.00     0.154 C 
BRANCH   7   8
HETATM    8  C   UNL     1     -40.747 -49.900  11.385  1.00  0.00     0.292 C 
BRANCH   8   9
HETATM    9  N   UNL     1     -41.863 -48.933  11.420  1.00  0.00     0.095 N 
HETATM   10  C   UNL     1     -41.795 -47.962  10.302  1.00  0.00     0.303 C 
HETATM   11  C   UNL     1     -42.934 -46.923  10.356  1.00  0.00     0.146 C 
HETATM   12  C   UNL     1     -44.301 -47.529  10.041  1.00  0.00     0.041 C 
HETATM   13  O   UNL     1     -42.938 -46.228  11.612  1.00  0.00    -0.378 OA
HETATM   14  C   UNL     1     -42.988 -47.122  12.737  1.00  0.00     0.146 C 
HETATM   15  C   UNL     1     -41.846 -48.162  12.686  1.00  0.00     0.303 C 
HETATM   16  C   UNL     1     -42.890 -46.263  13.991  1.00  0.00     0.041 C 
ENDBRANCH   8   9
ENDBRANCH   7   8
ENDBRANCH   1   7
BRANCH   4  17
HETATM   17  C   UNL     1     -45.197 -53.443  13.125  1.00  0.00     0.070 A 
HETATM   18  C   UNL     1     -46.329 -52.834  13.711  1.00  0.00     0.138 A 
HETATM   19  N   UNL     1     -47.072 -53.701  14.409  1.00  0.00    -0.310 N 
HETATM   20  N   UNL     1     -46.421 -54.864  14.253  1.00  0.00    -0.310 N 
ATOM     21  HN  UNL     1     -47.928 -53.521  14.933  1.00  0.00     0.186 HD
HETATM   22  C   UNL     1     -45.272 -54.757  13.522  1.00  0.00     0.138 A 
HETATM   23  H   UNL     1     -46.827 -55.696  14.670  1.00  0.00     0.186 HD
ENDBRANCH   4  17
TORSDOF 4
ENDMDL
MODEL 7
REMARK VINA RESULT:      -5.8      2.465      6.226
REMARK  4 active torsions:
REMARK  status: ('A' for Active; 'I' for Inactive)
REMARK    1  A    between atoms: N_4  and  C_5 
REMARK    2  A    between atoms: C_5  and  C_6 
REMARK    3  A    between atoms: C_6  and  N_7 
REMARK       I    between atoms: N_7  and  C_8 
REMARK       I    between atoms: C_8  and  N_10 
REMARK    4  A    between atoms: N_10  and  C_11 
ROOT
HETATM    1  N   UNL     1     -41.725 -51.753  11.710  1.00  0.00    -0.341 N 
HETATM    2  C   UNL     1     -42.693 -52.142  12.622  1.00  0.00     0.320 C 
HETATM    3  O   UNL     1     -42.746 -51.688  13.758  1.00  0.00    -0.247 OA
HETATM    4  N   UNL     1     -43.591 -53.020  12.067  1.00  0.00    -0.306 N 
HETATM    5  H   UNL     1     -41.395 -52.483  11.096  1.00  0.00     0.164 HD
HETATM    6  H   UNL     1     -43.553 -53.177  11.073  1.00  0.00     0.171 HD
ENDROOT
BRANCH   1   7
HETATM    7  C   UNL     1     -40.750 -50.762  12.137  1.00  0.00     0.154 C 
BRANCH   7   8
HETATM    8  C   UNL     1     -40.336 -49.794  11.013  1.00  0.00     0.292 C 
BRANCH   8   9
HETATM    9  N   UNL     1     -40.799 -48.409  11.230  1.00  0.00     0.095 N 
HETATM   10  C   UNL     1     -41.375 -48.219  12.583  1.00  0.00     0.303 C 
HETATM   11  C   UNL     1     -41.899 -46.784  12.802  1.00  0.00     0.146 C 
HETATM   12  C   UNL     1     -40.775 -45.753  12.892  1.00  0.00     0.041 C 
HETATM   13  O   UNL     1     -42.866 -46.431  11.802  1.00  0.00    -0.378 OA
HETATM   14  C   UNL     1     -42.368 -46.610  10.465  1.00  0.00     0.146 C 
HETATM   15  C   UNL     1     -41.844 -48.048  10.243  1.00  0.00     0.303 C 
HETATM   16  C   UNL     1     -43.517 -46.294   9.517  1.00  0.00     0.041 C 
ENDBRANCH   8   9
ENDBRANCH   7   8
ENDBRANCH   1   7
BRANCH   4  17
HETATM   17  C   UNL     1     -44.715 -53.462  12.741  1.00  0.00     0.070 A 
HETATM   18  C   UNL     1     -44.962 -54.652  13.461  1.00  0.00     0.138 A 
HETATM   19  N   UNL     1     -46.182 -54.675  14.008  1.00  0.00    -0.310 N 
HETATM   20  N   UNL     1     -46.707 -53.493  13.648  1.00  0.00    -0.310 N 
ATOM     21  HN  UNL     1     -46.612 -55.414  14.565  1.00  0.00     0.186 HD
HETATM   22  C   UNL     1     -45.882 -52.744  12.858  1.00  0.00     0.138 A 
HETATM   23  H   UNL     1     -47.635 -53.261  13.987  1.00  0.00     0.186 HD
ENDBRANCH   4  17
TORSDOF 4
ENDMDL
MODEL 8
REMARK VINA RESULT:      -5.7      2.894      4.044
REMARK  4 active torsions:
REMARK  status: ('A' for Active; 'I' for Inactive)
REMARK    1  A    between atoms: N_4  and  C_5 
REMARK    2  A    between atoms: C_5  and  C_6 
REMARK    3  A    between atoms: C_6  and  N_7 
REMARK       I    between atoms: N_7  and  C_8 
REMARK       I    between atoms: C_8  and  N_10 
REMARK    4  A    between atoms: N_10  and  C_11 
ROOT
HETATM    1  N   UNL     1     -40.908 -49.288  10.421  1.00  0.00    -0.341 N 
HETATM    2  C   UNL     1     -41.984 -48.430  10.576  1.00  0.00     0.320 C 
HETATM    3  O   UNL     1     -42.328 -47.999  11.670  1.00  0.00    -0.247 OA
HETATM    4  N   UNL     1     -42.541 -48.089   9.369  1.00  0.00    -0.306 N 
HETATM    5  H   UNL     1     -41.019 -49.993   9.706  1.00  0.00     0.164 HD
HETATM    6  H   UNL     1     -42.058 -48.359   8.527  1.00  0.00     0.171 HD
ENDROOT
BRANCH   1   7
HETATM    7  C   UNL     1     -40.168 -49.672  11.613  1.00  0.00     0.154 C 
BRANCH   7   8
HETATM    8  C   UNL     1     -38.903 -48.826  11.842  1.00  0.00     0.292 C 
BRANCH   8   9
HETATM    9  N   UNL     1     -38.630 -48.552  13.267  1.00  0.00     0.095 N 
HETATM   10  C   UNL     1     -37.712 -49.552  13.863  1.00  0.00     0.303 C 
HETATM   11  C   UNL     1     -37.457 -49.296  15.362  1.00  0.00     0.146 C 
HETATM   12  C   UNL     1     -36.614 -48.045  15.612  1.00  0.00     0.041 C 
HETATM   13  O   UNL     1     -38.689 -49.261  16.096  1.00  0.00    -0.378 OA
HETATM   14  C   UNL     1     -39.628 -48.316  15.554  1.00  0.00     0.146 C 
HETATM   15  C   UNL     1     -39.887 -48.573  14.052  1.00  0.00     0.303 C 
HETATM   16  C   UNL     1     -40.912 -48.453  16.362  1.00  0.00     0.041 C 
ENDBRANCH   8   9
ENDBRANCH   7   8
ENDBRANCH   1   7
BRANCH   4  17
HETATM   17  C   UNL     1     -43.554 -47.154   9.253  1.00  0.00     0.070 A 
HETATM   18  C   UNL     1     -43.527 -45.742   9.293  1.00  0.00     0.138 A 
HETATM   19  N   UNL     1     -44.735 -45.202   9.094  1.00  0.00    -0.310 N 
HETATM   20  N   UNL     1     -45.527 -46.270   8.912  1.00  0.00    -0.310 N 
ATOM     21  HN  UNL     1     -44.992 -44.215   9.083  1.00  0.00     0.186 HD
HETATM   22  C   UNL     1     -44.875 -47.464   9.032  1.00  0.00     0.138 A 
HETATM   23  H   UNL     1     -46.506 -46.105   8.699  1.00  0.00     0.186 HD
ENDBRANCH   4  17
TORSDOF 4
ENDMDL
MODEL 9
REMARK VINA RESULT:      -5.6      3.437      6.441
REMARK  4 active torsions:
REMARK  status: ('A' for Active; 'I' for Inactive)
REMARK    1  A    between atoms: N_4  and  C_5 
REMARK    2  A    between atoms: C_5  and  C_6 
REMARK    3  A    between atoms: C_6  and  N_7 
REMARK       I    between atoms: N_7  and  C_8 
REMARK       I    between atoms: C_8  and  N_10 
REMARK    4  A    between atoms: N_10  and  C_11 
ROOT
HETATM    1  N   UNL     1     -41.783 -52.196  11.551  1.00  0.00    -0.341 N 
HETATM    2  C   UNL     1     -42.689 -52.556  12.534  1.00  0.00     0.320 C 
HETATM    3  O   UNL     1     -42.525 -52.274  13.714  1.00  0.00    -0.247 OA
HETATM    4  N   UNL     1     -43.789 -53.187  12.006  1.00  0.00    -0.306 N 
HETATM    5  H   UNL     1     -41.663 -52.870  10.808  1.00  0.00     0.164 HD
HETATM    6  H   UNL     1     -43.897 -53.198  11.005  1.00  0.00     0.171 HD
ENDROOT
BRANCH   1   7
HETATM    7  C   UNL     1     -40.603 -51.448  11.956  1.00  0.00     0.154 C 
BRANCH   7   8
HETATM    8  C   UNL     1     -40.527 -50.045  11.327  1.00  0.00     0.292 C 
BRANCH   8   9
HETATM    9  N   UNL     1     -40.365 -48.964  12.320  1.00  0.00     0.095 N 
HETATM   10  C   UNL     1     -40.581 -47.623  11.726  1.00  0.00     0.303 C 
HETATM   11  C   UNL     1     -40.372 -46.487  12.749  1.00  0.00     0.146 C 
HETATM   12  C   UNL     1     -41.470 -46.440  13.811  1.00  0.00     0.041 C 
HETATM   13  O   UNL     1     -39.066 -46.560  13.339  1.00  0.00    -0.378 OA
HETATM   14  C   UNL     1     -38.793 -47.846  13.919  1.00  0.00     0.146 C 
HETATM   15  C   UNL     1     -39.000 -48.986  12.895  1.00  0.00     0.303 C 
HETATM   16  C   UNL     1     -37.354 -47.812  14.417  1.00  0.00     0.041 C 
ENDBRANCH   8   9
ENDBRANCH   7   8
ENDBRANCH   1   7
BRANCH   4  17
HETATM   17  C   UNL     1     -44.886 -53.538  12.772  1.00  0.00     0.070 A 
HETATM   18  C   UNL     1     -45.169 -54.709  13.511  1.00  0.00     0.138 A 
HETATM   19  N   UNL     1     -46.338 -54.634  14.158  1.00  0.00    -0.310 N 
HETATM   20  N   UNL     1     -46.791 -53.411  13.843  1.00  0.00    -0.310 N 
ATOM     21  HN  UNL     1     -46.779 -55.339  14.750  1.00  0.00     0.186 HD
HETATM   22  C   UNL     1     -45.975 -52.727  12.986  1.00  0.00     0.138 A 
HETATM   23  H   UNL     1     -47.665 -53.105  14.259  1.00  0.00     0.186 HD
ENDBRANCH   4  17
TORSDOF 4
ENDMDL
