MODEL 1
REMARK VINA RESULT:      -5.8      0.000      0.000
REMARK  6 active torsions:
REMARK  status: ('A' for Active; 'I' for Inactive)
REMARK    1  A    between atoms: N_7  and  C_8 
REMARK    2  A    between atoms: C_8  and  C_9 
REMARK    3  A    between atoms: C_9  and  C_10 
REMARK    4  A    between atoms: C_10  and  N_11 
REMARK       I    between atoms: N_11  and  C_12 
REMARK    5  A    between atoms: C_12  and  C_14 
REMARK    6  A    between atoms: C_14  and  N_15 
ROOT
HETATM    1  N   UNL     1     -42.635 -48.656  11.067  1.00  0.00    -0.360 N 
HETATM    2  C   UNL     1     -41.913 -47.587  10.586  1.00  0.00     0.237 C 
HETATM    3  O   UNL     1     -40.723 -47.414  10.839  1.00  0.00    -0.272 OA
HETATM    4  H   UNL     1     -43.633 -48.731  10.903  1.00  0.00     0.162 HD
ENDROOT
BRANCH   1   5
HETATM    5  C   UNL     1     -42.032 -49.662  11.922  1.00  0.00     0.124 C 
BRANCH   5   6
HETATM    6  C   UNL     1     -42.920 -50.018  13.112  1.00  0.00     0.050 C 
BRANCH   6   7
HETATM    7  C   UNL     1     -43.101 -51.531  13.317  1.00  0.00     0.274 C 
BRANCH   7   8
HETATM    8  N   UNL     1     -44.282 -51.898  14.116  1.00  0.00     0.092 N 
HETATM    9  C   UNL     1     -44.408 -53.363  14.299  1.00  0.00     0.219 C 
HETATM   10  C   UNL     1     -44.493 -54.179  12.999  1.00  0.00     0.043 C 
HETATM   11  C   UNL     1     -45.599 -53.682  15.225  1.00  0.00     0.035 C 
HETATM   12  C   UNL     1     -46.901 -53.062  14.732  1.00  0.00     0.004 C 
HETATM   13  C   UNL     1     -46.714 -51.570  14.506  1.00  0.00     0.030 C 
HETATM   14  C   UNL     1     -45.515 -51.282  13.603  1.00  0.00     0.273 C 
ENDBRANCH   7   8
ENDBRANCH   6   7
ENDBRANCH   5   6
ENDBRANCH   1   5
BRANCH   2  15
HETATM   15  C   UNL     1     -42.685 -46.627   9.718  1.00  0.00     0.249 C 
BRANCH  15  16
HETATM   16  N   UNL     1     -43.676 -47.326   8.943  1.00  0.00    -0.264 N 
HETATM   17  C   UNL     1     -43.575 -47.851   7.694  1.00  0.00     0.213 A 
HETATM   18  N   UNL     1     -44.743 -48.350   7.363  1.00  0.00    -0.281 N 
HETATM   19  N   UNL     1     -45.572 -48.121   8.436  1.00  0.00    -0.008 NA
ATOM     20  HN  UNL     1     -44.986 -48.815   6.487  1.00  0.00     0.184 HD
HETATM   21  N   UNL     1     -44.928 -47.485   9.406  1.00  0.00    -0.005 NA
ENDBRANCH  15  16
ENDBRANCH   2  15
TORSDOF 6
ENDMDL
MODEL 2
REMARK VINA RESULT:      -5.7      4.868      5.607
REMARK  6 active torsions:
REMARK  status: ('A' for Active; 'I' for Inactive)
REMARK    1  A    between atoms: N_7  and  C_8 
REMARK    2  A    between atoms: C_8  and  C_9 
REMARK    3  A    between atoms: C_9  and  C_10 
REMARK    4  A    between atoms: C_10  and  N_11 
REMARK       I    between atoms: N_11  and  C_12 
REMARK    5  A    between atoms: C_12  and  C_14 
REMARK    6  A    between atoms: C_14  and  N_15 
ROOT
HETATM    1  N   UNL     1     -40.009 -52.721  13.321  1.00  0.00    -0.360 N 
HETATM    2  C   UNL     1     -39.154 -52.248  14.292  1.00  0.00     0.237 C 
HETATM    3  O   UNL     1     -38.826 -52.908  15.275  1.00  0.00    -0.272 OA
HETATM    4  H   UNL     1     -40.320 -52.126  12.562  1.00  0.00     0.162 HD
ENDROOT
BRANCH   1   5
HETATM    5  C   UNL     1     -40.593 -54.047  13.399  1.00  0.00     0.124 C 
BRANCH   5   6
HETATM    6  C   UNL     1     -42.103 -54.029  13.173  1.00  0.00     0.050 C 
BRANCH   6   7
HETATM    7  C   UNL     1     -42.923 -54.085  14.472  1.00  0.00     0.274 C 
BRANCH   7   8
HETATM    8  N   UNL     1     -44.019 -53.104  14.540  1.00  0.00     0.092 N 
HETATM    9  C   UNL     1     -45.306 -53.720  14.940  1.00  0.00     0.219 C 
HETATM   10  C   UNL     1     -45.797 -54.858  14.031  1.00  0.00     0.043 C 
HETATM   11  C   UNL     1     -46.390 -52.634  15.092  1.00  0.00     0.035 C 
HETATM   12  C   UNL     1     -46.540 -51.782  13.838  1.00  0.00     0.004 C 
HETATM   13  C   UNL     1     -45.190 -51.214  13.431  1.00  0.00     0.030 C 
HETATM   14  C   UNL     1     -44.130 -52.308  13.308  1.00  0.00     0.273 C 
ENDBRANCH   7   8
ENDBRANCH   6   7
ENDBRANCH   5   6
ENDBRANCH   1   5
BRANCH   2  15
HETATM   15  C   UNL     1     -38.639 -50.849  14.070  1.00  0.00     0.249 C 
BRANCH  15  16
HETATM   16  N   UNL     1     -38.033 -50.730  12.770  1.00  0.00    -0.264 N 
HETATM   17  C   UNL     1     -38.283 -49.827  11.787  1.00  0.00     0.213 A 
HETATM   18  N   UNL     1     -37.534 -50.129  10.751  1.00  0.00    -0.281 N 
HETATM   19  N   UNL     1     -36.815 -51.244  11.116  1.00  0.00    -0.008 NA
ATOM     20  HN  UNL     1     -37.494 -49.637   9.859  1.00  0.00     0.184 HD
HETATM   21  N   UNL     1     -37.122 -51.624  12.349  1.00  0.00    -0.005 NA
ENDBRANCH  15  16
ENDBRANCH   2  15
TORSDOF 6
ENDMDL
MODEL 3
REMARK VINA RESULT:      -5.7      4.441      5.393
REMARK  6 active torsions:
REMARK  status: ('A' for Active; 'I' for Inactive)
REMARK    1  A    between atoms: N_7  and  C_8 
REMARK    2  A    between atoms: C_8  and  C_9 
REMARK    3  A    between atoms: C_9  and  C_10 
REMARK    4  A    between atoms: C_10  and  N_11 
REMARK       I    between atoms: N_11  and  C_12 
REMARK    5  A    between atoms: C_12  and  C_14 
REMARK    6  A    between atoms: C_14  and  N_15 
ROOT
HETATM    1  N   UNL     1     -40.731 -52.670  12.935  1.00  0.00    -0.360 N 
HETATM    2  C   UNL     1     -40.105 -52.050  13.993  1.00  0.00     0.237 C 
HETATM    3  O   UNL     1     -39.907 -52.604  15.073  1.00  0.00    -0.272 OA
HETATM    4  H   UNL     1     -40.947 -52.163  12.084  1.00  0.00     0.162 HD
ENDROOT
BRANCH   1   5
HETATM    5  C   UNL     1     -41.212 -54.035  13.027  1.00  0.00     0.124 C 
BRANCH   5   6
HETATM    6  C   UNL     1     -42.646 -54.111  13.546  1.00  0.00     0.050 C 
BRANCH   6   7
HETATM    7  C   UNL     1     -43.679 -53.470  12.605  1.00  0.00     0.274 C 
BRANCH   7   8
HETATM    8  N   UNL     1     -44.957 -53.128  13.250  1.00  0.00     0.092 N 
HETATM    9  C   UNL     1     -45.280 -51.685  13.136  1.00  0.00     0.219 C 
HETATM   10  C   UNL     1     -44.226 -50.732  13.723  1.00  0.00     0.043 C 
HETATM   11  C   UNL     1     -46.671 -51.403  13.739  1.00  0.00     0.035 C 
HETATM   12  C   UNL     1     -46.793 -51.895  15.176  1.00  0.00     0.004 C 
HETATM   13  C   UNL     1     -46.402 -53.362  15.258  1.00  0.00     0.030 C 
HETATM   14  C   UNL     1     -45.030 -53.617  14.636  1.00  0.00     0.273 C 
ENDBRANCH   7   8
ENDBRANCH   6   7
ENDBRANCH   5   6
ENDBRANCH   1   5
BRANCH   2  15
HETATM   15  C   UNL     1     -39.670 -50.629  13.742  1.00  0.00     0.249 C 
BRANCH  15  16
HETATM   16  N   UNL     1     -38.724 -50.570  12.659  1.00  0.00    -0.264 N 
HETATM   17  C   UNL     1     -38.712 -49.752  11.574  1.00  0.00     0.213 A 
HETATM   18  N   UNL     1     -37.691 -50.087  10.819  1.00  0.00    -0.281 N 
HETATM   19  N   UNL     1     -37.072 -51.134  11.461  1.00  0.00    -0.008 NA
ATOM     20  HN  UNL     1     -37.414 -49.657   9.936  1.00  0.00     0.184 HD
HETATM   21  N   UNL     1     -37.704 -51.443  12.585  1.00  0.00    -0.005 NA
ENDBRANCH  15  16
ENDBRANCH   2  15
TORSDOF 6
ENDMDL
MODEL 4
REMARK VINA RESULT:      -5.5      1.179      1.950
REMARK  6 active torsions:
REMARK  status: ('A' for Active; 'I' for Inactive)
REMARK    1  A    between atoms: N_7  and  C_8 
REMARK    2  A    between atoms: C_8  and  C_9 
REMARK    3  A    between atoms: C_9  and  C_10 
REMARK    4  A    between atoms: C_10  and  N_11 
REMARK       I    between atoms: N_11  and  C_12 
REMARK    5  A    between atoms: C_12  and  C_14 
REMARK    6  A    between atoms: C_14  and  N_15 
ROOT
HETATM    1  N   UNL     1     -43.024 -48.632  11.207  1.00  0.00    -0.360 N 
HETATM    2  C   UNL     1     -43.021 -47.284  10.927  1.00  0.00     0.237 C 
HETATM    3  O   UNL     1     -43.021 -46.418  11.800  1.00  0.00    -0.272 OA
HETATM    4  H   UNL     1     -43.100 -49.321  10.467  1.00  0.00     0.162 HD
ENDROOT
BRANCH   1   5
HETATM    5  C   UNL     1     -43.034 -49.128  12.570  1.00  0.00     0.124 C 
BRANCH   5   6
HETATM    6  C   UNL     1     -42.313 -50.468  12.705  1.00  0.00     0.050 C 
BRANCH   6   7
HETATM    7  C   UNL     1     -42.671 -51.236  13.988  1.00  0.00     0.274 C 
BRANCH   7   8
HETATM    8  N   UNL     1     -43.217 -52.583  13.756  1.00  0.00     0.092 N 
HETATM    9  C   UNL     1     -44.595 -52.548  13.210  1.00  0.00     0.219 C 
HETATM   10  C   UNL     1     -45.623 -51.804  14.077  1.00  0.00     0.043 C 
HETATM   11  C   UNL     1     -45.077 -53.978  12.894  1.00  0.00     0.035 C 
HETATM   12  C   UNL     1     -44.973 -54.907  14.097  1.00  0.00     0.004 C 
HETATM   13  C   UNL     1     -43.560 -54.872  14.659  1.00  0.00     0.030 C 
HETATM   14  C   UNL     1     -43.100 -53.443  14.944  1.00  0.00     0.273 C 
ENDBRANCH   7   8
ENDBRANCH   6   7
ENDBRANCH   5   6
ENDBRANCH   1   5
BRANCH   2  15
HETATM   15  C   UNL     1     -43.018 -46.930   9.462  1.00  0.00     0.249 C 
BRANCH  15  16
HETATM   16  N   UNL     1     -44.139 -47.534   8.791  1.00  0.00    -0.264 N 
HETATM   17  C   UNL     1     -44.181 -48.161   7.586  1.00  0.00     0.213 A 
HETATM   18  N   UNL     1     -45.424 -48.509   7.348  1.00  0.00    -0.281 N 
HETATM   19  N   UNL     1     -46.153 -48.081   8.433  1.00  0.00    -0.008 NA
ATOM     20  HN  UNL     1     -45.777 -48.998   6.525  1.00  0.00     0.184 HD
HETATM   21  N   UNL     1     -45.374 -47.474   9.318  1.00  0.00    -0.005 NA
ENDBRANCH  15  16
ENDBRANCH   2  15
TORSDOF 6
ENDMDL
MODEL 5
REMARK VINA RESULT:      -5.4      1.919      2.271
REMARK  6 active torsions:
REMARK  status: ('A' for Active; 'I' for Inactive)
REMARK    1  A    between atoms: N_7  and  C_8 
REMARK    2  A    between atoms: C_8  and  C_9 
REMARK    3  A    between atoms: C_9  and  C_10 
REMARK    4  A    between atoms: C_10  and  N_11 
REMARK       I    between atoms: N_11  and  C_12 
REMARK    5  A    between atoms: C_12  and  C_14 
REMARK    6  A    between atoms: C_14  and  N_15 
ROOT
HETATM    1  N   UNL     1     -42.065 -48.667  10.524  1.00  0.00    -0.360 N 
HETATM    2  C   UNL     1     -41.842 -47.312  10.425  1.00  0.00     0.237 C 
HETATM    3  O   UNL     1     -40.757 -46.791  10.671  1.00  0.00    -0.272 OA
HETATM    4  H   UNL     1     -42.990 -49.058  10.388  1.00  0.00     0.162 HD
ENDROOT
BRANCH   1   5
HETATM    5  C   UNL     1     -41.019 -49.584  10.937  1.00  0.00     0.124 C 
BRANCH   5   6
HETATM    6  C   UNL     1     -41.378 -50.335  12.217  1.00  0.00     0.050 C 
BRANCH   6   7
HETATM    7  C   UNL     1     -41.433 -51.862  12.043  1.00  0.00     0.274 C 
BRANCH   7   8
HETATM    8  N   UNL     1     -41.675 -52.606  13.289  1.00  0.00     0.092 N 
HETATM    9  C   UNL     1     -42.563 -53.776  13.087  1.00  0.00     0.219 C 
HETATM   10  C   UNL     1     -43.945 -53.453  12.498  1.00  0.00     0.043 C 
HETATM   11  C   UNL     1     -42.699 -54.572  14.400  1.00  0.00     0.035 C 
HETATM   12  C   UNL     1     -43.169 -53.704  15.561  1.00  0.00     0.004 C 
HETATM   13  C   UNL     1     -42.265 -52.490  15.700  1.00  0.00     0.030 C 
HETATM   14  C   UNL     1     -42.131 -51.731  14.380  1.00  0.00     0.273 C 
ENDBRANCH   7   8
ENDBRANCH   6   7
ENDBRANCH   5   6
ENDBRANCH   1   5
BRANCH   2  15
HETATM   15  C   UNL     1     -43.032 -46.495   9.991  1.00  0.00     0.249 C 
BRANCH  15  16
HETATM   16  N   UNL     1     -43.835 -47.227   9.048  1.00  0.00    -0.264 N 
HETATM   17  C   UNL     1     -45.150 -47.561   9.118  1.00  0.00     0.213 A 
HETATM   18  N   UNL     1     -45.450 -48.277   8.059  1.00  0.00    -0.281 N 
HETATM   19  N   UNL     1     -44.287 -48.381   7.331  1.00  0.00    -0.008 NA
ATOM     20  HN  UNL     1     -46.359 -48.674   7.824  1.00  0.00     0.184 HD
HETATM   21  N   UNL     1     -43.290 -47.748   7.935  1.00  0.00    -0.005 NA
ENDBRANCH  15  16
ENDBRANCH   2  15
TORSDOF 6
ENDMDL
MODEL 6
REMARK VINA RESULT:      -5.4      4.236      5.740
REMARK  6 active torsions:
REMARK  status: ('A' for Active; 'I' for Inactive)
REMARK    1  A    between atoms: N_7  and  C_8 
REMARK    2  A    between atoms: C_8  and  C_9 
REMARK    3  A    between atoms: C_9  and  C_10 
REMARK    4  A    between atoms: C_10  and  N_11 
REMARK       I    between atoms: N_11  and  C_12 
REMARK    5  A    between atoms: C_12  and  C_14 
REMARK    6  A    between atoms: C_14  and  N_15 
ROOT
HETATM    1  N   UNL     1     -42.986 -53.176  12.183  1.00  0.00    -0.360 N 
HETATM    2  C   UNL     1     -42.625 -51.882  12.489  1.00  0.00     0.237 C 
HETATM    3  O   UNL     1     -43.381 -51.088  13.042  1.00  0.00    -0.272 OA
HETATM    4  H   UNL     1     -42.367 -53.783  11.659  1.00  0.00     0.162 HD
ENDROOT
BRANCH   1   5
HETATM    5  C   UNL     1     -44.306 -53.692  12.493  1.00  0.00     0.124 C 
BRANCH   5   6
HETATM    6  C   UNL     1     -44.383 -54.279  13.901  1.00  0.00     0.050 C 
BRANCH   6   7
HETATM    7  C   UNL     1     -45.803 -54.287  14.491  1.00  0.00     0.274 C 
BRANCH   7   8
HETATM    8  N   UNL     1     -46.019 -53.306  15.567  1.00  0.00     0.092 N 
HETATM    9  C   UNL     1     -47.048 -52.299  15.216  1.00  0.00     0.219 C 
HETATM   10  C   UNL     1     -46.762 -51.490  13.940  1.00  0.00     0.043 C 
HETATM   11  C   UNL     1     -47.304 -51.362  16.413  1.00  0.00     0.035 C 
HETATM   12  C   UNL     1     -46.026 -50.706  16.922  1.00  0.00     0.004 C 
HETATM   13  C   UNL     1     -44.979 -51.769  17.219  1.00  0.00     0.030 C 
HETATM   14  C   UNL     1     -44.761 -52.696  16.024  1.00  0.00     0.273 C 
ENDBRANCH   7   8
ENDBRANCH   6   7
ENDBRANCH   5   6
ENDBRANCH   1   5
BRANCH   2  15
HETATM   15  C   UNL     1     -41.222 -51.497  12.095  1.00  0.00     0.249 C 
BRANCH  15  16
HETATM   16  N   UNL     1     -40.258 -52.154  12.938  1.00  0.00    -0.264 N 
HETATM   17  C   UNL     1     -39.376 -51.611  13.818  1.00  0.00     0.213 A 
HETATM   18  N   UNL     1     -38.654 -52.582  14.328  1.00  0.00    -0.281 N 
HETATM   19  N   UNL     1     -39.108 -53.741  13.740  1.00  0.00    -0.008 NA
ATOM     20  HN  UNL     1     -37.909 -52.495  15.019  1.00  0.00     0.184 HD
HETATM   21  N   UNL     1     -40.085 -53.486  12.880  1.00  0.00    -0.005 NA
ENDBRANCH  15  16
ENDBRANCH   2  15
TORSDOF 6
ENDMDL
MODEL 7
REMARK VINA RESULT:      -5.4      2.708      3.623
REMARK  6 active torsions:
REMARK  status: ('A' for Active; 'I' for Inactive)
REMARK    1  A    between atoms: N_7  and  C_8 
REMARK    2  A    between atoms: C_8  and  C_9 
REMARK    3  A    between atoms: C_9  and  C_10 
REMARK    4  A    between atoms: C_10  and  N_11 
REMARK       I    between atoms: N_11  and  C_12 
REMARK    5  A    between atoms: C_12  and  C_14 
REMARK    6  A    between atoms: C_14  and  N_15 
ROOT
HETATM    1  N   UNL     1     -41.424 -48.627  10.405  1.00  0.00    -0.360 N 
HETATM    2  C   UNL     1     -41.193 -47.314  10.749  1.00  0.00     0.237 C 
HETATM    3  O   UNL     1     -40.339 -46.974  11.565  1.00  0.00    -0.272 OA
HETATM    4  H   UNL     1     -42.185 -48.881   9.786  1.00  0.00     0.162 HD
ENDROOT
BRANCH   1   5
HETATM    5  C   UNL     1     -40.668 -49.714  10.998  1.00  0.00     0.124 C 
BRANCH   5   6
HETATM    6  C   UNL     1     -41.457 -50.446  12.081  1.00  0.00     0.050 C 
BRANCH   6   7
HETATM    7  C   UNL     1     -41.352 -51.977  11.995  1.00  0.00     0.274 C 
BRANCH   7   8
HETATM    8  N   UNL     1     -40.347 -52.568  12.893  1.00  0.00     0.092 N 
HETATM    9  C   UNL     1     -40.625 -53.993  13.194  1.00  0.00     0.219 C 
HETATM   10  C   UNL     1     -41.996 -54.270  13.833  1.00  0.00     0.043 C 
HETATM   11  C   UNL     1     -39.490 -54.585  14.054  1.00  0.00     0.035 C 
HETATM   12  C   UNL     1     -39.241 -53.780  15.324  1.00  0.00     0.004 C 
HETATM   13  C   UNL     1     -39.014 -52.317  14.975  1.00  0.00     0.030 C 
HETATM   14  C   UNL     1     -40.142 -51.762  14.106  1.00  0.00     0.273 C 
ENDBRANCH   7   8
ENDBRANCH   6   7
ENDBRANCH   5   6
ENDBRANCH   1   5
BRANCH   2  15
HETATM   15  C   UNL     1     -42.066 -46.302  10.051  1.00  0.00     0.249 C 
BRANCH  15  16
HETATM   16  N   UNL     1     -43.253 -46.929   9.531  1.00  0.00    -0.264 N 
HETATM   17  C   UNL     1     -43.621 -47.130   8.238  1.00  0.00     0.213 A 
HETATM   18  N   UNL     1     -44.808 -47.691   8.231  1.00  0.00    -0.281 N 
HETATM   19  N   UNL     1     -45.169 -47.830   9.551  1.00  0.00    -0.008 NA
ATOM     20  HN  UNL     1     -45.351 -47.967   7.413  1.00  0.00     0.184 HD
HETATM   21  N   UNL     1     -44.226 -47.356  10.354  1.00  0.00    -0.005 NA
ENDBRANCH  15  16
ENDBRANCH   2  15
TORSDOF 6
ENDMDL
MODEL 8
REMARK VINA RESULT:      -5.2      1.777      2.326
REMARK  6 active torsions:
REMARK  status: ('A' for Active; 'I' for Inactive)
REMARK    1  A    between atoms: N_7  and  C_8 
REMARK    2  A    between atoms: C_8  and  C_9 
REMARK    3  A    between atoms: C_9  and  C_10 
REMARK    4  A    between atoms: C_10  and  N_11 
REMARK       I    between atoms: N_11  and  C_12 
REMARK    5  A    between atoms: C_12  and  C_14 
REMARK    6  A    between atoms: C_14  and  N_15 
ROOT
HETATM    1  N   UNL     1     -42.170 -50.393  11.933  1.00  0.00    -0.360 N 
HETATM    2  C   UNL     1     -41.885 -49.343  12.777  1.00  0.00     0.237 C 
HETATM    3  O   UNL     1     -40.979 -49.375  13.606  1.00  0.00    -0.272 OA
HETATM    4  H   UNL     1     -42.971 -50.365  11.313  1.00  0.00     0.162 HD
ENDROOT
BRANCH   1   5
HETATM    5  C   UNL     1     -41.412 -51.629  11.971  1.00  0.00     0.124 C 
BRANCH   5   6
HETATM    6  C   UNL     1     -42.060 -52.679  12.871  1.00  0.00     0.050 C 
BRANCH   6   7
HETATM    7  C   UNL     1     -43.529 -52.970  12.523  1.00  0.00     0.274 C 
BRANCH   7   8
HETATM    8  N   UNL     1     -44.487 -52.595  13.576  1.00  0.00     0.092 N 
HETATM    9  C   UNL     1     -44.826 -53.733  14.464  1.00  0.00     0.219 C 
HETATM   10  C   UNL     1     -45.417 -54.962  13.755  1.00  0.00     0.043 C 
HETATM   11  C   UNL     1     -45.750 -53.259  15.603  1.00  0.00     0.035 C 
HETATM   12  C   UNL     1     -47.001 -52.559  15.085  1.00  0.00     0.004 C 
HETATM   13  C   UNL     1     -46.611 -51.435  14.137  1.00  0.00     0.030 C 
HETATM   14  C   UNL     1     -45.678 -51.927  13.031  1.00  0.00     0.273 C 
ENDBRANCH   7   8
ENDBRANCH   6   7
ENDBRANCH   5   6
ENDBRANCH   1   5
BRANCH   2  15
HETATM   15  C   UNL     1     -42.769 -48.132  12.618  1.00  0.00     0.249 C 
BRANCH  15  16
HETATM   16  N   UNL     1     -42.621 -47.563  11.304  1.00  0.00    -0.264 N 
HETATM   17  C   UNL     1     -41.655 -46.732  10.833  1.00  0.00     0.213 A 
HETATM   18  N   UNL     1     -41.949 -46.422   9.592  1.00  0.00    -0.281 N 
HETATM   19  N   UNL     1     -43.122 -47.079   9.305  1.00  0.00    -0.008 NA
ATOM     20  HN  UNL     1     -41.414 -45.818   8.967  1.00  0.00     0.184 HD
HETATM   21  N   UNL     1     -43.547 -47.773  10.353  1.00  0.00    -0.005 NA
ENDBRANCH  15  16
ENDBRANCH   2  15
TORSDOF 6
ENDMDL
MODEL 9
REMARK VINA RESULT:      -5.1      4.225      7.031
REMARK  6 active torsions:
REMARK  status: ('A' for Active; 'I' for Inactive)
REMARK    1  A    between atoms: N_7  and  C_8 
REMARK    2  A    between atoms: C_8  and  C_9 
REMARK    3  A    between atoms: C_9  and  C_10 
REMARK    4  A    between atoms: C_10  and  N_11 
REMARK       I    between atoms: N_11  and  C_12 
REMARK    5  A    between atoms: C_12  and  C_14 
REMARK    6  A    between atoms: C_14  and  N_15 
ROOT
HETATM    1  N   UNL     1     -43.264 -53.993  13.795  1.00  0.00    -0.360 N 
HETATM    2  C   UNL     1     -44.110 -54.939  14.330  1.00  0.00     0.237 C 
HETATM    3  O   UNL     1     -43.739 -55.795  15.129  1.00  0.00    -0.272 OA
HETATM    4  H   UNL     1     -43.582 -53.348  13.081  1.00  0.00     0.162 HD
ENDROOT
BRANCH   1   5
HETATM    5  C   UNL     1     -41.855 -53.948  14.140  1.00  0.00     0.124 C 
BRANCH   5   6
HETATM    6  C   UNL     1     -40.955 -53.957  12.907  1.00  0.00     0.050 C 
BRANCH   6   7
HETATM    7  C   UNL     1     -40.834 -52.587  12.220  1.00  0.00     0.274 C 
BRANCH   7   8
HETATM    8  N   UNL     1     -40.420 -51.494  13.115  1.00  0.00     0.092 N 
HETATM    9  C   UNL     1     -40.852 -50.164  12.622  1.00  0.00     0.219 C 
HETATM   10  C   UNL     1     -40.347 -49.793  11.218  1.00  0.00     0.043 C 
HETATM   11  C   UNL     1     -40.480 -49.073  13.645  1.00  0.00     0.035 C 
HETATM   12  C   UNL     1     -38.998 -49.087  13.999  1.00  0.00     0.004 C 
HETATM   13  C   UNL     1     -38.585 -50.480  14.448  1.00  0.00     0.030 C 
HETATM   14  C   UNL     1     -38.983 -51.544  13.426  1.00  0.00     0.273 C 
ENDBRANCH   7   8
ENDBRANCH   6   7
ENDBRANCH   5   6
ENDBRANCH   1   5
BRANCH   2  15
HETATM   15  C   UNL     1     -45.542 -54.857  13.866  1.00  0.00     0.249 C 
BRANCH  15  16
HETATM   16  N   UNL     1     -45.928 -53.488  13.647  1.00  0.00    -0.264 N 
HETATM   17  C   UNL     1     -46.478 -52.602  14.518  1.00  0.00     0.213 A 
HETATM   18  N   UNL     1     -46.715 -51.484  13.872  1.00  0.00    -0.281 N 
HETATM   19  N   UNL     1     -46.301 -51.698  12.578  1.00  0.00    -0.008 NA
ATOM     20  HN  UNL     1     -47.123 -50.630  14.253  1.00  0.00     0.184 HD
HETATM   21  N   UNL     1     -45.826 -52.928  12.429  1.00  0.00    -0.005 NA
ENDBRANCH  15  16
ENDBRANCH   2  15
TORSDOF 6
ENDMDL
