MODEL 1
REMARK VINA RESULT:      -5.5      0.000      0.000
REMARK  5 active torsions:
REMARK  status: ('A' for Active; 'I' for Inactive)
REMARK    1  A    between atoms: C_1  and  C_10 
REMARK    2  A    between atoms: N_7  and  C_10 
REMARK    3  A    between atoms: N_7  and  C_9 
REMARK    4  A    between atoms: N_7  and  C_16 
REMARK    5  A    between atoms: C_12  and  O_15 
ROOT
HETATM    1  N   UNL     1     -41.502 -46.328  10.672  1.00  0.00     0.104 N 
ENDROOT
BRANCH   1   2
HETATM    2  C   UNL     1     -41.114 -47.101  11.885  1.00  0.00     0.358 C 
BRANCH   2   3
HETATM    3  C   UNL     1     -40.295 -48.326  11.609  1.00  0.00     0.168 A 
HETATM    4  N   UNL     1     -40.651 -49.294  10.745  1.00  0.00    -0.280 N 
HETATM    5  N   UNL     1     -39.658 -50.168  10.733  1.00  0.00    -0.282 N 
ATOM      6  HN  UNL     1     -41.515 -49.345  10.205  1.00  0.00     0.189 HD
HETATM    7  C   UNL     1     -38.730 -49.701  11.587  1.00  0.00     0.136 A 
ATOM      8  HN  UNL     1     -39.606 -51.026  10.184  1.00  0.00     0.189 HD
HETATM    9  O   UNL     1     -39.111 -48.567  12.129  1.00  0.00    -0.281 OA
HETATM   10  C   UNL     1     -37.436 -50.391  11.873  1.00  0.00     0.099 C 
ENDBRANCH   2   3
ENDBRANCH   1   2
BRANCH   1  11
HETATM   11  C   UNL     1     -42.947 -46.313  10.269  1.00  0.00     0.281 C 
HETATM   12  C   UNL     1     -43.577 -47.547   9.584  1.00  0.00     0.181 C 
HETATM   13  C   UNL     1     -44.751 -46.935   8.779  1.00  0.00     0.303 C 
HETATM   14  N   UNL     1     -44.819 -45.519   9.150  1.00  0.00     0.088 N 
HETATM   15  C   UNL     1     -43.426 -45.166   9.410  1.00  0.00     0.308 C 
HETATM   16  H   UNL     1     -45.216 -44.941   8.373  1.00  0.00     0.316 HD
BRANCH  12  17
HETATM   17  O   UNL     1     -42.720 -48.268   8.737  1.00  0.00    -0.392 OA
HETATM   18  H   UNL     1     -43.178 -49.106   8.470  1.00  0.00     0.210 HD
ENDBRANCH  12  17
ENDBRANCH   1  11
BRANCH   1  19
HETATM   19  C   UNL     1     -40.989 -44.934  10.720  1.00  0.00     0.269 C 
HETATM   20  C   UNL     1     -39.578 -44.782  10.136  1.00  0.00     0.037 C 
ENDBRANCH   1  19
TORSDOF 5
ENDMDL
MODEL 2
REMARK VINA RESULT:      -5.4      1.901      2.148
REMARK  5 active torsions:
REMARK  status: ('A' for Active; 'I' for Inactive)
REMARK    1  A    between atoms: C_1  and  C_10 
REMARK    2  A    between atoms: N_7  and  C_10 
REMARK    3  A    between atoms: N_7  and  C_9 
REMARK    4  A    between atoms: N_7  and  C_16 
REMARK    5  A    between atoms: C_12  and  O_15 
ROOT
HETATM    1  N   UNL     1     -41.325 -46.928  10.429  1.00  0.00     0.104 N 
ENDROOT
BRANCH   1   2
HETATM    2  C   UNL     1     -40.422 -47.720  11.309  1.00  0.00     0.358 C 
BRANCH   2   3
HETATM    3  C   UNL     1     -40.772 -49.174  11.416  1.00  0.00     0.168 A 
HETATM    4  N   UNL     1     -40.354 -50.119  10.554  1.00  0.00    -0.280 N 
HETATM    5  N   UNL     1     -40.816 -51.272  11.008  1.00  0.00    -0.282 N 
ATOM      6  HN  UNL     1     -39.792 -49.974   9.715  1.00  0.00     0.189 HD
HETATM    7  C   UNL     1     -41.497 -50.991  12.134  1.00  0.00     0.136 A 
ATOM      8  HN  UNL     1     -40.683 -52.191  10.589  1.00  0.00     0.189 HD
HETATM    9  O   UNL     1     -41.473 -49.703  12.395  1.00  0.00    -0.281 OA
HETATM   10  C   UNL     1     -42.185 -52.018  12.972  1.00  0.00     0.099 C 
ENDBRANCH   2   3
ENDBRANCH   1   2
BRANCH   1  11
HETATM   11  C   UNL     1     -42.594 -47.569   9.948  1.00  0.00     0.281 C 
HETATM   12  C   UNL     1     -43.057 -47.378   8.486  1.00  0.00     0.181 C 
HETATM   13  C   UNL     1     -44.590 -47.580   8.579  1.00  0.00     0.303 C 
HETATM   14  N   UNL     1     -44.873 -48.003   9.953  1.00  0.00     0.088 N 
HETATM   15  C   UNL     1     -43.855 -47.314  10.740  1.00  0.00     0.308 C 
HETATM   16  H   UNL     1     -45.836 -47.717  10.248  1.00  0.00     0.316 HD
BRANCH  12  17
HETATM   17  O   UNL     1     -42.757 -46.129   7.919  1.00  0.00    -0.392 OA
HETATM   18  H   UNL     1     -42.076 -45.685   8.487  1.00  0.00     0.210 HD
ENDBRANCH  12  17
ENDBRANCH   1  11
BRANCH   1  19
HETATM   19  C   UNL     1     -41.636 -45.597  11.014  1.00  0.00     0.269 C 
HETATM   20  C   UNL     1     -40.491 -44.586  10.873  1.00  0.00     0.037 C 
ENDBRANCH   1  19
TORSDOF 5
ENDMDL
MODEL 3
REMARK VINA RESULT:      -5.2      5.565      7.206
REMARK  5 active torsions:
REMARK  status: ('A' for Active; 'I' for Inactive)
REMARK    1  A    between atoms: C_1  and  C_10 
REMARK    2  A    between atoms: N_7  and  C_10 
REMARK    3  A    between atoms: N_7  and  C_9 
REMARK    4  A    between atoms: N_7  and  C_16 
REMARK    5  A    between atoms: C_12  and  O_15 
ROOT
HETATM    1  N   UNL     1     -42.449 -53.980  13.962  1.00  0.00     0.104 N 
ENDROOT
BRANCH   1   2
HETATM    2  C   UNL     1     -41.383 -54.165  12.940  1.00  0.00     0.358 C 
BRANCH   2   3
HETATM    3  C   UNL     1     -40.800 -52.891  12.406  1.00  0.00     0.168 A 
HETATM    4  N   UNL     1     -41.261 -52.246  11.319  1.00  0.00    -0.280 N 
HETATM    5  N   UNL     1     -40.536 -51.146  11.201  1.00  0.00    -0.282 N 
ATOM      6  HN  UNL     1     -42.020 -52.545  10.707  1.00  0.00     0.189 HD
HETATM    7  C   UNL     1     -39.660 -51.156  12.222  1.00  0.00     0.136 A 
ATOM      8  HN  UNL     1     -40.623 -50.431  10.479  1.00  0.00     0.189 HD
HETATM    9  O   UNL     1     -39.817 -52.225  12.971  1.00  0.00    -0.281 OA
HETATM   10  C   UNL     1     -38.646 -50.087  12.464  1.00  0.00     0.099 C 
ENDBRANCH   2   3
ENDBRANCH   1   2
BRANCH   1  11
HETATM   11  C   UNL     1     -43.881 -54.060  13.522  1.00  0.00     0.281 C 
HETATM   12  C   UNL     1     -44.468 -52.984  12.580  1.00  0.00     0.181 C 
HETATM   13  C   UNL     1     -45.982 -53.029  12.903  1.00  0.00     0.303 C 
HETATM   14  N   UNL     1     -46.180 -54.153  13.823  1.00  0.00     0.088 N 
HETATM   15  C   UNL     1     -44.940 -54.188  14.593  1.00  0.00     0.308 C 
HETATM   16  H   UNL     1     -47.007 -53.993  14.445  1.00  0.00     0.316 HD
BRANCH  12  17
HETATM   17  O   UNL     1     -43.962 -51.687  12.760  1.00  0.00    -0.392 OA
HETATM   18  H   UNL     1     -43.901 -51.251  11.872  1.00  0.00     0.210 HD
ENDBRANCH  12  17
ENDBRANCH   1  11
BRANCH   1  19
HETATM   19  C   UNL     1     -42.244 -54.866  15.139  1.00  0.00     0.269 C 
HETATM   20  C   UNL     1     -40.862 -54.712  15.785  1.00  0.00     0.037 C 
ENDBRANCH   1  19
TORSDOF 5
ENDMDL
MODEL 4
REMARK VINA RESULT:      -5.1      2.744      5.289
REMARK  5 active torsions:
REMARK  status: ('A' for Active; 'I' for Inactive)
REMARK    1  A    between atoms: C_1  and  C_10 
REMARK    2  A    between atoms: N_7  and  C_10 
REMARK    3  A    between atoms: N_7  and  C_9 
REMARK    4  A    between atoms: N_7  and  C_16 
REMARK    5  A    between atoms: C_12  and  O_15 
ROOT
HETATM    1  N   UNL     1     -41.709 -45.529  10.702  1.00  0.00     0.104 N 
ENDROOT
BRANCH   1   2
HETATM    2  C   UNL     1     -42.717 -46.526  11.156  1.00  0.00     0.358 C 
BRANCH   2   3
HETATM    3  C   UNL     1     -43.883 -46.701  10.230  1.00  0.00     0.168 A 
HETATM    4  N   UNL     1     -44.215 -45.830   9.260  1.00  0.00    -0.280 N 
HETATM    5  N   UNL     1     -45.253 -46.352   8.627  1.00  0.00    -0.282 N 
ATOM      6  HN  UNL     1     -43.757 -44.942   9.053  1.00  0.00     0.189 HD
HETATM    7  C   UNL     1     -45.515 -47.525   9.230  1.00  0.00     0.136 A 
ATOM      8  HN  UNL     1     -45.754 -45.946   7.838  1.00  0.00     0.189 HD
HETATM    9  O   UNL     1     -44.676 -47.751  10.217  1.00  0.00    -0.281 OA
HETATM   10  C   UNL     1     -46.619 -48.446   8.824  1.00  0.00     0.099 C 
ENDBRANCH   2   3
ENDBRANCH   1   2
BRANCH   1  11
HETATM   11  C   UNL     1     -41.638 -44.211  11.416  1.00  0.00     0.281 C 
HETATM   12  C   UNL     1     -42.838 -43.239  11.378  1.00  0.00     0.181 C 
HETATM   13  C   UNL     1     -42.174 -41.859  11.608  1.00  0.00     0.303 C 
HETATM   14  N   UNL     1     -40.762 -42.118  11.903  1.00  0.00     0.088 N 
HETATM   15  C   UNL     1     -40.461 -43.311  11.117  1.00  0.00     0.308 C 
HETATM   16  H   UNL     1     -40.159 -41.313  11.613  1.00  0.00     0.316 HD
BRANCH  12  17
HETATM   17  O   UNL     1     -43.575 -43.241  10.183  1.00  0.00    -0.392 OA
HETATM   18  H   UNL     1     -43.065 -43.754   9.504  1.00  0.00     0.210 HD
ENDBRANCH  12  17
ENDBRANCH   1  11
BRANCH   1  19
HETATM   19  C   UNL     1     -40.347 -46.120  10.622  1.00  0.00     0.269 C 
HETATM   20  C   UNL     1     -40.182 -47.390  11.467  1.00  0.00     0.037 C 
ENDBRANCH   1  19
TORSDOF 5
ENDMDL
MODEL 5
REMARK VINA RESULT:      -5.1      3.963      6.554
REMARK  5 active torsions:
REMARK  status: ('A' for Active; 'I' for Inactive)
REMARK    1  A    between atoms: C_1  and  C_10 
REMARK    2  A    between atoms: N_7  and  C_10 
REMARK    3  A    between atoms: N_7  and  C_9 
REMARK    4  A    between atoms: N_7  and  C_16 
REMARK    5  A    between atoms: C_12  and  O_15 
ROOT
HETATM    1  N   UNL     1     -43.135 -51.026  13.091  1.00  0.00     0.104 N 
ENDROOT
BRANCH   1   2
HETATM    2  C   UNL     1     -42.598 -49.638  13.145  1.00  0.00     0.358 C 
BRANCH   2   3
HETATM    3  C   UNL     1     -42.403 -48.991  11.806  1.00  0.00     0.168 A 
HETATM    4  N   UNL     1     -41.407 -49.300  10.956  1.00  0.00    -0.280 N 
HETATM    5  N   UNL     1     -41.601 -48.569   9.871  1.00  0.00    -0.282 N 
ATOM      6  HN  UNL     1     -40.651 -49.967  11.115  1.00  0.00     0.189 HD
HETATM    7  C   UNL     1     -42.710 -47.842  10.096  1.00  0.00     0.136 A 
ATOM      8  HN  UNL     1     -41.024 -48.558   9.030  1.00  0.00     0.189 HD
HETATM    9  O   UNL     1     -43.213 -48.097  11.283  1.00  0.00    -0.281 OA
HETATM   10  C   UNL     1     -43.289 -46.874   9.116  1.00  0.00     0.099 C 
ENDBRANCH   2   3
ENDBRANCH   1   2
BRANCH   1  11
HETATM   11  C   UNL     1     -42.221 -52.159  13.451  1.00  0.00     0.281 C 
HETATM   12  C   UNL     1     -41.078 -52.572  12.495  1.00  0.00     0.181 C 
HETATM   13  C   UNL     1     -40.845 -54.060  12.856  1.00  0.00     0.303 C 
HETATM   14  N   UNL     1     -41.691 -54.346  14.019  1.00  0.00     0.088 N 
HETATM   15  C   UNL     1     -42.851 -53.482  13.819  1.00  0.00     0.308 C 
HETATM   16  H   UNL     1     -41.971 -55.354  14.046  1.00  0.00     0.316 HD
BRANCH  12  17
HETATM   17  O   UNL     1     -41.360 -52.432  11.127  1.00  0.00    -0.392 OA
HETATM   18  H   UNL     1     -42.123 -51.806  11.029  1.00  0.00     0.210 HD
ENDBRANCH  12  17
ENDBRANCH   1  11
BRANCH   1  19
HETATM   19  C   UNL     1     -44.404 -51.154  13.856  1.00  0.00     0.269 C 
HETATM   20  C   UNL     1     -45.640 -51.322  12.962  1.00  0.00     0.037 C 
ENDBRANCH   1  19
TORSDOF 5
ENDMDL
MODEL 6
REMARK VINA RESULT:      -5.0      2.550      3.529
REMARK  5 active torsions:
REMARK  status: ('A' for Active; 'I' for Inactive)
REMARK    1  A    between atoms: C_1  and  C_10 
REMARK    2  A    between atoms: N_7  and  C_10 
REMARK    3  A    between atoms: N_7  and  C_9 
REMARK    4  A    between atoms: N_7  and  C_16 
REMARK    5  A    between atoms: C_12  and  O_15 
ROOT
HETATM    1  N   UNL     1     -40.244 -48.471  12.318  1.00  0.00     0.104 N 
ENDROOT
BRANCH   1   2
HETATM    2  C   UNL     1     -41.015 -49.426  13.160  1.00  0.00     0.358 C 
BRANCH   2   3
HETATM    3  C   UNL     1     -41.071 -50.826  12.625  1.00  0.00     0.168 A 
HETATM    4  N   UNL     1     -41.067 -51.135  11.315  1.00  0.00    -0.280 N 
HETATM    5  N   UNL     1     -41.067 -52.456  11.243  1.00  0.00    -0.282 N 
ATOM      6  HN  UNL     1     -41.065 -50.481  10.533  1.00  0.00     0.189 HD
HETATM    7  C   UNL     1     -41.067 -52.907  12.511  1.00  0.00     0.136 A 
ATOM      8  HN  UNL     1     -41.067 -53.022  10.395  1.00  0.00     0.189 HD
HETATM    9  O   UNL     1     -41.066 -51.911  13.369  1.00  0.00    -0.281 OA
HETATM   10  C   UNL     1     -41.066 -54.353  12.884  1.00  0.00     0.099 C 
ENDBRANCH   2   3
ENDBRANCH   1   2
BRANCH   1  11
HETATM   11  C   UNL     1     -40.965 -47.292  11.734  1.00  0.00     0.281 C 
HETATM   12  C   UNL     1     -41.996 -47.492  10.600  1.00  0.00     0.181 C 
HETATM   13  C   UNL     1     -41.986 -46.123   9.876  1.00  0.00     0.303 C 
HETATM   14  N   UNL     1     -41.136 -45.234  10.674  1.00  0.00     0.088 N 
HETATM   15  C   UNL     1     -40.132 -46.134  11.236  1.00  0.00     0.308 C 
HETATM   16  H   UNL     1     -40.692 -44.498  10.078  1.00  0.00     0.316 HD
BRANCH  12  17
HETATM   17  O   UNL     1     -41.705 -48.530   9.700  1.00  0.00    -0.392 OA
HETATM   18  H   UNL     1     -40.720 -48.647   9.669  1.00  0.00     0.210 HD
ENDBRANCH  12  17
ENDBRANCH   1  11
BRANCH   1  19
HETATM   19  C   UNL     1     -39.010 -48.004  13.004  1.00  0.00     0.269 C 
HETATM   20  C   UNL     1     -37.883 -49.045  13.008  1.00  0.00     0.037 C 
ENDBRANCH   1  19
TORSDOF 5
ENDMDL
MODEL 7
REMARK VINA RESULT:      -5.0      2.003      5.755
REMARK  5 active torsions:
REMARK  status: ('A' for Active; 'I' for Inactive)
REMARK    1  A    between atoms: C_1  and  C_10 
REMARK    2  A    between atoms: N_7  and  C_10 
REMARK    3  A    between atoms: N_7  and  C_9 
REMARK    4  A    between atoms: N_7  and  C_16 
REMARK    5  A    between atoms: C_12  and  O_15 
ROOT
HETATM    1  N   UNL     1     -40.202 -48.032  12.677  1.00  0.00     0.104 N 
ENDROOT
BRANCH   1   2
HETATM    2  C   UNL     1     -40.250 -46.981  11.624  1.00  0.00     0.358 C 
BRANCH   2   3
HETATM    3  C   UNL     1     -41.350 -47.153  10.619  1.00  0.00     0.168 A 
HETATM    4  N   UNL     1     -41.586 -48.294   9.945  1.00  0.00    -0.280 N 
HETATM    5  N   UNL     1     -42.660 -48.075   9.205  1.00  0.00    -0.282 N 
ATOM      6  HN  UNL     1     -41.044 -49.157   9.995  1.00  0.00     0.189 HD
HETATM    7  C   UNL     1     -43.044 -46.811   9.456  1.00  0.00     0.136 A 
ATOM      8  HN  UNL     1     -43.109 -48.735   8.570  1.00  0.00     0.189 HD
HETATM    9  O   UNL     1     -42.246 -46.236  10.327  1.00  0.00    -0.281 OA
HETATM   10  C   UNL     1     -44.227 -46.155   8.822  1.00  0.00     0.099 C 
ENDBRANCH   2   3
ENDBRANCH   1   2
BRANCH   1  11
HETATM   11  C   UNL     1     -38.929 -48.806  12.855  1.00  0.00     0.281 C 
HETATM   12  C   UNL     1     -38.295 -49.550  11.657  1.00  0.00     0.181 C 
HETATM   13  C   UNL     1     -37.482 -50.677  12.340  1.00  0.00     0.303 C 
HETATM   14  N   UNL     1     -37.559 -50.434  13.784  1.00  0.00     0.088 N 
HETATM   15  C   UNL     1     -38.880 -49.837  13.959  1.00  0.00     0.308 C 
HETATM   16  H   UNL     1     -37.473 -51.326  14.324  1.00  0.00     0.316 HD
BRANCH  12  17
HETATM   17  O   UNL     1     -39.207 -50.087  10.734  1.00  0.00    -0.392 OA
HETATM   18  H   UNL     1     -38.764 -50.125   9.847  1.00  0.00     0.210 HD
ENDBRANCH  12  17
ENDBRANCH   1  11
BRANCH   1  19
HETATM   19  C   UNL     1     -40.650 -47.511  13.996  1.00  0.00     0.269 C 
HETATM   20  C   UNL     1     -42.154 -47.689  14.243  1.00  0.00     0.037 C 
ENDBRANCH   1  19
TORSDOF 5
ENDMDL
MODEL 8
REMARK VINA RESULT:      -5.0      5.840      8.090
REMARK  5 active torsions:
REMARK  status: ('A' for Active; 'I' for Inactive)
REMARK    1  A    between atoms: C_1  and  C_10 
REMARK    2  A    between atoms: N_7  and  C_10 
REMARK    3  A    between atoms: N_7  and  C_9 
REMARK    4  A    between atoms: N_7  and  C_16 
REMARK    5  A    between atoms: C_12  and  O_15 
ROOT
HETATM    1  N   UNL     1     -42.763 -53.960  13.575  1.00  0.00     0.104 N 
ENDROOT
BRANCH   1   2
HETATM    2  C   UNL     1     -44.190 -54.377  13.657  1.00  0.00     0.358 C 
BRANCH   2   3
HETATM    3  C   UNL     1     -45.176 -53.298  13.322  1.00  0.00     0.168 A 
HETATM    4  N   UNL     1     -45.534 -52.313  14.165  1.00  0.00    -0.280 N 
HETATM    5  N   UNL     1     -46.369 -51.534  13.498  1.00  0.00    -0.282 N 
ATOM      6  HN  UNL     1     -45.223 -52.190  15.129  1.00  0.00     0.189 HD
HETATM    7  C   UNL     1     -46.489 -52.069  12.269  1.00  0.00     0.136 A 
ATOM      8  HN  UNL     1     -46.831 -50.694  13.845  1.00  0.00     0.189 HD
HETATM    9  O   UNL     1     -45.756 -53.153  12.150  1.00  0.00    -0.281 OA
HETATM   10  C   UNL     1     -47.345 -51.496  11.188  1.00  0.00     0.099 C 
ENDBRANCH   2   3
ENDBRANCH   1   2
BRANCH   1  11
HETATM   11  C   UNL     1     -42.451 -52.578  13.082  1.00  0.00     0.281 C 
HETATM   12  C   UNL     1     -41.563 -52.378  11.833  1.00  0.00     0.181 C 
HETATM   13  C   UNL     1     -40.967 -50.965  12.053  1.00  0.00     0.303 C 
HETATM   14  N   UNL     1     -41.625 -50.415  13.242  1.00  0.00     0.088 N 
HETATM   15  C   UNL     1     -41.874 -51.591  14.071  1.00  0.00     0.308 C 
HETATM   16  H   UNL     1     -41.006 -49.730  13.736  1.00  0.00     0.316 HD
BRANCH  12  17
HETATM   17  O   UNL     1     -40.541 -53.326  11.666  1.00  0.00    -0.392 OA
HETATM   18  H   UNL     1     -40.626 -53.718  10.759  1.00  0.00     0.210 HD
ENDBRANCH  12  17
ENDBRANCH   1  11
BRANCH   1  19
HETATM   19  C   UNL     1     -42.045 -54.200  14.855  1.00  0.00     0.269 C 
HETATM   20  C   UNL     1     -42.726 -55.244  15.750  1.00  0.00     0.037 C 
ENDBRANCH   1  19
TORSDOF 5
ENDMDL
MODEL 9
REMARK VINA RESULT:      -4.8      4.866      7.277
REMARK  5 active torsions:
REMARK  status: ('A' for Active; 'I' for Inactive)
REMARK    1  A    between atoms: C_1  and  C_10 
REMARK    2  A    between atoms: N_7  and  C_10 
REMARK    3  A    between atoms: N_7  and  C_9 
REMARK    4  A    between atoms: N_7  and  C_16 
REMARK    5  A    between atoms: C_12  and  O_15 
ROOT
HETATM    1  N   UNL     1     -40.249 -52.322  13.731  1.00  0.00     0.104 N 
ENDROOT
BRANCH   1   2
HETATM    2  C   UNL     1     -41.559 -52.250  14.435  1.00  0.00     0.358 C 
BRANCH   2   3
HETATM    3  C   UNL     1     -42.664 -53.024  13.780  1.00  0.00     0.168 A 
HETATM    4  N   UNL     1     -42.806 -53.158  12.448  1.00  0.00    -0.280 N 
HETATM    5  N   UNL     1     -43.851 -53.949  12.262  1.00  0.00    -0.282 N 
ATOM      6  HN  UNL     1     -42.224 -52.735  11.725  1.00  0.00     0.189 HD
HETATM    7  C   UNL     1     -44.307 -54.272  13.485  1.00  0.00     0.136 A 
ATOM      8  HN  UNL     1     -44.234 -54.253  11.367  1.00  0.00     0.189 HD
HETATM    9  O   UNL     1     -43.581 -53.710  14.426  1.00  0.00    -0.281 OA
HETATM   10  C   UNL     1     -45.485 -55.156  13.731  1.00  0.00     0.099 C 
ENDBRANCH   2   3
ENDBRANCH   1   2
BRANCH   1  11
HETATM   11  C   UNL     1     -39.615 -51.043  13.270  1.00  0.00     0.281 C 
HETATM   12  C   UNL     1     -40.206 -50.269  12.070  1.00  0.00     0.181 C 
HETATM   13  C   UNL     1     -38.987 -49.480  11.531  1.00  0.00     0.303 C 
HETATM   14  N   UNL     1     -37.891 -49.706  12.479  1.00  0.00     0.088 N 
HETATM   15  C   UNL     1     -38.135 -51.060  12.968  1.00  0.00     0.308 C 
HETATM   16  H   UNL     1     -36.960 -49.637  12.006  1.00  0.00     0.316 HD
BRANCH  12  17
HETATM   17  O   UNL     1     -40.767 -51.065  11.059  1.00  0.00    -0.392 OA
HETATM   18  H   UNL     1     -40.028 -51.455  10.525  1.00  0.00     0.210 HD
ENDBRANCH  12  17
ENDBRANCH   1  11
BRANCH   1  19
HETATM   19  C   UNL     1     -39.254 -53.117  14.499  1.00  0.00     0.269 C 
HETATM   20  C   UNL     1     -39.190 -54.590  14.075  1.00  0.00     0.037 C 
ENDBRANCH   1  19
TORSDOF 5
ENDMDL
