MODEL 1
REMARK VINA RESULT:      -6.0      0.000      0.000
REMARK  4 active torsions:
REMARK  status: ('A' for Active; 'I' for Inactive)
REMARK    1  A    between atoms: C_2  and  C_5 
REMARK    2  A    between atoms: C_5  and  C_6 
REMARK       I    between atoms: C_6  and  N_8 
REMARK    3  A    between atoms: N_8  and  C_9 
REMARK    4  A    between atoms: C_15  and  N_16 
ROOT
HETATM    1  C   UNL     1     -42.483 -49.165  12.864  1.00  0.00     0.079 A 
HETATM    2  C   UNL     1     -43.073 -47.975  12.443  1.00  0.00     0.035 A 
HETATM    3  C   UNL     1     -42.771 -47.484  11.181  1.00  0.00     0.019 A 
HETATM    4  C   UNL     1     -41.870 -48.193  10.405  1.00  0.00     0.090 A 
HETATM    5  N   UNL     1     -41.251 -49.328  10.805  1.00  0.00    -0.351 N 
ATOM      6  HN  UNL     1     -40.592 -49.809  10.193  1.00  0.00     0.166 HD
HETATM    7  C   UNL     1     -41.529 -49.807  12.040  1.00  0.00     0.130 A 
ENDROOT
BRANCH   1   8
HETATM    8  N   UNL     1     -42.878 -49.693  14.108  1.00  0.00    -0.324 N 
HETATM    9  C   UNL     1     -43.916 -50.570  14.325  1.00  0.00     0.223 C 
HETATM   10  O   UNL     1     -44.189 -50.886  15.484  1.00  0.00    -0.273 OA
HETATM   11  H   UNL     1     -42.612 -49.189  14.943  1.00  0.00     0.169 HD
BRANCH   9  12
HETATM   12  C   UNL     1     -44.702 -51.079  13.114  1.00  0.00     0.111 C 
BRANCH  12  13
HETATM   13  C   UNL     1     -45.986 -51.912  13.380  1.00  0.00    -0.043 C 
HETATM   14  C   UNL     1     -46.819 -51.345  14.541  1.00  0.00     0.015 C 
HETATM   15  C   UNL     1     -45.656 -53.391  13.650  1.00  0.00     0.015 C 
HETATM   16  C   UNL     1     -46.856 -51.844  12.105  1.00  0.00     0.015 C 
ENDBRANCH  12  13
ENDBRANCH   9  12
ENDBRANCH   1   8
BRANCH   7  17
HETATM   17  N   UNL     1     -40.890 -50.960  12.465  1.00  0.00    -0.361 N 
HETATM   18  C   UNL     1     -41.295 -52.249  11.891  1.00  0.00     0.150 C 
HETATM   19  C   UNL     1     -40.927 -53.320  12.937  1.00  0.00     0.187 C 
HETATM   20  O   UNL     1     -39.515 -53.306  13.240  1.00  0.00    -0.388 OA
HETATM   21  C   UNL     1     -39.098 -52.005  13.705  1.00  0.00     0.187 C 
HETATM   22  C   UNL     1     -39.434 -50.913  12.675  1.00  0.00     0.150 C 
ENDBRANCH   7  17
TORSDOF 4
ENDMDL
MODEL 2
REMARK VINA RESULT:      -5.9      2.313      4.364
REMARK  4 active torsions:
REMARK  status: ('A' for Active; 'I' for Inactive)
REMARK    1  A    between atoms: C_2  and  C_5 
REMARK    2  A    between atoms: C_5  and  C_6 
REMARK       I    between atoms: C_6  and  N_8 
REMARK    3  A    between atoms: N_8  and  C_9 
REMARK    4  A    between atoms: C_15  and  N_16 
ROOT
HETATM    1  C   UNL     1     -41.853 -52.935  12.613  1.00  0.00     0.079 A 
HETATM    2  C   UNL     1     -41.362 -54.176  13.012  1.00  0.00     0.035 A 
HETATM    3  C   UNL     1     -40.153 -54.236  13.690  1.00  0.00     0.019 A 
HETATM    4  C   UNL     1     -39.474 -53.051  13.916  1.00  0.00     0.090 A 
HETATM    5  N   UNL     1     -39.907 -51.837  13.503  1.00  0.00    -0.351 N 
ATOM      6  HN  UNL     1     -39.365 -50.994  13.694  1.00  0.00     0.166 HD
HETATM    7  C   UNL     1     -41.079 -51.771  12.829  1.00  0.00     0.130 A 
ENDROOT
BRANCH   1   8
HETATM    8  N   UNL     1     -43.127 -52.891  12.013  1.00  0.00    -0.324 N 
HETATM    9  C   UNL     1     -44.333 -52.850  12.672  1.00  0.00     0.223 C 
HETATM   10  O   UNL     1     -45.371 -52.890  12.007  1.00  0.00    -0.273 OA
HETATM   11  H   UNL     1     -43.213 -53.217  11.060  1.00  0.00     0.169 HD
BRANCH   9  12
HETATM   12  C   UNL     1     -44.324 -52.794  14.202  1.00  0.00     0.111 C 
BRANCH  12  13
HETATM   13  C   UNL     1     -44.650 -54.099  14.978  1.00  0.00    -0.043 C 
HETATM   14  C   UNL     1     -43.497 -54.532  15.900  1.00  0.00     0.015 C 
HETATM   15  C   UNL     1     -45.014 -55.250  14.024  1.00  0.00     0.015 C 
HETATM   16  C   UNL     1     -45.878 -53.815  15.871  1.00  0.00     0.015 C 
ENDBRANCH  12  13
ENDBRANCH   9  12
ENDBRANCH   1   8
BRANCH   7  17
HETATM   17  N   UNL     1     -41.525 -50.535  12.389  1.00  0.00    -0.361 N 
HETATM   18  C   UNL     1     -42.338 -49.711  13.292  1.00  0.00     0.150 C 
HETATM   19  C   UNL     1     -43.177 -48.785  12.390  1.00  0.00     0.187 C 
HETATM   20  O   UNL     1     -42.342 -47.964  11.545  1.00  0.00    -0.388 OA
HETATM   21  C   UNL     1     -41.468 -48.776  10.734  1.00  0.00     0.187 C 
HETATM   22  C   UNL     1     -40.601 -49.700  11.605  1.00  0.00     0.150 C 
ENDBRANCH   7  17
TORSDOF 4
ENDMDL
MODEL 3
REMARK VINA RESULT:      -5.9      2.435      5.538
REMARK  4 active torsions:
REMARK  status: ('A' for Active; 'I' for Inactive)
REMARK    1  A    between atoms: C_2  and  C_5 
REMARK    2  A    between atoms: C_5  and  C_6 
REMARK       I    between atoms: C_6  and  N_8 
REMARK    3  A    between atoms: N_8  and  C_9 
REMARK    4  A    between atoms: C_15  and  N_16 
ROOT
HETATM    1  C   UNL     1     -39.797 -49.963  11.529  1.00  0.00     0.079 A 
HETATM    2  C   UNL     1     -38.479 -49.537  11.381  1.00  0.00     0.035 A 
HETATM    3  C   UNL     1     -37.497 -50.091  12.190  1.00  0.00     0.019 A 
HETATM    4  C   UNL     1     -37.883 -51.031  13.131  1.00  0.00     0.090 A 
HETATM    5  N   UNL     1     -39.161 -51.432  13.324  1.00  0.00    -0.351 N 
ATOM      6  HN  UNL     1     -39.391 -52.127  14.035  1.00  0.00     0.166 HD
HETATM    7  C   UNL     1     -40.127 -50.887  12.549  1.00  0.00     0.130 A 
ENDROOT
BRANCH   1   8
HETATM    8  N   UNL     1     -40.759 -49.458  10.632  1.00  0.00    -0.324 N 
HETATM    9  C   UNL     1     -41.507 -48.317  10.803  1.00  0.00     0.223 C 
HETATM   10  O   UNL     1     -42.366 -48.043   9.963  1.00  0.00    -0.273 OA
HETATM   11  H   UNL     1     -41.171 -50.100   9.969  1.00  0.00     0.169 HD
BRANCH   9  12
HETATM   12  C   UNL     1     -41.258 -47.465  12.050  1.00  0.00     0.111 C 
BRANCH  12  13
HETATM   13  C   UNL     1     -40.764 -46.006  11.846  1.00  0.00    -0.043 C 
HETATM   14  C   UNL     1     -41.928 -45.009  11.718  1.00  0.00     0.015 C 
HETATM   15  C   UNL     1     -39.840 -45.887  10.621  1.00  0.00     0.015 C 
HETATM   16  C   UNL     1     -39.948 -45.612  13.097  1.00  0.00     0.015 C 
ENDBRANCH  12  13
ENDBRANCH   9  12
ENDBRANCH   1   8
BRANCH   7  17
HETATM   17  N   UNL     1     -41.440 -51.280  12.747  1.00  0.00    -0.361 N 
HETATM   18  C   UNL     1     -41.757 -52.713  12.769  1.00  0.00     0.150 C 
HETATM   19  C   UNL     1     -43.241 -52.832  12.367  1.00  0.00     0.187 C 
HETATM   20  O   UNL     1     -44.097 -52.095  13.266  1.00  0.00    -0.388 OA
HETATM   21  C   UNL     1     -43.715 -50.705  13.324  1.00  0.00     0.187 C 
HETATM   22  C   UNL     1     -42.244 -50.549  13.741  1.00  0.00     0.150 C 
ENDBRANCH   7  17
TORSDOF 4
ENDMDL
MODEL 4
REMARK VINA RESULT:      -5.8      2.207      2.880
REMARK  4 active torsions:
REMARK  status: ('A' for Active; 'I' for Inactive)
REMARK    1  A    between atoms: C_2  and  C_5 
REMARK    2  A    between atoms: C_5  and  C_6 
REMARK       I    between atoms: C_6  and  N_8 
REMARK    3  A    between atoms: N_8  and  C_9 
REMARK    4  A    between atoms: C_15  and  N_16 
ROOT
HETATM    1  C   UNL     1     -42.647 -51.087  13.132  1.00  0.00     0.079 A 
HETATM    2  C   UNL     1     -43.225 -49.849  12.865  1.00  0.00     0.035 A 
HETATM    3  C   UNL     1     -42.672 -48.710  13.434  1.00  0.00     0.019 A 
HETATM    4  C   UNL     1     -41.578 -48.865  14.267  1.00  0.00     0.090 A 
HETATM    5  N   UNL     1     -41.021 -50.060  14.577  1.00  0.00    -0.351 N 
ATOM      6  HN  UNL     1     -40.216 -50.117  15.200  1.00  0.00     0.166 HD
HETATM    7  C   UNL     1     -41.563 -51.176  14.037  1.00  0.00     0.130 A 
ENDROOT
BRANCH   1   8
HETATM    8  N   UNL     1     -43.166 -52.216  12.467  1.00  0.00    -0.324 N 
HETATM    9  C   UNL     1     -44.108 -53.087  12.962  1.00  0.00     0.223 C 
HETATM   10  O   UNL     1     -44.409 -54.075  12.290  1.00  0.00    -0.273 OA
HETATM   11  H   UNL     1     -42.619 -52.616  11.716  1.00  0.00     0.169 HD
BRANCH   9  12
HETATM   12  C   UNL     1     -44.707 -52.802  14.341  1.00  0.00     0.111 C 
BRANCH  12  13
HETATM   13  C   UNL     1     -46.150 -52.228  14.402  1.00  0.00    -0.043 C 
HETATM   14  C   UNL     1     -46.568 -51.564  13.079  1.00  0.00     0.015 C 
HETATM   15  C   UNL     1     -46.313 -51.228  15.561  1.00  0.00     0.015 C 
HETATM   16  C   UNL     1     -47.110 -53.411  14.654  1.00  0.00     0.015 C 
ENDBRANCH  12  13
ENDBRANCH   9  12
ENDBRANCH   1   8
BRANCH   7  17
HETATM   17  N   UNL     1     -41.010 -52.406  14.358  1.00  0.00    -0.361 N 
HETATM   18  C   UNL     1     -39.664 -52.728  13.870  1.00  0.00     0.150 C 
HETATM   19  C   UNL     1     -39.585 -54.266  13.811  1.00  0.00     0.187 C 
HETATM   20  O   UNL     1     -39.827 -54.863  15.103  1.00  0.00    -0.388 OA
HETATM   21  C   UNL     1     -41.109 -54.459  15.629  1.00  0.00     0.187 C 
HETATM   22  C   UNL     1     -41.215 -52.928  15.719  1.00  0.00     0.150 C 
ENDBRANCH   7  17
TORSDOF 4
ENDMDL
MODEL 5
REMARK VINA RESULT:      -5.7      2.263      4.320
REMARK  4 active torsions:
REMARK  status: ('A' for Active; 'I' for Inactive)
REMARK    1  A    between atoms: C_2  and  C_5 
REMARK    2  A    between atoms: C_5  and  C_6 
REMARK       I    between atoms: C_6  and  N_8 
REMARK    3  A    between atoms: N_8  and  C_9 
REMARK    4  A    between atoms: C_15  and  N_16 
ROOT
HETATM    1  C   UNL     1     -43.365 -52.670  13.144  1.00  0.00     0.079 A 
HETATM    2  C   UNL     1     -43.368 -54.001  13.552  1.00  0.00     0.035 A 
HETATM    3  C   UNL     1     -42.302 -54.479  14.301  1.00  0.00     0.019 A 
HETATM    4  C   UNL     1     -41.265 -53.607  14.587  1.00  0.00     0.090 A 
HETATM    5  N   UNL     1     -41.217 -52.321  14.168  1.00  0.00    -0.351 N 
ATOM      6  HN  UNL     1     -40.426 -51.722  14.405  1.00  0.00     0.166 HD
HETATM    7  C   UNL     1     -42.246 -51.851  13.426  1.00  0.00     0.130 A 
ENDROOT
BRANCH   1   8
HETATM    8  N   UNL     1     -44.502 -52.183  12.469  1.00  0.00    -0.324 N 
HETATM    9  C   UNL     1     -45.578 -51.550  13.045  1.00  0.00     0.223 C 
HETATM   10  O   UNL     1     -46.537 -51.248  12.331  1.00  0.00    -0.273 OA
HETATM   11  H   UNL     1     -44.718 -52.575  11.562  1.00  0.00     0.169 HD
BRANCH   9  12
HETATM   12  C   UNL     1     -45.546 -51.287  14.553  1.00  0.00     0.111 C 
BRANCH  12  13
HETATM   13  C   UNL     1     -46.339 -52.253  15.476  1.00  0.00    -0.043 C 
HETATM   14  C   UNL     1     -46.902 -53.461  14.709  1.00  0.00     0.015 C 
HETATM   15  C   UNL     1     -47.479 -51.526  16.210  1.00  0.00     0.015 C 
HETATM   16  C   UNL     1     -45.356 -52.792  16.538  1.00  0.00     0.015 C 
ENDBRANCH  12  13
ENDBRANCH   9  12
ENDBRANCH   1   8
BRANCH   7  17
HETATM   17  N   UNL     1     -42.201 -50.540  12.980  1.00  0.00    -0.361 N 
HETATM   18  C   UNL     1     -42.359 -49.453  13.954  1.00  0.00     0.150 C 
HETATM   19  C   UNL     1     -42.893 -48.242  13.164  1.00  0.00     0.187 C 
HETATM   20  O   UNL     1     -41.994 -47.861  12.100  1.00  0.00    -0.388 OA
HETATM   21  C   UNL     1     -41.756 -48.965  11.202  1.00  0.00     0.187 C 
HETATM   22  C   UNL     1     -41.205 -50.186  11.956  1.00  0.00     0.150 C 
ENDBRANCH   7  17
TORSDOF 4
ENDMDL
MODEL 6
REMARK VINA RESULT:      -5.6      3.437      4.786
REMARK  4 active torsions:
REMARK  status: ('A' for Active; 'I' for Inactive)
REMARK    1  A    between atoms: C_2  and  C_5 
REMARK    2  A    between atoms: C_5  and  C_6 
REMARK       I    between atoms: C_6  and  N_8 
REMARK    3  A    between atoms: N_8  and  C_9 
REMARK    4  A    between atoms: C_15  and  N_16 
ROOT
HETATM    1  C   UNL     1     -42.122 -53.933  13.825  1.00  0.00     0.079 A 
HETATM    2  C   UNL     1     -41.974 -53.072  12.740  1.00  0.00     0.035 A 
HETATM    3  C   UNL     1     -40.808 -52.328  12.624  1.00  0.00     0.019 A 
HETATM    4  C   UNL     1     -39.851 -52.460  13.616  1.00  0.00     0.090 A 
HETATM    5  N   UNL     1     -39.987 -53.256  14.702  1.00  0.00    -0.351 N 
ATOM      6  HN  UNL     1     -39.250 -53.313  15.405  1.00  0.00     0.166 HD
HETATM    7  C   UNL     1     -41.126 -53.975  14.830  1.00  0.00     0.130 A 
ENDROOT
BRANCH   1   8
HETATM    8  N   UNL     1     -43.269 -54.748  13.870  1.00  0.00    -0.324 N 
HETATM    9  C   UNL     1     -44.497 -54.394  14.379  1.00  0.00     0.223 C 
HETATM   10  O   UNL     1     -45.388 -55.245  14.417  1.00  0.00    -0.273 OA
HETATM   11  H   UNL     1     -43.141 -55.750  13.819  1.00  0.00     0.169 HD
BRANCH   9  12
HETATM   12  C   UNL     1     -44.681 -52.970  14.908  1.00  0.00     0.111 C 
BRANCH  12  13
HETATM   13  C   UNL     1     -45.434 -51.952  14.007  1.00  0.00    -0.043 C 
HETATM   14  C   UNL     1     -46.737 -51.455  14.654  1.00  0.00     0.015 C 
HETATM   15  C   UNL     1     -45.733 -52.540  12.617  1.00  0.00     0.015 C 
HETATM   16  C   UNL     1     -44.511 -50.728  13.818  1.00  0.00     0.015 C 
ENDBRANCH  12  13
ENDBRANCH   9  12
ENDBRANCH   1   8
BRANCH   7  17
HETATM   17  N   UNL     1     -41.281 -54.783  15.944  1.00  0.00    -0.361 N 
HETATM   18  C   UNL     1     -40.187 -55.683  16.327  1.00  0.00     0.150 C 
HETATM   19  C   UNL     1     -40.835 -56.836  17.119  1.00  0.00     0.187 C 
HETATM   20  O   UNL     1     -41.541 -56.351  18.282  1.00  0.00    -0.388 OA
HETATM   21  C   UNL     1     -42.547 -55.385  17.912  1.00  0.00     0.187 C 
HETATM   22  C   UNL     1     -41.931 -54.211  17.134  1.00  0.00     0.150 C 
ENDBRANCH   7  17
TORSDOF 4
ENDMDL
MODEL 7
REMARK VINA RESULT:      -5.5      2.481      4.748
REMARK  4 active torsions:
REMARK  status: ('A' for Active; 'I' for Inactive)
REMARK    1  A    between atoms: C_2  and  C_5 
REMARK    2  A    between atoms: C_5  and  C_6 
REMARK       I    between atoms: C_6  and  N_8 
REMARK    3  A    between atoms: N_8  and  C_9 
REMARK    4  A    between atoms: C_15  and  N_16 
ROOT
HETATM    1  C   UNL     1     -39.583 -49.824  13.085  1.00  0.00     0.079 A 
HETATM    2  C   UNL     1     -38.609 -50.772  13.390  1.00  0.00     0.035 A 
HETATM    3  C   UNL     1     -37.510 -50.903  12.553  1.00  0.00     0.019 A 
HETATM    4  C   UNL     1     -37.447 -50.096  11.430  1.00  0.00     0.090 A 
HETATM    5  N   UNL     1     -38.399 -49.196  11.087  1.00  0.00    -0.351 N 
ATOM      6  HN  UNL     1     -38.304 -48.628  10.246  1.00  0.00     0.166 HD
HETATM    7  C   UNL     1     -39.481 -49.072  11.891  1.00  0.00     0.130 A 
ENDROOT
BRANCH   1   8
HETATM    8  N   UNL     1     -40.638 -49.643  14.000  1.00  0.00    -0.324 N 
HETATM    9  C   UNL     1     -41.813 -50.357  14.035  1.00  0.00     0.223 C 
HETATM   10  O   UNL     1     -42.677 -50.031  14.852  1.00  0.00    -0.273 OA
HETATM   11  H   UNL     1     -40.708 -48.751  14.471  1.00  0.00     0.169 HD
BRANCH   9  12
HETATM   12  C   UNL     1     -42.000 -51.498  13.033  1.00  0.00     0.111 C 
BRANCH  12  13
HETATM   13  C   UNL     1     -41.836 -52.954  13.551  1.00  0.00    -0.043 C 
HETATM   14  C   UNL     1     -43.154 -53.744  13.494  1.00  0.00     0.015 C 
HETATM   15  C   UNL     1     -41.272 -52.986  14.983  1.00  0.00     0.015 C 
HETATM   16  C   UNL     1     -40.826 -53.666  12.625  1.00  0.00     0.015 C 
ENDBRANCH  12  13
ENDBRANCH   9  12
ENDBRANCH   1   8
BRANCH   7  17
HETATM   17  N   UNL     1     -40.468 -48.164  11.542  1.00  0.00    -0.361 N 
HETATM   18  C   UNL     1     -40.087 -46.774  11.261  1.00  0.00     0.150 C 
HETATM   19  C   UNL     1     -41.341 -45.921  11.537  1.00  0.00     0.187 C 
HETATM   20  O   UNL     1     -42.456 -46.332  10.717  1.00  0.00    -0.388 OA
HETATM   21  C   UNL     1     -42.760 -47.728  10.916  1.00  0.00     0.187 C 
HETATM   22  C   UNL     1     -41.534 -48.610  10.631  1.00  0.00     0.150 C 
ENDBRANCH   7  17
TORSDOF 4
ENDMDL
MODEL 8
REMARK VINA RESULT:      -5.5      1.902      2.754
REMARK  4 active torsions:
REMARK  status: ('A' for Active; 'I' for Inactive)
REMARK    1  A    between atoms: C_2  and  C_5 
REMARK    2  A    between atoms: C_5  and  C_6 
REMARK       I    between atoms: C_6  and  N_8 
REMARK    3  A    between atoms: N_8  and  C_9 
REMARK    4  A    between atoms: C_15  and  N_16 
ROOT
HETATM    1  C   UNL     1     -41.813 -49.303  12.160  1.00  0.00     0.079 A 
HETATM    2  C   UNL     1     -42.918 -48.454  12.165  1.00  0.00     0.035 A 
HETATM    3  C   UNL     1     -42.730 -47.106  12.433  1.00  0.00     0.019 A 
HETATM    4  C   UNL     1     -41.446 -46.670  12.711  1.00  0.00     0.090 A 
HETATM    5  N   UNL     1     -40.362 -47.480  12.754  1.00  0.00    -0.351 N 
ATOM      6  HN  UNL     1     -39.437 -47.106  12.967  1.00  0.00     0.166 HD
HETATM    7  C   UNL     1     -40.538 -48.799  12.508  1.00  0.00     0.130 A 
ENDROOT
BRANCH   1   8
HETATM    8  N   UNL     1     -42.015 -50.647  11.791  1.00  0.00    -0.324 N 
HETATM    9  C   UNL     1     -42.418 -51.665  12.623  1.00  0.00     0.223 C 
HETATM   10  O   UNL     1     -42.478 -52.810  12.169  1.00  0.00    -0.273 OA
HETATM   11  H   UNL     1     -41.553 -50.984  10.957  1.00  0.00     0.169 HD
BRANCH   9  12
HETATM   12  C   UNL     1     -42.737 -51.329  14.082  1.00  0.00     0.111 C 
BRANCH  12  13
HETATM   13  C   UNL     1     -44.207 -51.487  14.560  1.00  0.00    -0.043 C 
HETATM   14  C   UNL     1     -44.485 -52.886  15.135  1.00  0.00     0.015 C 
HETATM   15  C   UNL     1     -45.206 -51.181  13.429  1.00  0.00     0.015 C 
HETATM   16  C   UNL     1     -44.440 -50.463  15.691  1.00  0.00     0.015 C 
ENDBRANCH  12  13
ENDBRANCH   9  12
ENDBRANCH   1   8
BRANCH   7  17
HETATM   17  N   UNL     1     -39.438 -49.638  12.563  1.00  0.00    -0.361 N 
HETATM   18  C   UNL     1     -38.226 -49.272  11.820  1.00  0.00     0.150 C 
HETATM   19  C   UNL     1     -37.478 -50.590  11.540  1.00  0.00     0.187 C 
HETATM   20  O   UNL     1     -37.149 -51.286  12.762  1.00  0.00    -0.388 OA
HETATM   21  C   UNL     1     -38.333 -51.551  13.542  1.00  0.00     0.187 C 
HETATM   22  C   UNL     1     -39.095 -50.254  13.856  1.00  0.00     0.150 C 
ENDBRANCH   7  17
TORSDOF 4
ENDMDL
MODEL 9
REMARK VINA RESULT:      -5.4      2.796      4.733
REMARK  4 active torsions:
REMARK  status: ('A' for Active; 'I' for Inactive)
REMARK    1  A    between atoms: C_2  and  C_5 
REMARK    2  A    between atoms: C_5  and  C_6 
REMARK       I    between atoms: C_6  and  N_8 
REMARK    3  A    between atoms: N_8  and  C_9 
REMARK    4  A    between atoms: C_15  and  N_16 
ROOT
HETATM    1  C   UNL     1     -42.783 -54.153  14.309  1.00  0.00     0.079 A 
HETATM    2  C   UNL     1     -42.982 -55.306  15.065  1.00  0.00     0.035 A 
HETATM    3  C   UNL     1     -42.239 -55.489  16.223  1.00  0.00     0.019 A 
HETATM    4  C   UNL     1     -41.308 -54.520  16.559  1.00  0.00     0.090 A 
HETATM    5  N   UNL     1     -41.065 -53.412  15.820  1.00  0.00    -0.351 N 
ATOM      6  HN  UNL     1     -40.364 -52.731  16.113  1.00  0.00     0.166 HD
HETATM    7  C   UNL     1     -41.776 -53.232  14.683  1.00  0.00     0.130 A 
ENDROOT
BRANCH   1   8
HETATM    8  N   UNL     1     -43.616 -53.943  13.193  1.00  0.00    -0.324 N 
HETATM    9  C   UNL     1     -44.725 -53.130  13.150  1.00  0.00     0.223 C 
HETATM   10  O   UNL     1     -45.400 -53.108  12.118  1.00  0.00    -0.273 OA
HETATM   11  H   UNL     1     -43.616 -54.644  12.464  1.00  0.00     0.169 HD
BRANCH   9  12
HETATM   12  C   UNL     1     -45.084 -52.323  14.399  1.00  0.00     0.111 C 
BRANCH  12  13
HETATM   13  C   UNL     1     -46.066 -52.962  15.420  1.00  0.00    -0.043 C 
HETATM   14  C   UNL     1     -45.424 -53.154  16.804  1.00  0.00     0.015 C 
HETATM   15  C   UNL     1     -46.618 -54.305  14.910  1.00  0.00     0.015 C 
HETATM   16  C   UNL     1     -47.256 -51.991  15.588  1.00  0.00     0.015 C 
ENDBRANCH  12  13
ENDBRANCH   9  12
ENDBRANCH   1   8
BRANCH   7  17
HETATM   17  N   UNL     1     -41.525 -52.109  13.913  1.00  0.00    -0.361 N 
HETATM   18  C   UNL     1     -41.590 -50.785  14.545  1.00  0.00     0.150 C 
HETATM   19  C   UNL     1     -41.907 -49.785  13.415  1.00  0.00     0.187 C 
HETATM   20  O   UNL     1     -40.903 -49.817  12.378  1.00  0.00    -0.388 OA
HETATM   21  C   UNL     1     -40.766 -51.145  11.831  1.00  0.00     0.187 C 
HETATM   22  C   UNL     1     -40.432 -52.168  12.929  1.00  0.00     0.150 C 
ENDBRANCH   7  17
TORSDOF 4
ENDMDL
