MODEL 1
REMARK VINA RESULT:      -7.1      0.000      0.000
REMARK  5 active torsions:
REMARK  status: ('A' for Active; 'I' for Inactive)
REMARK    1  A    between atoms: C_7  and  N_8 
REMARK       I    between atoms: N_8  and  C_9 
REMARK       I    between atoms: C_9  and  N_11 
REMARK    2  A    between atoms: N_11  and  C_12 
REMARK    3  A    between atoms: C_12  and  C_13 
REMARK    4  A    between atoms: C_13  and  N_14 
REMARK    5  A    between atoms: C_13  and  C_20 
ROOT
HETATM    1  C   UNL     1     -42.209 -48.111  11.408  1.00  0.00     0.165 C 
ENDROOT
BRANCH   1   2
HETATM    2  N   UNL     1     -43.071 -49.261  11.631  1.00  0.00    -0.341 N 
HETATM    3  C   UNL     1     -43.143 -49.814  12.890  1.00  0.00     0.316 C 
HETATM    4  N   UNL     1     -43.955 -50.915  12.902  1.00  0.00    -0.338 N 
HETATM    5  O   UNL     1     -42.567 -49.364  13.873  1.00  0.00    -0.247 OA
HETATM    6  H   UNL     1     -44.668 -50.932  12.191  1.00  0.00     0.164 HD
HETATM    7  H   UNL     1     -43.137 -49.943  10.888  1.00  0.00     0.164 HD
BRANCH   4   8
HETATM    8  C   UNL     1     -44.223 -51.659  14.132  1.00  0.00     0.093 C 
HETATM    9  C   UNL     1     -44.817 -53.058  13.840  1.00  0.00    -0.027 C 
HETATM   10  C   UNL     1     -44.200 -53.735  12.609  1.00  0.00     0.017 C 
HETATM   11  C   UNL     1     -44.619 -53.992  15.051  1.00  0.00     0.017 C 
HETATM   12  C   UNL     1     -46.315 -52.767  13.631  1.00  0.00     0.011 C 
HETATM   13  C   UNL     1     -46.634 -51.521  14.461  1.00  0.00     0.003 C 
HETATM   14  C   UNL     1     -45.302 -50.982  14.983  1.00  0.00     0.026 C 
ENDBRANCH   4   8
ENDBRANCH   1   2
BRANCH   1  15
HETATM   15  C   UNL     1     -42.909 -46.868  10.766  1.00  0.00     0.275 C 
BRANCH  15  16
HETATM   16  N   UNL     1     -42.114 -45.685  10.364  1.00  0.00     0.103 N 
HETATM   17  C   UNL     1     -40.672 -45.712  10.646  1.00  0.00     0.299 C 
HETATM   18  C   UNL     1     -40.296 -45.200  12.043  1.00  0.00     0.198 C 
HETATM   19  O   UNL     1     -40.746 -43.851  12.220  1.00  0.00    -0.388 OA
HETATM   20  C   UNL     1     -42.163 -43.755  12.059  1.00  0.00     0.198 C 
HETATM   21  C   UNL     1     -42.660 -44.366  10.732  1.00  0.00     0.299 C 
ENDBRANCH  15  16
BRANCH  15  22
HETATM   22  C   UNL     1     -43.848 -47.315   9.636  1.00  0.00    -0.008 A 
HETATM   23  C   UNL     1     -45.225 -47.437   9.858  1.00  0.00     0.012 A 
HETATM   24  C   UNL     1     -46.051 -47.965   8.867  1.00  0.00     0.018 A 
HETATM   25  C   UNL     1     -45.479 -48.344   7.664  1.00  0.00     0.087 A 
HETATM   26  N   UNL     1     -44.170 -48.197   7.386  1.00  0.00    -0.375 N 
HETATM   27  C   UNL     1     -43.394 -47.678   8.366  1.00  0.00     0.097 A 
ATOM     28  HN  UNL     1     -43.782 -48.465   6.482  1.00  0.00     0.164 HD
ENDBRANCH  15  22
ENDBRANCH   1  15
TORSDOF 5
ENDMDL
MODEL 2
REMARK VINA RESULT:      -6.7      2.860      4.551
REMARK  5 active torsions:
REMARK  status: ('A' for Active; 'I' for Inactive)
REMARK    1  A    between atoms: C_7  and  N_8 
REMARK       I    between atoms: N_8  and  C_9 
REMARK       I    between atoms: C_9  and  N_11 
REMARK    2  A    between atoms: N_11  and  C_12 
REMARK    3  A    between atoms: C_12  and  C_13 
REMARK    4  A    between atoms: C_13  and  N_14 
REMARK    5  A    between atoms: C_13  and  C_20 
ROOT
HETATM    1  C   UNL     1     -40.704 -49.964  11.509  1.00  0.00     0.165 C 
ENDROOT
BRANCH   1   2
HETATM    2  N   UNL     1     -42.096 -50.244  11.822  1.00  0.00    -0.341 N 
HETATM    3  C   UNL     1     -42.397 -50.994  12.937  1.00  0.00     0.316 C 
HETATM    4  N   UNL     1     -43.745 -51.203  13.045  1.00  0.00    -0.338 N 
HETATM    5  O   UNL     1     -41.563 -51.404  13.736  1.00  0.00    -0.247 OA
HETATM    6  H   UNL     1     -44.325 -50.505  12.611  1.00  0.00     0.164 HD
HETATM    7  H   UNL     1     -42.723 -50.407  11.047  1.00  0.00     0.164 HD
BRANCH   4   8
HETATM    8  C   UNL     1     -44.320 -51.943  14.167  1.00  0.00     0.093 C 
HETATM    9  C   UNL     1     -45.055 -53.222  13.697  1.00  0.00    -0.027 C 
HETATM   10  C   UNL     1     -44.345 -53.939  12.540  1.00  0.00     0.017 C 
HETATM   11  C   UNL     1     -45.200 -54.221  14.863  1.00  0.00     0.017 C 
HETATM   12  C   UNL     1     -46.437 -52.696  13.269  1.00  0.00     0.011 C 
HETATM   13  C   UNL     1     -46.707 -51.448  14.115  1.00  0.00     0.003 C 
HETATM   14  C   UNL     1     -45.417 -51.141  14.876  1.00  0.00     0.026 C 
ENDBRANCH   4   8
ENDBRANCH   1   2
BRANCH   1  15
HETATM   15  C   UNL     1     -40.024 -48.877  12.406  1.00  0.00     0.275 C 
BRANCH  15  16
HETATM   16  N   UNL     1     -38.622 -49.043  12.852  1.00  0.00     0.103 N 
HETATM   17  C   UNL     1     -37.601 -49.243  11.813  1.00  0.00     0.299 C 
HETATM   18  C   UNL     1     -37.401 -50.709  11.406  1.00  0.00     0.198 C 
HETATM   19  O   UNL     1     -37.023 -51.498  12.541  1.00  0.00    -0.388 OA
HETATM   20  C   UNL     1     -38.018 -51.436  13.566  1.00  0.00     0.198 C 
HETATM   21  C   UNL     1     -38.388 -49.990  13.957  1.00  0.00     0.299 C 
ENDBRANCH  15  16
BRANCH  15  22
HETATM   22  C   UNL     1     -40.255 -47.481  11.809  1.00  0.00    -0.008 A 
HETATM   23  C   UNL     1     -39.748 -46.340  12.445  1.00  0.00     0.012 A 
HETATM   24  C   UNL     1     -40.070 -45.070  11.967  1.00  0.00     0.018 A 
HETATM   25  C   UNL     1     -40.881 -44.972  10.848  1.00  0.00     0.087 A 
HETATM   26  N   UNL     1     -41.348 -46.039  10.175  1.00  0.00    -0.375 N 
HETATM   27  C   UNL     1     -41.015 -47.259  10.659  1.00  0.00     0.097 A 
ATOM     28  HN  UNL     1     -41.925 -45.934   9.340  1.00  0.00     0.164 HD
ENDBRANCH  15  22
ENDBRANCH   1  15
TORSDOF 5
ENDMDL
MODEL 3
REMARK VINA RESULT:      -6.3      2.591      4.554
REMARK  5 active torsions:
REMARK  status: ('A' for Active; 'I' for Inactive)
REMARK    1  A    between atoms: C_7  and  N_8 
REMARK       I    between atoms: N_8  and  C_9 
REMARK       I    between atoms: C_9  and  N_11 
REMARK    2  A    between atoms: N_11  and  C_12 
REMARK    3  A    between atoms: C_12  and  C_13 
REMARK    4  A    between atoms: C_13  and  N_14 
REMARK    5  A    between atoms: C_13  and  C_20 
ROOT
HETATM    1  C   UNL     1     -41.206 -49.382  11.054  1.00  0.00     0.165 C 
ENDROOT
BRANCH   1   2
HETATM    2  N   UNL     1     -42.458 -49.625  11.752  1.00  0.00    -0.341 N 
HETATM    3  C   UNL     1     -42.615 -50.790  12.468  1.00  0.00     0.316 C 
HETATM    4  N   UNL     1     -43.869 -50.875  13.010  1.00  0.00    -0.338 N 
HETATM    5  O   UNL     1     -41.737 -51.632  12.613  1.00  0.00    -0.247 OA
HETATM    6  H   UNL     1     -44.324 -49.993  13.181  1.00  0.00     0.164 HD
HETATM    7  H   UNL     1     -43.308 -49.311  11.304  1.00  0.00     0.164 HD
BRANCH   4   8
HETATM    8  C   UNL     1     -44.270 -52.005  13.846  1.00  0.00     0.093 C 
HETATM    9  C   UNL     1     -45.780 -52.315  13.710  1.00  0.00    -0.027 C 
HETATM   10  C   UNL     1     -46.307 -52.146  12.278  1.00  0.00     0.017 C 
HETATM   11  C   UNL     1     -46.079 -53.757  14.165  1.00  0.00     0.017 C 
HETATM   12  C   UNL     1     -46.434 -51.305  14.672  1.00  0.00     0.011 C 
HETATM   13  C   UNL     1     -45.403 -51.020  15.767  1.00  0.00     0.003 C 
HETATM   14  C   UNL     1     -44.101 -51.697  15.338  1.00  0.00     0.026 C 
ENDBRANCH   4   8
ENDBRANCH   1   2
BRANCH   1  15
HETATM   15  C   UNL     1     -40.294 -48.278  11.685  1.00  0.00     0.275 C 
BRANCH  15  16
HETATM   16  N   UNL     1     -40.859 -46.959  12.052  1.00  0.00     0.103 N 
HETATM   17  C   UNL     1     -42.151 -46.588  11.458  1.00  0.00     0.299 C 
HETATM   18  C   UNL     1     -42.036 -45.898  10.092  1.00  0.00     0.198 C 
HETATM   19  O   UNL     1     -41.250 -44.705  10.197  1.00  0.00    -0.388 OA
HETATM   20  C   UNL     1     -39.935 -44.996  10.678  1.00  0.00     0.198 C 
HETATM   21  C   UNL     1     -39.942 -45.807  11.991  1.00  0.00     0.299 C 
ENDBRANCH  15  16
BRANCH  15  22
HETATM   22  C   UNL     1     -39.470 -48.870  12.837  1.00  0.00    -0.008 A 
HETATM   23  C   UNL     1     -38.286 -49.572  12.581  1.00  0.00     0.012 A 
HETATM   24  C   UNL     1     -37.613 -50.214  13.620  1.00  0.00     0.018 A 
HETATM   25  C   UNL     1     -38.134 -50.122  14.901  1.00  0.00     0.087 A 
HETATM   26  N   UNL     1     -39.239 -49.416  15.202  1.00  0.00    -0.375 N 
HETATM   27  C   UNL     1     -39.868 -48.799  14.174  1.00  0.00     0.097 A 
ATOM     28  HN  UNL     1     -39.585 -49.349  16.159  1.00  0.00     0.164 HD
ENDBRANCH  15  22
ENDBRANCH   1  15
TORSDOF 5
ENDMDL
MODEL 4
REMARK VINA RESULT:      -6.3      3.179      8.498
REMARK  5 active torsions:
REMARK  status: ('A' for Active; 'I' for Inactive)
REMARK    1  A    between atoms: C_7  and  N_8 
REMARK       I    between atoms: N_8  and  C_9 
REMARK       I    between atoms: C_9  and  N_11 
REMARK    2  A    between atoms: N_11  and  C_12 
REMARK    3  A    between atoms: C_12  and  C_13 
REMARK    4  A    between atoms: C_13  and  N_14 
REMARK    5  A    between atoms: C_13  and  C_20 
ROOT
HETATM    1  C   UNL     1     -42.437 -53.385  12.787  1.00  0.00     0.165 C 
ENDROOT
BRANCH   1   2
HETATM    2  N   UNL     1     -42.831 -52.045  12.383  1.00  0.00    -0.341 N 
HETATM    3  C   UNL     1     -41.858 -51.098  12.152  1.00  0.00     0.316 C 
HETATM    4  N   UNL     1     -42.410 -49.886  11.837  1.00  0.00    -0.338 N 
HETATM    5  O   UNL     1     -40.655 -51.320  12.206  1.00  0.00    -0.247 OA
HETATM    6  H   UNL     1     -43.327 -49.926  11.423  1.00  0.00     0.164 HD
HETATM    7  H   UNL     1     -43.673 -51.665  12.794  1.00  0.00     0.164 HD
BRANCH   4   8
HETATM    8  C   UNL     1     -41.583 -48.726  11.513  1.00  0.00     0.093 C 
HETATM    9  C   UNL     1     -41.728 -47.602  12.568  1.00  0.00    -0.027 C 
HETATM   10  C   UNL     1     -41.846 -48.130  14.004  1.00  0.00     0.017 C 
HETATM   11  C   UNL     1     -40.521 -46.644  12.506  1.00  0.00     0.017 C 
HETATM   12  C   UNL     1     -43.012 -46.873  12.129  1.00  0.00     0.011 C 
HETATM   13  C   UNL     1     -43.122 -47.062  10.614  1.00  0.00     0.003 C 
HETATM   14  C   UNL     1     -42.030 -48.054  10.210  1.00  0.00     0.026 C 
ENDBRANCH   4   8
ENDBRANCH   1   2
BRANCH   1  15
HETATM   15  C   UNL     1     -42.401 -53.633  14.331  1.00  0.00     0.275 C 
BRANCH  15  16
HETATM   16  N   UNL     1     -43.561 -54.245  15.019  1.00  0.00     0.103 N 
HETATM   17  C   UNL     1     -44.562 -54.924  14.183  1.00  0.00     0.299 C 
HETATM   18  C   UNL     1     -45.663 -53.998  13.648  1.00  0.00     0.198 C 
HETATM   19  O   UNL     1     -46.359 -53.369  14.731  1.00  0.00    -0.388 OA
HETATM   20  C   UNL     1     -45.466 -52.601  15.541  1.00  0.00     0.198 C 
HETATM   21  C   UNL     1     -44.246 -53.414  16.025  1.00  0.00     0.299 C 
ENDBRANCH  15  16
BRANCH  15  22
HETATM   22  C   UNL     1     -41.092 -54.333  14.723  1.00  0.00    -0.008 A 
HETATM   23  C   UNL     1     -40.981 -55.009  15.944  1.00  0.00     0.012 A 
HETATM   24  C   UNL     1     -39.752 -55.530  16.348  1.00  0.00     0.018 A 
HETATM   25  C   UNL     1     -38.662 -55.378  15.507  1.00  0.00     0.087 A 
HETATM   26  N   UNL     1     -38.732 -54.782  14.303  1.00  0.00    -0.375 N 
HETATM   27  C   UNL     1     -39.939 -54.290  13.935  1.00  0.00     0.097 A 
ATOM     28  HN  UNL     1     -37.916 -54.705  13.696  1.00  0.00     0.164 HD
ENDBRANCH  15  22
ENDBRANCH   1  15
TORSDOF 5
ENDMDL
MODEL 5
REMARK VINA RESULT:      -6.2      3.089      7.981
REMARK  5 active torsions:
REMARK  status: ('A' for Active; 'I' for Inactive)
REMARK    1  A    between atoms: C_7  and  N_8 
REMARK       I    between atoms: N_8  and  C_9 
REMARK       I    between atoms: C_9  and  N_11 
REMARK    2  A    between atoms: N_11  and  C_12 
REMARK    3  A    between atoms: C_12  and  C_13 
REMARK    4  A    between atoms: C_13  and  N_14 
REMARK    5  A    between atoms: C_13  and  C_20 
ROOT
HETATM    1  C   UNL     1     -41.542 -53.954  12.789  1.00  0.00     0.165 C 
ENDROOT
BRANCH   1   2
HETATM    2  N   UNL     1     -42.024 -52.732  12.166  1.00  0.00    -0.341 N 
HETATM    3  C   UNL     1     -41.363 -51.548  12.406  1.00  0.00     0.316 C 
HETATM    4  N   UNL     1     -41.985 -50.499  11.786  1.00  0.00    -0.338 N 
HETATM    5  O   UNL     1     -40.341 -51.454  13.075  1.00  0.00    -0.247 OA
HETATM    6  H   UNL     1     -42.520 -50.738  10.968  1.00  0.00     0.164 HD
HETATM    7  H   UNL     1     -43.024 -52.622  12.071  1.00  0.00     0.164 HD
BRANCH   4   8
HETATM    8  C   UNL     1     -41.454 -49.139  11.861  1.00  0.00     0.093 C 
HETATM    9  C   UNL     1     -42.405 -48.190  12.629  1.00  0.00    -0.027 C 
HETATM   10  C   UNL     1     -43.083 -48.856  13.834  1.00  0.00     0.017 C 
HETATM   11  C   UNL     1     -41.641 -46.949  13.132  1.00  0.00     0.017 C 
HETATM   12  C   UNL     1     -43.436 -47.784  11.558  1.00  0.00     0.011 C 
HETATM   13  C   UNL     1     -42.713 -47.860  10.210  1.00  0.00     0.003 C 
HETATM   14  C   UNL     1     -41.346 -48.493  10.475  1.00  0.00     0.026 C 
ENDBRANCH   4   8
ENDBRANCH   1   2
BRANCH   1  15
HETATM   15  C   UNL     1     -42.282 -54.369  14.104  1.00  0.00     0.275 C 
BRANCH  15  16
HETATM   16  N   UNL     1     -41.647 -54.148  15.423  1.00  0.00     0.103 N 
HETATM   17  C   UNL     1     -40.191 -53.950  15.448  1.00  0.00     0.299 C 
HETATM   18  C   UNL     1     -39.383 -55.251  15.538  1.00  0.00     0.198 C 
HETATM   19  O   UNL     1     -39.741 -55.982  16.718  1.00  0.00    -0.388 OA
HETATM   20  C   UNL     1     -41.134 -56.303  16.723  1.00  0.00     0.198 C 
HETATM   21  C   UNL     1     -42.035 -55.069  16.507  1.00  0.00     0.299 C 
ENDBRANCH  15  16
BRANCH  15  22
HETATM   22  C   UNL     1     -43.724 -53.843  14.086  1.00  0.00    -0.008 A 
HETATM   23  C   UNL     1     -44.051 -52.634  14.712  1.00  0.00     0.012 A 
HETATM   24  C   UNL     1     -45.382 -52.228  14.801  1.00  0.00     0.018 A 
HETATM   25  C   UNL     1     -46.358 -53.038  14.244  1.00  0.00     0.087 A 
HETATM   26  N   UNL     1     -46.087 -54.181  13.589  1.00  0.00    -0.375 N 
HETATM   27  C   UNL     1     -44.786 -54.547  13.513  1.00  0.00     0.097 A 
ATOM     28  HN  UNL     1     -46.827 -54.745  13.169  1.00  0.00     0.164 HD
ENDBRANCH  15  22
ENDBRANCH   1  15
TORSDOF 5
ENDMDL
MODEL 6
REMARK VINA RESULT:      -6.2      1.620      2.151
REMARK  5 active torsions:
REMARK  status: ('A' for Active; 'I' for Inactive)
REMARK    1  A    between atoms: C_7  and  N_8 
REMARK       I    between atoms: N_8  and  C_9 
REMARK       I    between atoms: C_9  and  N_11 
REMARK    2  A    between atoms: N_11  and  C_12 
REMARK    3  A    between atoms: C_12  and  C_13 
REMARK    4  A    between atoms: C_13  and  N_14 
REMARK    5  A    between atoms: C_13  and  C_20 
ROOT
HETATM    1  C   UNL     1     -42.738 -47.037  13.093  1.00  0.00     0.165 C 
ENDROOT
BRANCH   1   2
HETATM    2  N   UNL     1     -43.183 -48.369  12.717  1.00  0.00    -0.341 N 
HETATM    3  C   UNL     1     -43.195 -49.368  13.665  1.00  0.00     0.316 C 
HETATM    4  N   UNL     1     -43.589 -50.561  13.123  1.00  0.00    -0.338 N 
HETATM    5  O   UNL     1     -42.907 -49.201  14.844  1.00  0.00    -0.247 OA
HETATM    6  H   UNL     1     -44.178 -50.491  12.310  1.00  0.00     0.164 HD
HETATM    7  H   UNL     1     -42.940 -48.696  11.791  1.00  0.00     0.164 HD
BRANCH   4   8
HETATM    8  C   UNL     1     -43.717 -51.769  13.936  1.00  0.00     0.093 C 
HETATM    9  C   UNL     1     -43.128 -53.009  13.222  1.00  0.00    -0.027 C 
HETATM   10  C   UNL     1     -41.848 -52.703  12.432  1.00  0.00     0.017 C 
HETATM   11  C   UNL     1     -42.808 -54.120  14.243  1.00  0.00     0.017 C 
HETATM   12  C   UNL     1     -44.271 -53.454  12.290  1.00  0.00     0.011 C 
HETATM   13  C   UNL     1     -45.574 -53.012  12.962  1.00  0.00     0.003 C 
HETATM   14  C   UNL     1     -45.184 -52.150  14.163  1.00  0.00     0.026 C 
ENDBRANCH   4   8
ENDBRANCH   1   2
BRANCH   1  15
HETATM   15  C   UNL     1     -41.915 -46.276  12.002  1.00  0.00     0.275 C 
BRANCH  15  16
HETATM   16  N   UNL     1     -40.434 -46.299  12.027  1.00  0.00     0.103 N 
HETATM   17  C   UNL     1     -39.787 -46.758  13.264  1.00  0.00     0.299 C 
HETATM   18  C   UNL     1     -39.555 -45.649  14.299  1.00  0.00     0.198 C 
HETATM   19  O   UNL     1     -38.741 -44.608  13.745  1.00  0.00    -0.388 OA
HETATM   20  C   UNL     1     -39.353 -44.037  12.586  1.00  0.00     0.198 C 
HETATM   21  C   UNL     1     -39.746 -45.094  11.532  1.00  0.00     0.299 C 
ENDBRANCH  15  16
BRANCH  15  22
HETATM   22  C   UNL     1     -42.451 -46.615  10.603  1.00  0.00    -0.008 A 
HETATM   23  C   UNL     1     -43.328 -45.745   9.944  1.00  0.00     0.012 A 
HETATM   24  C   UNL     1     -43.910 -46.120   8.734  1.00  0.00     0.018 A 
HETATM   25  C   UNL     1     -43.584 -47.356   8.199  1.00  0.00     0.087 A 
HETATM   26  N   UNL     1     -42.707 -48.202   8.770  1.00  0.00    -0.375 N 
HETATM   27  C   UNL     1     -42.155 -47.809   9.942  1.00  0.00     0.097 A 
ATOM     28  HN  UNL     1     -42.470 -49.096   8.340  1.00  0.00     0.164 HD
ENDBRANCH  15  22
ENDBRANCH   1  15
TORSDOF 5
ENDMDL
MODEL 7
REMARK VINA RESULT:      -5.9      2.853      4.262
REMARK  5 active torsions:
REMARK  status: ('A' for Active; 'I' for Inactive)
REMARK    1  A    between atoms: C_7  and  N_8 
REMARK       I    between atoms: N_8  and  C_9 
REMARK       I    between atoms: C_9  and  N_11 
REMARK    2  A    between atoms: N_11  and  C_12 
REMARK    3  A    between atoms: C_12  and  C_13 
REMARK    4  A    between atoms: C_13  and  N_14 
REMARK    5  A    between atoms: C_13  and  C_20 
ROOT
HETATM    1  C   UNL     1     -41.416 -48.129  13.792  1.00  0.00     0.165 C 
ENDROOT
BRANCH   1   2
HETATM    2  N   UNL     1     -42.587 -48.950  13.531  1.00  0.00    -0.341 N 
HETATM    3  C   UNL     1     -42.891 -49.982  14.391  1.00  0.00     0.316 C 
HETATM    4  N   UNL     1     -43.988 -50.679  13.962  1.00  0.00    -0.338 N 
HETATM    5  O   UNL     1     -42.267 -50.230  15.415  1.00  0.00    -0.247 OA
HETATM    6  H   UNL     1     -44.632 -50.158  13.391  1.00  0.00     0.164 HD
HETATM    7  H   UNL     1     -42.806 -49.154  12.565  1.00  0.00     0.164 HD
BRANCH   4   8
HETATM    8  C   UNL     1     -44.531 -51.801  14.724  1.00  0.00     0.093 C 
HETATM    9  C   UNL     1     -45.175 -52.865  13.803  1.00  0.00    -0.027 C 
HETATM   10  C   UNL     1     -44.404 -53.080  12.493  1.00  0.00     0.017 C 
HETATM   11  C   UNL     1     -45.274 -54.221  14.530  1.00  0.00     0.017 C 
HETATM   12  C   UNL     1     -46.583 -52.296  13.540  1.00  0.00     0.011 C 
HETATM   13  C   UNL     1     -46.944 -51.450  14.764  1.00  0.00     0.003 C 
HETATM   14  C   UNL     1     -45.687 -51.366  15.632  1.00  0.00     0.026 C 
ENDBRANCH   4   8
ENDBRANCH   1   2
BRANCH   1  15
HETATM   15  C   UNL     1     -40.436 -47.961  12.584  1.00  0.00     0.275 C 
BRANCH  15  16
HETATM   16  N   UNL     1     -39.839 -46.641  12.280  1.00  0.00     0.103 N 
HETATM   17  C   UNL     1     -40.150 -45.532  13.194  1.00  0.00     0.299 C 
HETATM   18  C   UNL     1     -41.436 -44.772  12.841  1.00  0.00     0.198 C 
HETATM   19  O   UNL     1     -41.350 -44.230  11.518  1.00  0.00    -0.388 OA
HETATM   20  C   UNL     1     -41.146 -45.263  10.550  1.00  0.00     0.198 C 
HETATM   21  C   UNL     1     -39.945 -46.171  10.887  1.00  0.00     0.299 C 
ENDBRANCH  15  16
BRANCH  15  22
HETATM   22  C   UNL     1     -39.365 -49.060  12.617  1.00  0.00    -0.008 A 
HETATM   23  C   UNL     1     -38.712 -49.385  13.813  1.00  0.00     0.012 A 
HETATM   24  C   UNL     1     -37.652 -50.292  13.810  1.00  0.00     0.018 A 
HETATM   25  C   UNL     1     -37.282 -50.870  12.606  1.00  0.00     0.087 A 
HETATM   26  N   UNL     1     -37.914 -50.629  11.443  1.00  0.00    -0.375 N 
HETATM   27  C   UNL     1     -38.941 -49.748  11.477  1.00  0.00     0.097 A 
ATOM     28  HN  UNL     1     -37.632 -51.088  10.577  1.00  0.00     0.164 HD
ENDBRANCH  15  22
ENDBRANCH   1  15
TORSDOF 5
ENDMDL
MODEL 8
REMARK VINA RESULT:      -5.9      3.319      5.058
REMARK  5 active torsions:
REMARK  status: ('A' for Active; 'I' for Inactive)
REMARK    1  A    between atoms: C_7  and  N_8 
REMARK       I    between atoms: N_8  and  C_9 
REMARK       I    between atoms: C_9  and  N_11 
REMARK    2  A    between atoms: N_11  and  C_12 
REMARK    3  A    between atoms: C_12  and  C_13 
REMARK    4  A    between atoms: C_13  and  N_14 
REMARK    5  A    between atoms: C_13  and  C_20 
ROOT
HETATM    1  C   UNL     1     -39.646 -49.412  13.008  1.00  0.00     0.165 C 
ENDROOT
BRANCH   1   2
HETATM    2  N   UNL     1     -40.598 -50.381  13.525  1.00  0.00    -0.341 N 
HETATM    3  C   UNL     1     -41.847 -50.471  12.950  1.00  0.00     0.316 C 
HETATM    4  N   UNL     1     -42.625 -51.392  13.596  1.00  0.00    -0.338 N 
HETATM    5  O   UNL     1     -42.204 -49.820  11.976  1.00  0.00    -0.247 OA
HETATM    6  H   UNL     1     -42.122 -52.126  14.068  1.00  0.00     0.164 HD
HETATM    7  H   UNL     1     -40.602 -50.542  14.523  1.00  0.00     0.164 HD
BRANCH   4   8
HETATM    8  C   UNL     1     -43.984 -51.697  13.152  1.00  0.00     0.093 C 
HETATM    9  C   UNL     1     -44.978 -51.754  14.337  1.00  0.00    -0.027 C 
HETATM   10  C   UNL     1     -44.701 -50.695  15.412  1.00  0.00     0.017 C 
HETATM   11  C   UNL     1     -46.425 -51.566  13.838  1.00  0.00     0.017 C 
HETATM   12  C   UNL     1     -44.785 -53.180  14.888  1.00  0.00     0.011 C 
HETATM   13  C   UNL     1     -44.337 -54.044  13.707  1.00  0.00     0.003 C 
HETATM   14  C   UNL     1     -44.081 -53.096  12.535  1.00  0.00     0.026 C 
ENDBRANCH   4   8
ENDBRANCH   1   2
BRANCH   1  15
HETATM   15  C   UNL     1     -39.679 -48.010  13.701  1.00  0.00     0.275 C 
BRANCH  15  16
HETATM   16  N   UNL     1     -38.742 -47.697  14.805  1.00  0.00     0.103 N 
HETATM   17  C   UNL     1     -37.356 -48.167  14.670  1.00  0.00     0.299 C 
HETATM   18  C   UNL     1     -37.125 -49.593  15.188  1.00  0.00     0.198 C 
HETATM   19  O   UNL     1     -37.480 -49.686  16.573  1.00  0.00    -0.388 OA
HETATM   20  C   UNL     1     -38.851 -49.337  16.779  1.00  0.00     0.198 C 
HETATM   21  C   UNL     1     -39.219 -47.966  16.173  1.00  0.00     0.299 C 
ENDBRANCH  15  16
BRANCH  15  22
HETATM   22  C   UNL     1     -39.680 -46.897  12.643  1.00  0.00    -0.008 A 
HETATM   23  C   UNL     1     -39.461 -45.563  13.008  1.00  0.00     0.012 A 
HETATM   24  C   UNL     1     -39.591 -44.547  12.062  1.00  0.00     0.018 A 
HETATM   25  C   UNL     1     -39.921 -44.894  10.762  1.00  0.00     0.087 A 
HETATM   26  N   UNL     1     -40.089 -46.165  10.353  1.00  0.00    -0.375 N 
HETATM   27  C   UNL     1     -39.952 -47.130  11.293  1.00  0.00     0.097 A 
ATOM     28  HN  UNL     1     -40.309 -46.390   9.383  1.00  0.00     0.164 HD
ENDBRANCH  15  22
ENDBRANCH   1  15
TORSDOF 5
ENDMDL
MODEL 9
REMARK VINA RESULT:      -5.8      3.106      4.389
REMARK  5 active torsions:
REMARK  status: ('A' for Active; 'I' for Inactive)
REMARK    1  A    between atoms: C_7  and  N_8 
REMARK       I    between atoms: N_8  and  C_9 
REMARK       I    between atoms: C_9  and  N_11 
REMARK    2  A    between atoms: N_11  and  C_12 
REMARK    3  A    between atoms: C_12  and  C_13 
REMARK    4  A    between atoms: C_13  and  N_14 
REMARK    5  A    between atoms: C_13  and  C_20 
ROOT
HETATM    1  C   UNL     1     -40.994 -49.054  14.941  1.00  0.00     0.165 C 
ENDROOT
BRANCH   1   2
HETATM    2  N   UNL     1     -41.968 -49.817  14.177  1.00  0.00    -0.341 N 
HETATM    3  C   UNL     1     -42.829 -50.664  14.838  1.00  0.00     0.316 C 
HETATM    4  N   UNL     1     -43.634 -51.337  13.961  1.00  0.00    -0.338 N 
HETATM    5  O   UNL     1     -42.876 -50.783  16.057  1.00  0.00    -0.247 OA
HETATM    6  H   UNL     1     -43.798 -50.873  13.083  1.00  0.00     0.164 HD
HETATM    7  H   UNL     1     -41.680 -50.163  13.272  1.00  0.00     0.164 HD
BRANCH   4   8
HETATM    8  C   UNL     1     -44.660 -52.272  14.421  1.00  0.00     0.093 C 
HETATM    9  C   UNL     1     -45.026 -53.308  13.331  1.00  0.00    -0.027 C 
HETATM   10  C   UNL     1     -43.816 -53.780  12.513  1.00  0.00     0.017 C 
HETATM   11  C   UNL     1     -45.690 -54.547  13.964  1.00  0.00     0.017 C 
HETATM   12  C   UNL     1     -46.038 -52.550  12.452  1.00  0.00     0.011 C 
HETATM   13  C   UNL     1     -46.729 -51.534  13.365  1.00  0.00     0.003 C 
HETATM   14  C   UNL     1     -45.989 -51.564  14.703  1.00  0.00     0.026 C 
ENDBRANCH   4   8
ENDBRANCH   1   2
BRANCH   1  15
HETATM   15  C   UNL     1     -39.991 -48.209  14.088  1.00  0.00     0.275 C 
BRANCH  15  16
HETATM   16  N   UNL     1     -38.661 -48.757  13.734  1.00  0.00     0.103 N 
HETATM   17  C   UNL     1     -38.409 -50.171  14.043  1.00  0.00     0.299 C 
HETATM   18  C   UNL     1     -37.875 -50.417  15.461  1.00  0.00     0.198 C 
HETATM   19  O   UNL     1     -36.649 -49.705  15.665  1.00  0.00    -0.388 OA
HETATM   20  C   UNL     1     -36.832 -48.299  15.479  1.00  0.00     0.198 C 
HETATM   21  C   UNL     1     -37.490 -47.953  14.126  1.00  0.00     0.299 C 
ENDBRANCH  15  16
BRANCH  15  22
HETATM   22  C   UNL     1     -40.701 -47.634  12.854  1.00  0.00    -0.008 A 
HETATM   23  C   UNL     1     -41.771 -46.743  12.996  1.00  0.00     0.012 A 
HETATM   24  C   UNL     1     -42.491 -46.327  11.877  1.00  0.00     0.018 A 
HETATM   25  C   UNL     1     -42.108 -46.801  10.633  1.00  0.00     0.087 A 
HETATM   26  N   UNL     1     -41.055 -47.616  10.442  1.00  0.00    -0.375 N 
HETATM   27  C   UNL     1     -40.373 -48.000  11.546  1.00  0.00     0.097 A 
ATOM     28  HN  UNL     1     -40.784 -47.930   9.510  1.00  0.00     0.164 HD
ENDBRANCH  15  22
ENDBRANCH   1  15
TORSDOF 5
ENDMDL
