MODEL 1
REMARK VINA RESULT:      -7.0      0.000      0.000
REMARK  5 active torsions:
REMARK  status: ('A' for Active; 'I' for Inactive)
REMARK    1  A    between atoms: C_2  and  C_3 
REMARK       I    between atoms: C_2  and  N_22 
REMARK    2  A    between atoms: C_3  and  C_4 
REMARK    3  A    between atoms: C_4  and  N_5 
REMARK       I    between atoms: N_5  and  C_6 
REMARK       I    between atoms: C_6  and  N_8 
REMARK    4  A    between atoms: N_8  and  C_9 
REMARK    5  A    between atoms: C_12  and  N_16 
ROOT
HETATM    1  N   UNL     1     -41.811 -53.322  14.184  1.00  0.00    -0.342 N 
HETATM    2  C   UNL     1     -42.232 -52.393  13.253  1.00  0.00     0.320 C 
HETATM    3  O   UNL     1     -43.039 -52.679  12.376  1.00  0.00    -0.247 OA
HETATM    4  N   UNL     1     -41.587 -51.182  13.398  1.00  0.00    -0.308 N 
HETATM    5  H   UNL     1     -41.670 -52.954  15.118  1.00  0.00     0.164 HD
HETATM    6  H   UNL     1     -40.758 -51.198  13.976  1.00  0.00     0.170 HD
ENDROOT
BRANCH   4   7
HETATM    7  C   UNL     1     -41.774 -50.066  12.547  1.00  0.00     0.051 A 
HETATM    8  C   UNL     1     -42.771 -49.123  12.740  1.00  0.00     0.035 A 
HETATM    9  C   UNL     1     -42.955 -48.099  11.811  1.00  0.00     0.051 A 
HETATM   10  C   UNL     1     -42.146 -48.001  10.681  1.00  0.00     0.103 A 
HETATM   11  N   UNL     1     -41.121 -48.868  10.522  1.00  0.00    -0.350 N 
HETATM   12  C   UNL     1     -40.954 -49.861  11.443  1.00  0.00     0.119 A 
ATOM     13  HN  UNL     1     -40.485 -48.782   9.730  1.00  0.00     0.166 HD
BRANCH  10  14
HETATM   14  N   UNL     1     -42.352 -46.997   9.755  1.00  0.00    -0.363 N 
HETATM   15  C   UNL     1     -41.915 -45.613   9.996  1.00  0.00     0.150 C 
HETATM   16  C   UNL     1     -43.120 -44.668  10.137  1.00  0.00     0.187 C 
HETATM   17  O   UNL     1     -44.029 -44.788   9.032  1.00  0.00    -0.388 OA
HETATM   18  C   UNL     1     -44.529 -46.135   8.956  1.00  0.00     0.187 C 
HETATM   19  C   UNL     1     -43.392 -47.141   8.730  1.00  0.00     0.150 C 
ENDBRANCH  10  14
ENDBRANCH   4   7
BRANCH   1  20
HETATM   20  C   UNL     1     -42.395 -54.659  14.153  1.00  0.00     0.133 C 
BRANCH  20  21
HETATM   21  C   UNL     1     -43.472 -54.866  15.213  1.00  0.00     0.122 C 
BRANCH  21  22
HETATM   22  C   UNL     1     -44.867 -54.635  14.668  1.00  0.00     0.221 C 
HETATM   23  O   UNL     1     -45.439 -55.480  13.981  1.00  0.00    -0.273 OA
HETATM   24  N   UNL     1     -45.444 -53.419  14.959  1.00  0.00    -0.352 N 
HETATM   25  C   UNL     1     -44.884 -52.332  15.747  1.00  0.00     0.126 C 
HETATM   26  C   UNL     1     -46.763 -53.075  14.474  1.00  0.00     0.126 C 
HETATM   27  C   UNL     1     -45.790 -51.131  15.474  1.00  0.00     0.021 C 
HETATM   28  C   UNL     1     -46.696 -51.568  14.325  1.00  0.00     0.021 C 
ENDBRANCH  21  22
ENDBRANCH  20  21
ENDBRANCH   1  20
TORSDOF 5
ENDMDL
MODEL 2
REMARK VINA RESULT:      -6.6      1.915      2.238
REMARK  5 active torsions:
REMARK  status: ('A' for Active; 'I' for Inactive)
REMARK    1  A    between atoms: C_2  and  C_3 
REMARK       I    between atoms: C_2  and  N_22 
REMARK    2  A    between atoms: C_3  and  C_4 
REMARK    3  A    between atoms: C_4  and  N_5 
REMARK       I    between atoms: N_5  and  C_6 
REMARK       I    between atoms: C_6  and  N_8 
REMARK    4  A    between atoms: N_8  and  C_9 
REMARK    5  A    between atoms: C_12  and  N_16 
ROOT
HETATM    1  N   UNL     1     -42.213 -53.144  12.691  1.00  0.00    -0.342 N 
HETATM    2  C   UNL     1     -41.823 -51.835  12.892  1.00  0.00     0.320 C 
HETATM    3  O   UNL     1     -41.346 -51.459  13.957  1.00  0.00    -0.247 OA
HETATM    4  N   UNL     1     -42.105 -51.035  11.803  1.00  0.00    -0.308 N 
HETATM    5  H   UNL     1     -42.030 -53.504  11.761  1.00  0.00     0.164 HD
HETATM    6  H   UNL     1     -42.748 -51.429  11.130  1.00  0.00     0.170 HD
ENDROOT
BRANCH   4   7
HETATM    7  C   UNL     1     -41.872 -49.639  11.750  1.00  0.00     0.051 A 
HETATM    8  C   UNL     1     -42.793 -48.700  12.184  1.00  0.00     0.035 A 
HETATM    9  C   UNL     1     -42.535 -47.339  12.019  1.00  0.00     0.051 A 
HETATM   10  C   UNL     1     -41.355 -46.899  11.423  1.00  0.00     0.103 A 
HETATM   11  N   UNL     1     -40.414 -47.803  11.068  1.00  0.00    -0.350 N 
HETATM   12  C   UNL     1     -40.683 -49.130  11.240  1.00  0.00     0.119 A 
ATOM     13  HN  UNL     1     -39.522 -47.500  10.678  1.00  0.00     0.166 HD
BRANCH  10  14
HETATM   14  N   UNL     1     -41.119 -45.550  11.243  1.00  0.00    -0.363 N 
HETATM   15  C   UNL     1     -39.779 -44.964  11.408  1.00  0.00     0.150 C 
HETATM   16  C   UNL     1     -39.732 -44.020  12.621  1.00  0.00     0.187 C 
HETATM   17  O   UNL     1     -40.776 -43.036  12.577  1.00  0.00    -0.388 OA
HETATM   18  C   UNL     1     -42.059 -43.686  12.572  1.00  0.00     0.187 C 
HETATM   19  C   UNL     1     -42.224 -44.588  11.341  1.00  0.00     0.150 C 
ENDBRANCH  10  14
ENDBRANCH   4   7
BRANCH   1  20
HETATM   20  C   UNL     1     -41.989 -54.113  13.759  1.00  0.00     0.133 C 
BRANCH  20  21
HETATM   21  C   UNL     1     -43.282 -54.650  14.361  1.00  0.00     0.122 C 
BRANCH  21  22
HETATM   22  C   UNL     1     -44.509 -54.161  13.618  1.00  0.00     0.221 C 
HETATM   23  O   UNL     1     -44.769 -54.546  12.479  1.00  0.00    -0.273 OA
HETATM   24  N   UNL     1     -45.297 -53.242  14.275  1.00  0.00    -0.352 N 
HETATM   25  C   UNL     1     -45.106 -52.697  15.610  1.00  0.00     0.126 C 
HETATM   26  C   UNL     1     -46.481 -52.686  13.658  1.00  0.00     0.126 C 
HETATM   27  C   UNL     1     -46.063 -51.508  15.698  1.00  0.00     0.021 C 
HETATM   28  C   UNL     1     -46.579 -51.305  14.275  1.00  0.00     0.021 C 
ENDBRANCH  21  22
ENDBRANCH  20  21
ENDBRANCH   1  20
TORSDOF 5
ENDMDL
MODEL 3
REMARK VINA RESULT:      -6.3      2.405      3.149
REMARK  5 active torsions:
REMARK  status: ('A' for Active; 'I' for Inactive)
REMARK    1  A    between atoms: C_2  and  C_3 
REMARK       I    between atoms: C_2  and  N_22 
REMARK    2  A    between atoms: C_3  and  C_4 
REMARK    3  A    between atoms: C_4  and  N_5 
REMARK       I    between atoms: N_5  and  C_6 
REMARK       I    between atoms: C_6  and  N_8 
REMARK    4  A    between atoms: N_8  and  C_9 
REMARK    5  A    between atoms: C_12  and  N_16 
ROOT
HETATM    1  N   UNL     1     -42.029 -52.000  11.859  1.00  0.00    -0.342 N 
HETATM    2  C   UNL     1     -41.713 -50.727  12.293  1.00  0.00     0.320 C 
HETATM    3  O   UNL     1     -41.120 -50.534  13.348  1.00  0.00    -0.247 OA
HETATM    4  N   UNL     1     -42.204 -49.753  11.448  1.00  0.00    -0.308 N 
HETATM    5  H   UNL     1     -41.952 -52.139  10.857  1.00  0.00     0.164 HD
HETATM    6  H   UNL     1     -42.904 -50.063  10.788  1.00  0.00     0.170 HD
ENDROOT
BRANCH   4   7
HETATM    7  C   UNL     1     -42.084 -48.360  11.674  1.00  0.00     0.051 A 
HETATM    8  C   UNL     1     -40.865 -47.705  11.742  1.00  0.00     0.035 A 
HETATM    9  C   UNL     1     -40.817 -46.348  12.058  1.00  0.00     0.051 A 
HETATM   10  C   UNL     1     -41.983 -45.626  12.306  1.00  0.00     0.103 A 
HETATM   11  N   UNL     1     -43.182 -46.235  12.166  1.00  0.00    -0.350 N 
HETATM   12  C   UNL     1     -43.209 -47.563  11.852  1.00  0.00     0.119 A 
ATOM     13  HN  UNL     1     -44.048 -45.713  12.292  1.00  0.00     0.166 HD
BRANCH  10  14
HETATM   14  N   UNL     1     -41.923 -44.287  12.641  1.00  0.00    -0.363 N 
HETATM   15  C   UNL     1     -42.695 -43.267  11.915  1.00  0.00     0.150 C 
HETATM   16  C   UNL     1     -41.767 -42.318  11.139  1.00  0.00     0.187 C 
HETATM   17  O   UNL     1     -40.745 -41.760  11.979  1.00  0.00    -0.388 OA
HETATM   18  C   UNL     1     -39.938 -42.815  12.531  1.00  0.00     0.187 C 
HETATM   19  C   UNL     1     -40.776 -43.766  13.395  1.00  0.00     0.150 C 
ENDBRANCH  10  14
ENDBRANCH   4   7
BRANCH   1  20
HETATM   20  C   UNL     1     -41.586 -53.141  12.654  1.00  0.00     0.133 C 
BRANCH  20  21
HETATM   21  C   UNL     1     -42.570 -53.522  13.754  1.00  0.00     0.122 C 
BRANCH  21  22
HETATM   22  C   UNL     1     -44.003 -53.546  13.262  1.00  0.00     0.221 C 
HETATM   23  O   UNL     1     -44.326 -54.157  12.245  1.00  0.00    -0.273 OA
HETATM   24  N   UNL     1     -44.914 -52.821  13.998  1.00  0.00    -0.352 N 
HETATM   25  C   UNL     1     -44.672 -52.050  15.207  1.00  0.00     0.126 C 
HETATM   26  C   UNL     1     -46.307 -52.748  13.613  1.00  0.00     0.126 C 
HETATM   27  C   UNL     1     -45.933 -51.207  15.404  1.00  0.00     0.021 C 
HETATM   28  C   UNL     1     -46.737 -51.386  14.119  1.00  0.00     0.021 C 
ENDBRANCH  21  22
ENDBRANCH  20  21
ENDBRANCH   1  20
TORSDOF 5
ENDMDL
MODEL 4
REMARK VINA RESULT:      -6.1      2.829      4.408
REMARK  5 active torsions:
REMARK  status: ('A' for Active; 'I' for Inactive)
REMARK    1  A    between atoms: C_2  and  C_3 
REMARK       I    between atoms: C_2  and  N_22 
REMARK    2  A    between atoms: C_3  and  C_4 
REMARK    3  A    between atoms: C_4  and  N_5 
REMARK       I    between atoms: N_5  and  C_6 
REMARK       I    between atoms: C_6  and  N_8 
REMARK    4  A    between atoms: N_8  and  C_9 
REMARK    5  A    between atoms: C_12  and  N_16 
ROOT
HETATM    1  N   UNL     1     -40.703 -50.501  11.130  1.00  0.00    -0.342 N 
HETATM    2  C   UNL     1     -40.758 -49.192  11.567  1.00  0.00     0.320 C 
HETATM    3  O   UNL     1     -40.663 -48.904  12.755  1.00  0.00    -0.247 OA
HETATM    4  N   UNL     1     -41.000 -48.308  10.535  1.00  0.00    -0.308 N 
HETATM    5  H   UNL     1     -40.218 -50.635  10.249  1.00  0.00     0.164 HD
HETATM    6  H   UNL     1     -41.334 -48.725   9.677  1.00  0.00     0.170 HD
ENDROOT
BRANCH   4   7
HETATM    7  C   UNL     1     -41.168 -46.911  10.697  1.00  0.00     0.051 A 
HETATM    8  C   UNL     1     -40.107 -46.032  10.834  1.00  0.00     0.035 A 
HETATM    9  C   UNL     1     -40.346 -44.680  11.081  1.00  0.00     0.051 A 
HETATM   10  C   UNL     1     -41.645 -44.189  11.191  1.00  0.00     0.103 A 
HETATM   11  N   UNL     1     -42.689 -45.023  10.982  1.00  0.00    -0.350 N 
HETATM   12  C   UNL     1     -42.435 -46.341  10.737  1.00  0.00     0.119 A 
ATOM     13  HN  UNL     1     -43.646 -44.674  11.006  1.00  0.00     0.166 HD
BRANCH  10  14
HETATM   14  N   UNL     1     -41.871 -42.853  11.459  1.00  0.00    -0.363 N 
HETATM   15  C   UNL     1     -40.772 -41.920  11.753  1.00  0.00     0.150 C 
HETATM   16  C   UNL     1     -40.838 -41.426  13.207  1.00  0.00     0.187 C 
HETATM   17  O   UNL     1     -42.130 -40.895  13.536  1.00  0.00    -0.388 OA
HETATM   18  C   UNL     1     -43.132 -41.914  13.369  1.00  0.00     0.187 C 
HETATM   19  C   UNL     1     -43.192 -42.406  11.917  1.00  0.00     0.150 C 
ENDBRANCH  10  14
ENDBRANCH   4   7
BRANCH   1  20
HETATM   20  C   UNL     1     -40.462 -51.557  12.108  1.00  0.00     0.133 C 
BRANCH  20  21
HETATM   21  C   UNL     1     -41.277 -52.817  11.841  1.00  0.00     0.122 C 
BRANCH  21  22
HETATM   22  C   UNL     1     -41.606 -53.570  13.114  1.00  0.00     0.221 C 
HETATM   23  O   UNL     1     -40.724 -54.022  13.843  1.00  0.00    -0.273 OA
HETATM   24  N   UNL     1     -42.944 -53.747  13.391  1.00  0.00    -0.352 N 
HETATM   25  C   UNL     1     -44.084 -53.277  12.620  1.00  0.00     0.126 C 
HETATM   26  C   UNL     1     -43.381 -54.470  14.566  1.00  0.00     0.126 C 
HETATM   27  C   UNL     1     -45.290 -54.019  13.197  1.00  0.00     0.021 C 
HETATM   28  C   UNL     1     -44.701 -55.074  14.130  1.00  0.00     0.021 C 
ENDBRANCH  21  22
ENDBRANCH  20  21
ENDBRANCH   1  20
TORSDOF 5
ENDMDL
MODEL 5
REMARK VINA RESULT:      -5.9      3.131      3.961
REMARK  5 active torsions:
REMARK  status: ('A' for Active; 'I' for Inactive)
REMARK    1  A    between atoms: C_2  and  C_3 
REMARK       I    between atoms: C_2  and  N_22 
REMARK    2  A    between atoms: C_3  and  C_4 
REMARK    3  A    between atoms: C_4  and  N_5 
REMARK       I    between atoms: N_5  and  C_6 
REMARK       I    between atoms: C_6  and  N_8 
REMARK    4  A    between atoms: N_8  and  C_9 
REMARK    5  A    between atoms: C_12  and  N_16 
ROOT
HETATM    1  N   UNL     1     -38.456 -51.664  15.795  1.00  0.00    -0.342 N 
HETATM    2  C   UNL     1     -39.157 -50.704  15.091  1.00  0.00     0.320 C 
HETATM    3  O   UNL     1     -40.382 -50.658  15.109  1.00  0.00    -0.247 OA
HETATM    4  N   UNL     1     -38.324 -49.896  14.343  1.00  0.00    -0.308 N 
HETATM    5  H   UNL     1     -37.589 -51.338  16.211  1.00  0.00     0.164 HD
HETATM    6  H   UNL     1     -37.383 -50.242  14.217  1.00  0.00     0.170 HD
ENDROOT
BRANCH   4   7
HETATM    7  C   UNL     1     -38.770 -48.868  13.477  1.00  0.00     0.051 A 
HETATM    8  C   UNL     1     -39.190 -47.627  13.927  1.00  0.00     0.035 A 
HETATM    9  C   UNL     1     -39.701 -46.693  13.026  1.00  0.00     0.051 A 
HETATM   10  C   UNL     1     -39.798 -46.984  11.668  1.00  0.00     0.103 A 
HETATM   11  N   UNL     1     -39.320 -48.162  11.206  1.00  0.00    -0.350 N 
HETATM   12  C   UNL     1     -38.819 -49.061  12.102  1.00  0.00     0.119 A 
ATOM     13  HN  UNL     1     -39.333 -48.373  10.209  1.00  0.00     0.166 HD
BRANCH  10  14
HETATM   14  N   UNL     1     -40.329 -46.061  10.787  1.00  0.00    -0.363 N 
HETATM   15  C   UNL     1     -39.644 -44.796  10.478  1.00  0.00     0.150 C 
HETATM   16  C   UNL     1     -40.439 -43.592  11.008  1.00  0.00     0.187 C 
HETATM   17  O   UNL     1     -41.806 -43.615  10.571  1.00  0.00    -0.388 OA
HETATM   18  C   UNL     1     -42.449 -44.812  11.042  1.00  0.00     0.187 C 
HETATM   19  C   UNL     1     -41.766 -46.069  10.487  1.00  0.00     0.150 C 
ENDBRANCH  10  14
ENDBRANCH   4   7
BRANCH   1  20
HETATM   20  C   UNL     1     -39.199 -52.603  16.629  1.00  0.00     0.133 C 
BRANCH  20  21
HETATM   21  C   UNL     1     -39.202 -54.023  16.073  1.00  0.00     0.122 C 
BRANCH  21  22
HETATM   22  C   UNL     1     -39.594 -54.067  14.610  1.00  0.00     0.221 C 
HETATM   23  O   UNL     1     -38.769 -53.886  13.716  1.00  0.00    -0.273 OA
HETATM   24  N   UNL     1     -40.926 -54.289  14.340  1.00  0.00    -0.352 N 
HETATM   25  C   UNL     1     -42.004 -54.509  15.290  1.00  0.00     0.126 C 
HETATM   26  C   UNL     1     -41.423 -54.329  12.981  1.00  0.00     0.126 C 
HETATM   27  C   UNL     1     -43.291 -54.373  14.476  1.00  0.00     0.021 C 
HETATM   28  C   UNL     1     -42.848 -53.832  13.118  1.00  0.00     0.021 C 
ENDBRANCH  21  22
ENDBRANCH  20  21
ENDBRANCH   1  20
TORSDOF 5
ENDMDL
MODEL 6
REMARK VINA RESULT:      -5.7      3.184      8.437
REMARK  5 active torsions:
REMARK  status: ('A' for Active; 'I' for Inactive)
REMARK    1  A    between atoms: C_2  and  C_3 
REMARK       I    between atoms: C_2  and  N_22 
REMARK    2  A    between atoms: C_3  and  C_4 
REMARK    3  A    between atoms: C_4  and  N_5 
REMARK       I    between atoms: N_5  and  C_6 
REMARK       I    between atoms: C_6  and  N_8 
REMARK    4  A    between atoms: N_8  and  C_9 
REMARK    5  A    between atoms: C_12  and  N_16 
ROOT
HETATM    1  N   UNL     1     -40.581 -45.701  10.238  1.00  0.00    -0.342 N 
HETATM    2  C   UNL     1     -40.382 -46.811  11.035  1.00  0.00     0.320 C 
HETATM    3  O   UNL     1     -39.541 -46.821  11.927  1.00  0.00    -0.247 OA
HETATM    4  N   UNL     1     -41.171 -47.876  10.651  1.00  0.00    -0.308 N 
HETATM    5  H   UNL     1     -41.549 -45.526   9.987  1.00  0.00     0.164 HD
HETATM    6  H   UNL     1     -41.592 -47.796   9.735  1.00  0.00     0.170 HD
ENDROOT
BRANCH   4   7
HETATM    7  C   UNL     1     -41.133 -49.160  11.248  1.00  0.00     0.051 A 
HETATM    8  C   UNL     1     -42.176 -49.678  11.998  1.00  0.00     0.035 A 
HETATM    9  C   UNL     1     -42.035 -50.912  12.632  1.00  0.00     0.051 A 
HETATM   10  C   UNL     1     -40.855 -51.644  12.525  1.00  0.00     0.103 A 
HETATM   11  N   UNL     1     -39.860 -51.186  11.733  1.00  0.00    -0.350 N 
HETATM   12  C   UNL     1     -40.018 -49.978  11.117  1.00  0.00     0.119 A 
ATOM     13  HN  UNL     1     -39.009 -51.731  11.599  1.00  0.00     0.166 HD
BRANCH  10  14
HETATM   14  N   UNL     1     -40.717 -52.854  13.177  1.00  0.00    -0.363 N 
HETATM   15  C   UNL     1     -41.764 -53.887  13.134  1.00  0.00     0.150 C 
HETATM   16  C   UNL     1     -42.397 -54.093  14.520  1.00  0.00     0.187 C 
HETATM   17  O   UNL     1     -41.408 -54.335  15.531  1.00  0.00    -0.388 OA
HETATM   18  C   UNL     1     -40.512 -53.213  15.616  1.00  0.00     0.187 C 
HETATM   19  C   UNL     1     -39.771 -52.988  14.291  1.00  0.00     0.150 C 
ENDBRANCH  10  14
ENDBRANCH   4   7
BRANCH   1  20
HETATM   20  C   UNL     1     -39.811 -44.493  10.514  1.00  0.00     0.133 C 
BRANCH  20  21
HETATM   21  C   UNL     1     -40.588 -43.457  11.317  1.00  0.00     0.122 C 
BRANCH  21  22
HETATM   22  C   UNL     1     -40.332 -43.572  12.806  1.00  0.00     0.221 C 
HETATM   23  O   UNL     1     -39.287 -43.169  13.314  1.00  0.00    -0.273 OA
HETATM   24  N   UNL     1     -41.318 -44.180  13.551  1.00  0.00    -0.352 N 
HETATM   25  C   UNL     1     -42.591 -44.707  13.085  1.00  0.00     0.126 C 
HETATM   26  C   UNL     1     -41.176 -44.369  14.979  1.00  0.00     0.126 C 
HETATM   27  C   UNL     1     -43.130 -45.541  14.248  1.00  0.00     0.021 C 
HETATM   28  C   UNL     1     -41.976 -45.629  15.244  1.00  0.00     0.021 C 
ENDBRANCH  21  22
ENDBRANCH  20  21
ENDBRANCH   1  20
TORSDOF 5
ENDMDL
MODEL 7
REMARK VINA RESULT:      -5.6      6.794      9.984
REMARK  5 active torsions:
REMARK  status: ('A' for Active; 'I' for Inactive)
REMARK    1  A    between atoms: C_2  and  C_3 
REMARK       I    between atoms: C_2  and  N_22 
REMARK    2  A    between atoms: C_3  and  C_4 
REMARK    3  A    between atoms: C_4  and  N_5 
REMARK       I    between atoms: N_5  and  C_6 
REMARK       I    between atoms: C_6  and  N_8 
REMARK    4  A    between atoms: N_8  and  C_9 
REMARK    5  A    between atoms: C_12  and  N_16 
ROOT
HETATM    1  N   UNL     1     -36.321 -55.926  17.583  1.00  0.00    -0.342 N 
HETATM    2  C   UNL     1     -37.452 -55.204  17.259  1.00  0.00     0.320 C 
HETATM    3  O   UNL     1     -37.756 -54.178  17.858  1.00  0.00    -0.247 OA
HETATM    4  N   UNL     1     -38.194 -55.815  16.268  1.00  0.00    -0.308 N 
HETATM    5  H   UNL     1     -35.835 -56.333  16.790  1.00  0.00     0.164 HD
HETATM    6  H   UNL     1     -37.961 -56.781  16.085  1.00  0.00     0.170 HD
ENDROOT
BRANCH   4   7
HETATM    7  C   UNL     1     -39.433 -55.332  15.780  1.00  0.00     0.051 A 
HETATM    8  C   UNL     1     -39.535 -54.424  14.738  1.00  0.00     0.035 A 
HETATM    9  C   UNL     1     -40.782 -53.922  14.369  1.00  0.00     0.051 A 
HETATM   10  C   UNL     1     -41.942 -54.321  15.030  1.00  0.00     0.103 A 
HETATM   11  N   UNL     1     -41.863 -55.265  15.995  1.00  0.00    -0.350 N 
HETATM   12  C   UNL     1     -40.635 -55.747  16.340  1.00  0.00     0.119 A 
ATOM     13  HN  UNL     1     -42.705 -55.609  16.455  1.00  0.00     0.166 HD
BRANCH  10  14
HETATM   14  N   UNL     1     -43.170 -53.800  14.671  1.00  0.00    -0.363 N 
HETATM   15  C   UNL     1     -44.434 -54.433  15.080  1.00  0.00     0.150 C 
HETATM   16  C   UNL     1     -45.188 -54.999  13.866  1.00  0.00     0.187 C 
HETATM   17  O   UNL     1     -45.357 -54.018  12.832  1.00  0.00    -0.388 OA
HETATM   18  C   UNL     1     -44.071 -53.560  12.380  1.00  0.00     0.187 C 
HETATM   19  C   UNL     1     -43.281 -52.899  13.518  1.00  0.00     0.150 C 
ENDBRANCH  10  14
ENDBRANCH   4   7
BRANCH   1  20
HETATM   20  C   UNL     1     -35.436 -55.414  18.623  1.00  0.00     0.133 C 
BRANCH  20  21
HETATM   21  C   UNL     1     -34.026 -55.989  18.547  1.00  0.00     0.122 C 
BRANCH  21  22
HETATM   22  C   UNL     1     -33.997 -57.356  17.894  1.00  0.00     0.221 C 
HETATM   23  O   UNL     1     -33.779 -57.491  16.691  1.00  0.00    -0.273 OA
HETATM   24  N   UNL     1     -34.258 -58.432  18.713  1.00  0.00    -0.352 N 
HETATM   25  C   UNL     1     -34.537 -58.418  20.140  1.00  0.00     0.126 C 
HETATM   26  C   UNL     1     -34.281 -59.783  18.198  1.00  0.00     0.126 C 
HETATM   27  C   UNL     1     -35.063 -59.818  20.459  1.00  0.00     0.021 C 
HETATM   28  C   UNL     1     -35.278 -60.482  19.101  1.00  0.00     0.021 C 
ENDBRANCH  21  22
ENDBRANCH  20  21
ENDBRANCH   1  20
TORSDOF 5
ENDMDL
MODEL 8
REMARK VINA RESULT:      -5.6      3.572      9.161
REMARK  5 active torsions:
REMARK  status: ('A' for Active; 'I' for Inactive)
REMARK    1  A    between atoms: C_2  and  C_3 
REMARK       I    between atoms: C_2  and  N_22 
REMARK    2  A    between atoms: C_3  and  C_4 
REMARK    3  A    between atoms: C_4  and  N_5 
REMARK       I    between atoms: N_5  and  C_6 
REMARK       I    between atoms: C_6  and  N_8 
REMARK    4  A    between atoms: N_8  and  C_9 
REMARK    5  A    between atoms: C_12  and  N_16 
ROOT
HETATM    1  N   UNL     1     -41.321 -48.798  10.455  1.00  0.00    -0.342 N 
HETATM    2  C   UNL     1     -41.477 -49.801  11.392  1.00  0.00     0.320 C 
HETATM    3  O   UNL     1     -42.447 -49.838  12.141  1.00  0.00    -0.247 OA
HETATM    4  N   UNL     1     -40.401 -50.665  11.413  1.00  0.00    -0.308 N 
HETATM    5  H   UNL     1     -40.920 -49.100   9.573  1.00  0.00     0.164 HD
HETATM    6  H   UNL     1     -39.571 -50.335  10.941  1.00  0.00     0.170 HD
ENDROOT
BRANCH   4   7
HETATM    7  C   UNL     1     -40.260 -51.749  12.314  1.00  0.00     0.051 A 
HETATM    8  C   UNL     1     -40.949 -52.942  12.177  1.00  0.00     0.035 A 
HETATM    9  C   UNL     1     -40.831 -53.933  13.151  1.00  0.00     0.051 A 
HETATM   10  C   UNL     1     -40.023 -53.748  14.270  1.00  0.00     0.103 A 
HETATM   11  N   UNL     1     -39.285 -52.620  14.376  1.00  0.00    -0.350 N 
HETATM   12  C   UNL     1     -39.411 -51.663  13.411  1.00  0.00     0.119 A 
ATOM     13  HN  UNL     1     -38.648 -52.487  15.160  1.00  0.00     0.166 HD
BRANCH  10  14
HETATM   14  N   UNL     1     -39.931 -54.727  15.242  1.00  0.00    -0.363 N 
HETATM   15  C   UNL     1     -40.998 -54.945  16.231  1.00  0.00     0.150 C 
HETATM   16  C   UNL     1     -40.522 -54.584  17.648  1.00  0.00     0.187 C 
HETATM   17  O   UNL     1     -39.294 -55.245  17.987  1.00  0.00    -0.388 OA
HETATM   18  C   UNL     1     -38.262 -54.861  17.062  1.00  0.00     0.187 C 
HETATM   19  C   UNL     1     -38.620 -55.264  15.625  1.00  0.00     0.150 C 
ENDBRANCH  10  14
ENDBRANCH   4   7
BRANCH   1  20
HETATM   20  C   UNL     1     -42.375 -47.797  10.317  1.00  0.00     0.133 C 
BRANCH  20  21
HETATM   21  C   UNL     1     -42.274 -46.678  11.347  1.00  0.00     0.122 C 
BRANCH  21  22
HETATM   22  C   UNL     1     -41.049 -45.811  11.136  1.00  0.00     0.221 C 
HETATM   23  O   UNL     1     -39.929 -46.299  10.995  1.00  0.00    -0.273 OA
HETATM   24  N   UNL     1     -41.256 -44.449  11.142  1.00  0.00    -0.352 N 
HETATM   25  C   UNL     1     -42.514 -43.739  11.304  1.00  0.00     0.126 C 
HETATM   26  C   UNL     1     -40.159 -43.520  10.974  1.00  0.00     0.126 C 
HETATM   27  C   UNL     1     -42.123 -42.282  11.555  1.00  0.00     0.021 C 
HETATM   28  C   UNL     1     -40.610 -42.305  11.761  1.00  0.00     0.021 C 
ENDBRANCH  21  22
ENDBRANCH  20  21
ENDBRANCH   1  20
TORSDOF 5
ENDMDL
MODEL 9
REMARK VINA RESULT:      -5.6      3.633      9.674
REMARK  5 active torsions:
REMARK  status: ('A' for Active; 'I' for Inactive)
REMARK    1  A    between atoms: C_2  and  C_3 
REMARK       I    between atoms: C_2  and  N_22 
REMARK    2  A    between atoms: C_3  and  C_4 
REMARK    3  A    between atoms: C_4  and  N_5 
REMARK       I    between atoms: N_5  and  C_6 
REMARK       I    between atoms: C_6  and  N_8 
REMARK    4  A    between atoms: N_8  and  C_9 
REMARK    5  A    between atoms: C_12  and  N_16 
ROOT
HETATM    1  N   UNL     1     -40.495 -45.527  10.909  1.00  0.00    -0.342 N 
HETATM    2  C   UNL     1     -40.440 -46.769  11.510  1.00  0.00     0.320 C 
HETATM    3  O   UNL     1     -39.558 -47.061  12.309  1.00  0.00    -0.247 OA
HETATM    4  N   UNL     1     -41.426 -47.616  11.044  1.00  0.00    -0.308 N 
HETATM    5  H   UNL     1     -41.431 -45.160  10.778  1.00  0.00     0.164 HD
HETATM    6  H   UNL     1     -41.885 -47.321  10.194  1.00  0.00     0.170 HD
ENDROOT
BRANCH   4   7
HETATM    7  C   UNL     1     -41.573 -48.969  11.437  1.00  0.00     0.051 A 
HETATM    8  C   UNL     1     -42.548 -49.400  12.321  1.00  0.00     0.035 A 
HETATM    9  C   UNL     1     -42.579 -50.731  12.734  1.00  0.00     0.051 A 
HETATM   10  C   UNL     1     -41.641 -51.649  12.268  1.00  0.00     0.103 A 
HETATM   11  N   UNL     1     -40.733 -51.259  11.345  1.00  0.00    -0.350 N 
HETATM   12  C   UNL     1     -40.721 -49.953  10.950  1.00  0.00     0.119 A 
ATOM     13  HN  UNL     1     -40.071 -51.927  10.952  1.00  0.00     0.166 HD
BRANCH  10  14
HETATM   14  N   UNL     1     -41.665 -52.961  12.701  1.00  0.00    -0.363 N 
HETATM   15  C   UNL     1     -42.922 -53.644  13.047  1.00  0.00     0.150 C 
HETATM   16  C   UNL     1     -42.987 -53.959  14.550  1.00  0.00     0.187 C 
HETATM   17  O   UNL     1     -41.820 -54.662  15.003  1.00  0.00    -0.388 OA
HETATM   18  C   UNL     1     -40.647 -53.862  14.768  1.00  0.00     0.187 C 
HETATM   19  C   UNL     1     -40.459 -53.571  13.273  1.00  0.00     0.150 C 
ENDBRANCH  10  14
ENDBRANCH   4   7
BRANCH   1  20
HETATM   20  C   UNL     1     -39.509 -44.521  11.290  1.00  0.00     0.133 C 
BRANCH  20  21
HETATM   21  C   UNL     1     -40.053 -43.493  12.275  1.00  0.00     0.122 C 
BRANCH  21  22
HETATM   22  C   UNL     1     -40.880 -42.422  11.592  1.00  0.00     0.221 C 
HETATM   23  O   UNL     1     -41.680 -42.696  10.700  1.00  0.00    -0.273 OA
HETATM   24  N   UNL     1     -40.662 -41.126  12.004  1.00  0.00    -0.352 N 
HETATM   25  C   UNL     1     -39.748 -40.659  13.035  1.00  0.00     0.126 C 
HETATM   26  C   UNL     1     -41.374 -40.016  11.409  1.00  0.00     0.126 C 
HETATM   27  C   UNL     1     -39.675 -39.143  12.849  1.00  0.00     0.021 C 
HETATM   28  C   UNL     1     -40.392 -38.868  11.530  1.00  0.00     0.021 C 
ENDBRANCH  21  22
ENDBRANCH  20  21
ENDBRANCH   1  20
TORSDOF 5
ENDMDL
