MODEL 1
REMARK VINA RESULT:      -4.9      0.000      0.000
REMARK  3 active torsions:
REMARK  status: ('A' for Active; 'I' for Inactive)
REMARK    1  A    between atoms: N_1  and  C_2 
REMARK    2  A    between atoms: C_2  and  C_3 
REMARK    3  A    between atoms: C_7  and  N_8 
ROOT
HETATM    1  C   UNL     1     -41.183 -51.024  12.288  1.00  0.00    -0.012 A 
HETATM    2  C   UNL     1     -42.337 -50.682  12.979  1.00  0.00     0.098 A 
HETATM    3  N   UNL     1     -43.157 -51.571  13.592  1.00  0.00    -0.349 N 
ATOM      4  HN  UNL     1     -43.984 -51.251  14.094  1.00  0.00     0.167 HD
HETATM    5  C   UNL     1     -42.858 -52.893  13.526  1.00  0.00     0.142 A 
HETATM    6  C   UNL     1     -41.707 -53.310  12.843  1.00  0.00     0.160 A 
HETATM    7  F   UNL     1     -41.346 -54.603  12.797  1.00  0.00    -0.202 F 
HETATM    8  C   UNL     1     -40.869 -52.380  12.232  1.00  0.00     0.056 A 
ENDROOT
BRANCH   5   9
HETATM    9  N   UNL     1     -43.725 -53.762  14.145  1.00  0.00    -0.361 N 
HETATM   10  C   UNL     1     -44.857 -54.404  13.479  1.00  0.00     0.151 C 
HETATM   11  C   UNL     1     -46.125 -54.230  14.335  1.00  0.00     0.187 C 
HETATM   12  O   UNL     1     -45.932 -54.675  15.688  1.00  0.00    -0.388 OA
HETATM   13  C   UNL     1     -44.875 -53.921  16.309  1.00  0.00     0.187 C 
HETATM   14  C   UNL     1     -43.550 -54.101  15.559  1.00  0.00     0.151 C 
ENDBRANCH   5   9
BRANCH   1  15
HETATM   15  C   UNL     1     -40.301 -49.979  11.673  1.00  0.00     0.306 C 
BRANCH  15  16
HETATM   16  N   UNL     1     -40.488 -49.897  10.230  1.00  0.00     0.082 N 
HETATM   17  H   UNL     1     -40.672 -50.830   9.863  1.00  0.00     0.313 HD
HETATM   18  H   UNL     1     -39.619 -49.588   9.795  1.00  0.00     0.313 HD
ENDBRANCH  15  16
ENDBRANCH   1  15
TORSDOF 3
ENDMDL
MODEL 2
REMARK VINA RESULT:      -4.9      4.690      7.073
REMARK  3 active torsions:
REMARK  status: ('A' for Active; 'I' for Inactive)
REMARK    1  A    between atoms: N_1  and  C_2 
REMARK    2  A    between atoms: C_2  and  C_3 
REMARK    3  A    between atoms: C_7  and  N_8 
ROOT
HETATM    1  C   UNL     1     -41.153 -50.920  12.132  1.00  0.00    -0.012 A 
HETATM    2  C   UNL     1     -40.446 -50.410  11.053  1.00  0.00     0.098 A 
HETATM    3  N   UNL     1     -40.729 -49.238  10.434  1.00  0.00    -0.349 N 
ATOM      4  HN  UNL     1     -40.160 -48.914   9.653  1.00  0.00     0.167 HD
HETATM    5  C   UNL     1     -41.783 -48.502  10.872  1.00  0.00     0.142 A 
HETATM    6  C   UNL     1     -42.543 -48.960  11.957  1.00  0.00     0.160 A 
HETATM    7  F   UNL     1     -43.562 -48.239  12.455  1.00  0.00    -0.202 F 
HETATM    8  C   UNL     1     -42.227 -50.159  12.590  1.00  0.00     0.056 A 
ENDROOT
BRANCH   5   9
HETATM    9  N   UNL     1     -42.047 -47.330  10.204  1.00  0.00    -0.361 N 
HETATM   10  C   UNL     1     -41.469 -46.036  10.560  1.00  0.00     0.151 C 
HETATM   11  C   UNL     1     -42.585 -44.978  10.644  1.00  0.00     0.187 C 
HETATM   12  O   UNL     1     -43.385 -44.937   9.450  1.00  0.00    -0.388 OA
HETATM   13  C   UNL     1     -44.005 -46.216   9.229  1.00  0.00     0.187 C 
HETATM   14  C   UNL     1     -42.956 -47.321   9.056  1.00  0.00     0.151 C 
ENDBRANCH   5   9
BRANCH   1  15
HETATM   15  C   UNL     1     -40.751 -52.205  12.794  1.00  0.00     0.306 C 
BRANCH  15  16
HETATM   16  N   UNL     1     -40.737 -53.316  11.851  1.00  0.00     0.082 N 
HETATM   17  H   UNL     1     -39.812 -53.384  11.428  1.00  0.00     0.313 HD
HETATM   18  H   UNL     1     -41.383 -53.118  11.088  1.00  0.00     0.313 HD
ENDBRANCH  15  16
ENDBRANCH   1  15
TORSDOF 3
ENDMDL
MODEL 3
REMARK VINA RESULT:      -4.9      7.046      8.351
REMARK  3 active torsions:
REMARK  status: ('A' for Active; 'I' for Inactive)
REMARK    1  A    between atoms: N_1  and  C_2 
REMARK    2  A    between atoms: C_2  and  C_3 
REMARK    3  A    between atoms: C_7  and  N_8 
ROOT
HETATM    1  C   UNL     1     -44.654 -47.493   9.129  1.00  0.00    -0.012 A 
HETATM    2  C   UNL     1     -43.634 -46.869   8.425  1.00  0.00     0.098 A 
HETATM    3  N   UNL     1     -42.476 -46.434   8.978  1.00  0.00    -0.349 N 
ATOM      4  HN  UNL     1     -41.760 -45.993   8.401  1.00  0.00     0.167 HD
HETATM    5  C   UNL     1     -42.284 -46.593  10.312  1.00  0.00     0.142 A 
HETATM    6  C   UNL     1     -43.275 -47.215  11.084  1.00  0.00     0.160 A 
HETATM    7  F   UNL     1     -43.104 -47.440  12.398  1.00  0.00    -0.202 F 
HETATM    8  C   UNL     1     -44.452 -47.670  10.496  1.00  0.00     0.056 A 
ENDROOT
BRANCH   5   9
HETATM    9  N   UNL     1     -41.104 -46.121  10.835  1.00  0.00    -0.361 N 
HETATM   10  C   UNL     1     -40.051 -46.973  11.384  1.00  0.00     0.151 C 
HETATM   11  C   UNL     1     -39.623 -46.439  12.764  1.00  0.00     0.187 C 
HETATM   12  O   UNL     1     -39.266 -45.047  12.721  1.00  0.00    -0.388 OA
HETATM   13  C   UNL     1     -40.387 -44.265  12.274  1.00  0.00     0.187 C 
HETATM   14  C   UNL     1     -40.832 -44.682  10.866  1.00  0.00     0.151 C 
ENDBRANCH   5   9
BRANCH   1  15
HETATM   15  C   UNL     1     -45.890 -47.989   8.438  1.00  0.00     0.306 C 
BRANCH  15  16
HETATM   16  N   UNL     1     -45.580 -48.613   7.158  1.00  0.00     0.082 N 
HETATM   17  H   UNL     1     -45.411 -49.607   7.304  1.00  0.00     0.313 HD
HETATM   18  H   UNL     1     -44.709 -48.226   6.798  1.00  0.00     0.313 HD
ENDBRANCH  15  16
ENDBRANCH   1  15
TORSDOF 3
ENDMDL
MODEL 4
REMARK VINA RESULT:      -4.7      4.930      6.304
REMARK  3 active torsions:
REMARK  status: ('A' for Active; 'I' for Inactive)
REMARK    1  A    between atoms: N_1  and  C_2 
REMARK    2  A    between atoms: C_2  and  C_3 
REMARK    3  A    between atoms: C_7  and  N_8 
ROOT
HETATM    1  C   UNL     1     -41.666 -46.705  10.734  1.00  0.00    -0.012 A 
HETATM    2  C   UNL     1     -41.892 -47.961  10.189  1.00  0.00     0.098 A 
HETATM    3  N   UNL     1     -41.207 -49.080  10.532  1.00  0.00    -0.349 N 
ATOM      4  HN  UNL     1     -41.432 -49.977  10.101  1.00  0.00     0.167 HD
HETATM    5  C   UNL     1     -40.218 -48.988  11.456  1.00  0.00     0.142 A 
HETATM    6  C   UNL     1     -39.935 -47.747  12.046  1.00  0.00     0.160 A 
HETATM    7  F   UNL     1     -39.000 -47.621  13.002  1.00  0.00    -0.202 F 
HETATM    8  C   UNL     1     -40.660 -46.612  11.692  1.00  0.00     0.056 A 
ENDROOT
BRANCH   5   9
HETATM    9  N   UNL     1     -39.536 -50.142  11.760  1.00  0.00    -0.361 N 
HETATM   10  C   UNL     1     -40.161 -51.341  12.316  1.00  0.00     0.151 C 
HETATM   11  C   UNL     1     -39.353 -51.824  13.536  1.00  0.00     0.187 C 
HETATM   12  O   UNL     1     -37.960 -51.996  13.230  1.00  0.00    -0.388 OA
HETATM   13  C   UNL     1     -37.393 -50.748  12.793  1.00  0.00     0.187 C 
HETATM   14  C   UNL     1     -38.093 -50.232  11.530  1.00  0.00     0.151 C 
ENDBRANCH   5   9
BRANCH   1  15
HETATM   15  C   UNL     1     -42.497 -45.520  10.336  1.00  0.00     0.306 C 
BRANCH  15  16
HETATM   16  N   UNL     1     -43.787 -45.924   9.792  1.00  0.00     0.082 N 
HETATM   17  H   UNL     1     -44.335 -45.092   9.581  1.00  0.00     0.313 HD
HETATM   18  H   UNL     1     -44.308 -46.434  10.504  1.00  0.00     0.313 HD
ENDBRANCH  15  16
ENDBRANCH   1  15
TORSDOF 3
ENDMDL
MODEL 5
REMARK VINA RESULT:      -4.7      1.609      1.951
REMARK  3 active torsions:
REMARK  status: ('A' for Active; 'I' for Inactive)
REMARK    1  A    between atoms: N_1  and  C_2 
REMARK    2  A    between atoms: C_2  and  C_3 
REMARK    3  A    between atoms: C_7  and  N_8 
ROOT
HETATM    1  C   UNL     1     -41.754 -50.509  12.300  1.00  0.00    -0.012 A 
HETATM    2  C   UNL     1     -41.431 -51.857  12.363  1.00  0.00     0.098 A 
HETATM    3  N   UNL     1     -42.200 -52.804  12.953  1.00  0.00    -0.349 N 
ATOM      4  HN  UNL     1     -41.910 -53.781  12.953  1.00  0.00     0.167 HD
HETATM    5  C   UNL     1     -43.363 -52.430  13.544  1.00  0.00     0.142 A 
HETATM    6  C   UNL     1     -43.750 -51.082  13.519  1.00  0.00     0.160 A 
HETATM    7  F   UNL     1     -44.918 -50.677  14.046  1.00  0.00    -0.202 F 
HETATM    8  C   UNL     1     -42.954 -50.127  12.894  1.00  0.00     0.056 A 
ENDROOT
BRANCH   5   9
HETATM    9  N   UNL     1     -44.104 -53.418  14.148  1.00  0.00    -0.361 N 
HETATM   10  C   UNL     1     -45.284 -54.041  13.548  1.00  0.00     0.151 C 
HETATM   11  C   UNL     1     -46.437 -54.049  14.570  1.00  0.00     0.187 C 
HETATM   12  O   UNL     1     -46.050 -54.644  15.820  1.00  0.00    -0.388 OA
HETATM   13  C   UNL     1     -44.956 -53.910  16.397  1.00  0.00     0.187 C 
HETATM   14  C   UNL     1     -43.732 -53.918  15.473  1.00  0.00     0.151 C 
ENDBRANCH   5   9
BRANCH   1  15
HETATM   15  C   UNL     1     -40.871 -49.526  11.588  1.00  0.00     0.306 C 
BRANCH  15  16
HETATM   16  N   UNL     1     -40.453 -50.022  10.283  1.00  0.00     0.082 N 
HETATM   17  H   UNL     1     -39.624 -49.514   9.982  1.00  0.00     0.313 HD
HETATM   18  H   UNL     1     -41.178 -49.815   9.597  1.00  0.00     0.313 HD
ENDBRANCH  15  16
ENDBRANCH   1  15
TORSDOF 3
ENDMDL
MODEL 6
REMARK VINA RESULT:      -4.7      2.927      5.535
REMARK  3 active torsions:
REMARK  status: ('A' for Active; 'I' for Inactive)
REMARK    1  A    between atoms: N_1  and  C_2 
REMARK    2  A    between atoms: C_2  and  C_3 
REMARK    3  A    between atoms: C_7  and  N_8 
ROOT
HETATM    1  C   UNL     1     -44.885 -54.587  14.042  1.00  0.00    -0.012 A 
HETATM    2  C   UNL     1     -44.443 -54.094  12.823  1.00  0.00     0.098 A 
HETATM    3  N   UNL     1     -43.155 -53.774  12.546  1.00  0.00    -0.349 N 
ATOM      4  HN  UNL     1     -42.895 -53.428  11.623  1.00  0.00     0.167 HD
HETATM    5  C   UNL     1     -42.219 -53.920  13.517  1.00  0.00     0.142 A 
HETATM    6  C   UNL     1     -42.597 -54.412  14.775  1.00  0.00     0.160 A 
HETATM    7  F   UNL     1     -41.694 -54.621  15.748  1.00  0.00    -0.202 F 
HETATM    8  C   UNL     1     -43.922 -54.750  15.035  1.00  0.00     0.056 A 
ENDROOT
BRANCH   5   9
HETATM    9  N   UNL     1     -40.929 -53.565  13.201  1.00  0.00    -0.361 N 
HETATM   10  C   UNL     1     -39.743 -54.278  13.673  1.00  0.00     0.151 C 
HETATM   11  C   UNL     1     -38.732 -53.269  14.251  1.00  0.00     0.187 C 
HETATM   12  O   UNL     1     -38.432 -52.212  13.325  1.00  0.00    -0.388 OA
HETATM   13  C   UNL     1     -39.631 -51.491  12.993  1.00  0.00     0.187 C 
HETATM   14  C   UNL     1     -40.669 -52.411  12.338  1.00  0.00     0.151 C 
ENDBRANCH   5   9
BRANCH   1  15
HETATM   15  C   UNL     1     -46.321 -54.963  14.260  1.00  0.00     0.306 C 
BRANCH  15  16
HETATM   16  N   UNL     1     -47.174 -53.787  14.378  1.00  0.00     0.082 N 
HETATM   17  H   UNL     1     -48.006 -54.030  14.914  1.00  0.00     0.313 HD
HETATM   18  H   UNL     1     -47.503 -53.516  13.452  1.00  0.00     0.313 HD
ENDBRANCH  15  16
ENDBRANCH   1  15
TORSDOF 3
ENDMDL
MODEL 7
REMARK VINA RESULT:      -4.7      5.605      6.999
REMARK  3 active torsions:
REMARK  status: ('A' for Active; 'I' for Inactive)
REMARK    1  A    between atoms: N_1  and  C_2 
REMARK    2  A    between atoms: C_2  and  C_3 
REMARK    3  A    between atoms: C_7  and  N_8 
ROOT
HETATM    1  C   UNL     1     -43.245 -46.407   9.819  1.00  0.00    -0.012 A 
HETATM    2  C   UNL     1     -41.870 -46.222   9.781  1.00  0.00     0.098 A 
HETATM    3  N   UNL     1     -40.978 -46.956  10.489  1.00  0.00    -0.349 N 
ATOM      4  HN  UNL     1     -39.977 -46.776  10.406  1.00  0.00     0.167 HD
HETATM    5  C   UNL     1     -41.437 -47.935  11.310  1.00  0.00     0.142 A 
HETATM    6  C   UNL     1     -42.815 -48.175  11.397  1.00  0.00     0.160 A 
HETATM    7  F   UNL     1     -43.309 -49.167  12.157  1.00  0.00    -0.202 F 
HETATM    8  C   UNL     1     -43.716 -47.420  10.651  1.00  0.00     0.056 A 
ENDROOT
BRANCH   5   9
HETATM    9  N   UNL     1     -40.499 -48.643  12.024  1.00  0.00    -0.361 N 
HETATM   10  C   UNL     1     -40.073 -48.303  13.380  1.00  0.00     0.151 C 
HETATM   11  C   UNL     1     -38.533 -48.287  13.447  1.00  0.00     0.187 C 
HETATM   12  O   UNL     1     -37.956 -49.508  12.956  1.00  0.00    -0.388 OA
HETATM   13  C   UNL     1     -38.335 -49.716  11.584  1.00  0.00     0.187 C 
HETATM   14  C   UNL     1     -39.858 -49.822  11.437  1.00  0.00     0.151 C 
ENDBRANCH   5   9
BRANCH   1  15
HETATM   15  C   UNL     1     -44.168 -45.582   8.971  1.00  0.00     0.306 C 
BRANCH  15  16
HETATM   16  N   UNL     1     -45.502 -46.164   8.903  1.00  0.00     0.082 N 
HETATM   17  H   UNL     1     -45.589 -46.884   9.619  1.00  0.00     0.313 HD
HETATM   18  H   UNL     1     -45.617 -46.638   8.008  1.00  0.00     0.313 HD
ENDBRANCH  15  16
ENDBRANCH   1  15
TORSDOF 3
ENDMDL
MODEL 8
REMARK VINA RESULT:      -4.6      5.817      6.702
REMARK  3 active torsions:
REMARK  status: ('A' for Active; 'I' for Inactive)
REMARK    1  A    between atoms: N_1  and  C_2 
REMARK    2  A    between atoms: C_2  and  C_3 
REMARK    3  A    between atoms: C_7  and  N_8 
ROOT
HETATM    1  C   UNL     1     -42.007 -46.993  10.313  1.00  0.00    -0.012 A 
HETATM    2  C   UNL     1     -40.818 -46.341  10.608  1.00  0.00     0.098 A 
HETATM    3  N   UNL     1     -39.752 -46.923  11.209  1.00  0.00    -0.349 N 
ATOM      4  HN  UNL     1     -38.902 -46.389  11.386  1.00  0.00     0.167 HD
HETATM    5  C   UNL     1     -39.835 -48.229  11.571  1.00  0.00     0.142 A 
HETATM    6  C   UNL     1     -41.008 -48.948  11.305  1.00  0.00     0.160 A 
HETATM    7  F   UNL     1     -41.113 -50.255  11.599  1.00  0.00    -0.202 F 
HETATM    8  C   UNL     1     -42.087 -48.337  10.673  1.00  0.00     0.056 A 
ENDROOT
BRANCH   5   9
HETATM    9  N   UNL     1     -38.738 -48.775  12.195  1.00  0.00    -0.361 N 
HETATM   10  C   UNL     1     -37.793 -49.681  11.546  1.00  0.00     0.151 C 
HETATM   11  C   UNL     1     -37.567 -50.916  12.439  1.00  0.00     0.187 C 
HETATM   12  O   UNL     1     -37.185 -50.555  13.777  1.00  0.00    -0.388 OA
HETATM   13  C   UNL     1     -38.214 -49.754  14.384  1.00  0.00     0.187 C 
HETATM   14  C   UNL     1     -38.450 -48.460  13.596  1.00  0.00     0.151 C 
ENDBRANCH   5   9
BRANCH   1  15
HETATM   15  C   UNL     1     -43.129 -46.292   9.605  1.00  0.00     0.306 C 
BRANCH  15  16
HETATM   16  N   UNL     1     -43.061 -46.487   8.162  1.00  0.00     0.082 N 
HETATM   17  H   UNL     1     -43.925 -46.153   7.739  1.00  0.00     0.313 HD
HETATM   18  H   UNL     1     -43.013 -47.485   7.959  1.00  0.00     0.313 HD
ENDBRANCH  15  16
ENDBRANCH   1  15
TORSDOF 3
ENDMDL
MODEL 9
REMARK VINA RESULT:      -4.6      2.336      3.008
REMARK  3 active torsions:
REMARK  status: ('A' for Active; 'I' for Inactive)
REMARK    1  A    between atoms: N_1  and  C_2 
REMARK    2  A    between atoms: C_2  and  C_3 
REMARK    3  A    between atoms: C_7  and  N_8 
ROOT
HETATM    1  C   UNL     1     -42.366 -53.189  13.282  1.00  0.00    -0.012 A 
HETATM    2  C   UNL     1     -42.627 -52.244  14.264  1.00  0.00     0.098 A 
HETATM    3  N   UNL     1     -43.752 -52.213  15.019  1.00  0.00    -0.349 N 
ATOM      4  HN  UNL     1     -43.876 -51.497  15.734  1.00  0.00     0.167 HD
HETATM    5  C   UNL     1     -44.711 -53.150  14.806  1.00  0.00     0.142 A 
HETATM    6  C   UNL     1     -44.514 -54.133  13.827  1.00  0.00     0.160 A 
HETATM    7  F   UNL     1     -45.413 -55.109  13.620  1.00  0.00    -0.202 F 
HETATM    8  C   UNL     1     -43.344 -54.158  13.072  1.00  0.00     0.056 A 
ENDROOT
BRANCH   5   9
HETATM    9  N   UNL     1     -45.845 -53.070  15.580  1.00  0.00    -0.361 N 
HETATM   10  C   UNL     1     -47.053 -52.345  15.192  1.00  0.00     0.151 C 
HETATM   11  C   UNL     1     -47.503 -51.436  16.352  1.00  0.00     0.187 C 
HETATM   12  O   UNL     1     -47.643 -52.159  17.586  1.00  0.00    -0.388 OA
HETATM   13  C   UNL     1     -46.386 -52.753  17.954  1.00  0.00     0.187 C 
HETATM   14  C   UNL     1     -45.900 -53.738  16.883  1.00  0.00     0.151 C 
ENDBRANCH   5   9
BRANCH   1  15
HETATM   15  C   UNL     1     -41.075 -53.185  12.517  1.00  0.00     0.306 C 
BRANCH  15  16
HETATM   16  N   UNL     1     -41.223 -52.552  11.212  1.00  0.00     0.082 N 
HETATM   17  H   UNL     1     -40.608 -51.741  11.163  1.00  0.00     0.313 HD
HETATM   18  H   UNL     1     -42.173 -52.195  11.118  1.00  0.00     0.313 HD
ENDBRANCH  15  16
ENDBRANCH   1  15
TORSDOF 3
ENDMDL
