MODEL 1
REMARK VINA RESULT:      -5.2      0.000      0.000
REMARK  5 active torsions:
REMARK  status: ('A' for Active; 'I' for Inactive)
REMARK    1  A    between atoms: C_2  and  C_3 
REMARK    2  A    between atoms: C_2  and  N_10 
REMARK    3  A    between atoms: C_3  and  N_4 
REMARK       I    between atoms: N_10  and  C_11 
REMARK       I    between atoms: C_11  and  N_13 
REMARK    4  A    between atoms: C_16  and  C_17 
REMARK    5  A    between atoms: C_17  and  O_18 
ROOT
HETATM    1  N   UNL     1     -41.297 -48.879  12.137  1.00  0.00    -0.337 N 
HETATM    2  C   UNL     1     -42.124 -49.824  12.694  1.00  0.00     0.318 C 
HETATM    3  O   UNL     1     -43.337 -49.675  12.780  1.00  0.00    -0.247 OA
HETATM    4  N   UNL     1     -41.428 -50.918  13.179  1.00  0.00    -0.334 N 
HETATM    5  C   UNL     1     -42.104 -51.862  14.063  1.00  0.00     0.128 C 
HETATM    6  C   UNL     1     -41.141 -52.333  15.158  1.00  0.00     0.027 C 
HETATM    7  C   UNL     1     -39.807 -52.865  14.594  1.00  0.00     0.012 C 
HETATM    8  C   UNL     1     -39.202 -51.851  13.612  1.00  0.00     0.027 C 
HETATM    9  C   UNL     1     -40.206 -51.418  12.551  1.00  0.00     0.128 C 
HETATM   10  H   UNL     1     -40.404 -48.826  12.610  1.00  0.00     0.164 HD
ENDROOT
BRANCH   1  11
HETATM   11  C   UNL     1     -41.803 -47.641  11.550  1.00  0.00     0.100 C 
HETATM   12  C   UNL     1     -40.853 -46.506  11.937  1.00  0.00     0.034 C 
BRANCH  11  13
HETATM   13  C   UNL     1     -41.931 -47.807  10.023  1.00  0.00     0.153 C 
BRANCH  13  14
HETATM   14  N   UNL     1     -43.280 -47.692   9.515  1.00  0.00    -0.350 N 
HETATM   15  C   UNL     1     -44.411 -47.496  10.260  1.00  0.00     0.108 A 
HETATM   16  C   UNL     1     -45.433 -47.446   9.342  1.00  0.00     0.106 A 
HETATM   17  N   UNL     1     -44.950 -47.598   8.068  1.00  0.00    -0.361 N 
HETATM   18  C   UNL     1     -43.648 -47.727   8.201  1.00  0.00     0.182 A 
ATOM     19  HN  UNL     1     -45.487 -47.609   7.201  1.00  0.00     0.166 HD
ENDBRANCH  13  14
ENDBRANCH  11  13
ENDBRANCH   1  11
BRANCH   7  20
HETATM   20  C   UNL     1     -39.959 -54.245  13.941  1.00  0.00     0.168 C 
BRANCH  20  21
HETATM   21  O   UNL     1     -38.720 -54.678  13.400  1.00  0.00    -0.400 OA
HETATM   22  H   UNL     1     -38.043 -54.027  13.655  1.00  0.00     0.209 HD
ENDBRANCH  20  21
ENDBRANCH   7  20
TORSDOF 5
ENDMDL
MODEL 2
REMARK VINA RESULT:      -5.2      2.809      3.744
REMARK  5 active torsions:
REMARK  status: ('A' for Active; 'I' for Inactive)
REMARK    1  A    between atoms: C_2  and  C_3 
REMARK    2  A    between atoms: C_2  and  N_10 
REMARK    3  A    between atoms: C_3  and  N_4 
REMARK       I    between atoms: N_10  and  C_11 
REMARK       I    between atoms: C_11  and  N_13 
REMARK    4  A    between atoms: C_16  and  C_17 
REMARK    5  A    between atoms: C_17  and  O_18 
ROOT
HETATM    1  N   UNL     1     -42.980 -49.748  12.463  1.00  0.00    -0.337 N 
HETATM    2  C   UNL     1     -42.582 -50.722  13.345  1.00  0.00     0.318 C 
HETATM    3  O   UNL     1     -41.493 -50.707  13.903  1.00  0.00    -0.247 OA
HETATM    4  N   UNL     1     -43.526 -51.727  13.485  1.00  0.00    -0.334 N 
HETATM    5  C   UNL     1     -43.149 -52.978  14.135  1.00  0.00     0.128 C 
HETATM    6  C   UNL     1     -43.816 -54.158  13.424  1.00  0.00     0.027 C 
HETATM    7  C   UNL     1     -45.342 -53.980  13.270  1.00  0.00     0.012 C 
HETATM    8  C   UNL     1     -45.658 -52.608  12.655  1.00  0.00     0.027 C 
HETATM    9  C   UNL     1     -44.963 -51.477  13.402  1.00  0.00     0.128 C 
HETATM   10  H   UNL     1     -43.535 -50.121  11.704  1.00  0.00     0.164 HD
ENDROOT
BRANCH   1  11
HETATM   11  C   UNL     1     -42.155 -48.581  12.160  1.00  0.00     0.100 C 
HETATM   12  C   UNL     1     -41.279 -48.916  10.952  1.00  0.00     0.034 C 
BRANCH  11  13
HETATM   13  C   UNL     1     -43.061 -47.359  11.909  1.00  0.00     0.153 C 
BRANCH  13  14
HETATM   14  N   UNL     1     -43.362 -47.107  10.518  1.00  0.00    -0.350 N 
HETATM   15  C   UNL     1     -44.409 -47.631   9.810  1.00  0.00     0.108 A 
HETATM   16  C   UNL     1     -44.282 -47.098   8.548  1.00  0.00     0.106 A 
HETATM   17  N   UNL     1     -43.195 -46.265   8.480  1.00  0.00    -0.361 N 
HETATM   18  C   UNL     1     -42.671 -46.275   9.685  1.00  0.00     0.182 A 
ATOM     19  HN  UNL     1     -42.864 -45.747   7.666  1.00  0.00     0.166 HD
ENDBRANCH  13  14
ENDBRANCH  11  13
ENDBRANCH   1  11
BRANCH   7  20
HETATM   20  C   UNL     1     -46.088 -54.178  14.596  1.00  0.00     0.168 C 
BRANCH  20  21
HETATM   21  O   UNL     1     -46.926 -55.322  14.528  1.00  0.00    -0.400 OA
HETATM   22  H   UNL     1     -47.845 -55.023  14.644  1.00  0.00     0.209 HD
ENDBRANCH  20  21
ENDBRANCH   7  20
TORSDOF 5
ENDMDL
MODEL 3
REMARK VINA RESULT:      -5.2      2.980      5.402
REMARK  5 active torsions:
REMARK  status: ('A' for Active; 'I' for Inactive)
REMARK    1  A    between atoms: C_2  and  C_3 
REMARK    2  A    between atoms: C_2  and  N_10 
REMARK    3  A    between atoms: C_3  and  N_4 
REMARK       I    between atoms: N_10  and  C_11 
REMARK       I    between atoms: C_11  and  N_13 
REMARK    4  A    between atoms: C_16  and  C_17 
REMARK    5  A    between atoms: C_17  and  O_18 
ROOT
HETATM    1  N   UNL     1     -42.164 -50.035  11.895  1.00  0.00    -0.337 N 
HETATM    2  C   UNL     1     -42.028 -51.371  12.182  1.00  0.00     0.318 C 
HETATM    3  O   UNL     1     -41.053 -52.027  11.838  1.00  0.00    -0.247 OA
HETATM    4  N   UNL     1     -43.127 -51.885  12.850  1.00  0.00    -0.334 N 
HETATM    5  C   UNL     1     -43.287 -53.331  12.961  1.00  0.00     0.128 C 
HETATM    6  C   UNL     1     -44.764 -53.706  12.810  1.00  0.00     0.027 C 
HETATM    7  C   UNL     1     -45.684 -52.911  13.760  1.00  0.00     0.012 C 
HETATM    8  C   UNL     1     -45.398 -51.407  13.643  1.00  0.00     0.027 C 
HETATM    9  C   UNL     1     -43.914 -51.096  13.796  1.00  0.00     0.128 C 
HETATM   10  H   UNL     1     -43.124 -49.782  11.697  1.00  0.00     0.164 HD
ENDROOT
BRANCH   1  11
HETATM   11  C   UNL     1     -41.129 -49.272  11.203  1.00  0.00     0.100 C 
HETATM   12  C   UNL     1     -41.811 -48.180  10.377  1.00  0.00     0.034 C 
BRANCH  11  13
HETATM   13  C   UNL     1     -40.135 -48.697  12.231  1.00  0.00     0.153 C 
BRANCH  13  14
HETATM   14  N   UNL     1     -39.007 -49.554  12.524  1.00  0.00    -0.350 N 
HETATM   15  C   UNL     1     -38.672 -50.060  13.750  1.00  0.00     0.108 A 
HETATM   16  C   UNL     1     -37.544 -50.813  13.524  1.00  0.00     0.106 A 
HETATM   17  N   UNL     1     -37.195 -50.780  12.198  1.00  0.00    -0.361 N 
HETATM   18  C   UNL     1     -38.104 -50.028  11.617  1.00  0.00     0.182 A 
ATOM     19  HN  UNL     1     -36.399 -51.240  11.757  1.00  0.00     0.166 HD
ENDBRANCH  13  14
ENDBRANCH  11  13
ENDBRANCH   1  11
BRANCH   7  20
HETATM   20  C   UNL     1     -45.569 -53.385  15.215  1.00  0.00     0.168 C 
BRANCH  20  21
HETATM   21  O   UNL     1     -46.143 -54.675  15.364  1.00  0.00    -0.400 OA
HETATM   22  H   UNL     1     -46.366 -54.792  16.305  1.00  0.00     0.209 HD
ENDBRANCH  20  21
ENDBRANCH   7  20
TORSDOF 5
ENDMDL
MODEL 4
REMARK VINA RESULT:      -5.1      3.503      6.993
REMARK  5 active torsions:
REMARK  status: ('A' for Active; 'I' for Inactive)
REMARK    1  A    between atoms: C_2  and  C_3 
REMARK    2  A    between atoms: C_2  and  N_10 
REMARK    3  A    between atoms: C_3  and  N_4 
REMARK       I    between atoms: N_10  and  C_11 
REMARK       I    between atoms: C_11  and  N_13 
REMARK    4  A    between atoms: C_16  and  C_17 
REMARK    5  A    between atoms: C_17  and  O_18 
ROOT
HETATM    1  N   UNL     1     -39.051 -48.375  12.012  1.00  0.00    -0.337 N 
HETATM    2  C   UNL     1     -40.134 -47.655  11.572  1.00  0.00     0.318 C 
HETATM    3  O   UNL     1     -40.986 -48.126  10.829  1.00  0.00    -0.247 OA
HETATM    4  N   UNL     1     -40.119 -46.346  12.025  1.00  0.00    -0.334 N 
HETATM    5  C   UNL     1     -41.015 -45.368  11.416  1.00  0.00     0.128 C 
HETATM    6  C   UNL     1     -40.302 -44.019  11.283  1.00  0.00     0.027 C 
HETATM    7  C   UNL     1     -39.676 -43.539  12.609  1.00  0.00     0.012 C 
HETATM    8  C   UNL     1     -38.815 -44.652  13.225  1.00  0.00     0.027 C 
HETATM    9  C   UNL     1     -39.576 -45.968  13.327  1.00  0.00     0.128 C 
HETATM   10  H   UNL     1     -38.218 -47.806  12.088  1.00  0.00     0.164 HD
ENDROOT
BRANCH   1  11
HETATM   11  C   UNL     1     -38.853 -49.782  11.672  1.00  0.00     0.100 C 
HETATM   12  C   UNL     1     -37.408 -49.964  11.206  1.00  0.00     0.034 C 
BRANCH  11  13
HETATM   13  C   UNL     1     -39.195 -50.662  12.891  1.00  0.00     0.153 C 
BRANCH  13  14
HETATM   14  N   UNL     1     -40.206 -51.665  12.646  1.00  0.00    -0.350 N 
HETATM   15  C   UNL     1     -40.326 -52.867  13.289  1.00  0.00     0.108 A 
HETATM   16  C   UNL     1     -41.430 -53.461  12.723  1.00  0.00     0.106 A 
HETATM   17  N   UNL     1     -41.981 -52.649  11.766  1.00  0.00    -0.361 N 
HETATM   18  C   UNL     1     -41.234 -51.567  11.753  1.00  0.00     0.182 A 
ATOM     19  HN  UNL     1     -42.798 -52.843  11.187  1.00  0.00     0.166 HD
ENDBRANCH  13  14
ENDBRANCH  11  13
ENDBRANCH   1  11
BRANCH   7  20
HETATM   20  C   UNL     1     -40.732 -43.039  13.605  1.00  0.00     0.168 C 
BRANCH  20  21
HETATM   21  O   UNL     1     -40.129 -42.728  14.852  1.00  0.00    -0.400 OA
HETATM   22  H   UNL     1     -39.725 -41.846  14.773  1.00  0.00     0.209 HD
ENDBRANCH  20  21
ENDBRANCH   7  20
TORSDOF 5
ENDMDL
MODEL 5
REMARK VINA RESULT:      -5.0      2.609      3.438
REMARK  5 active torsions:
REMARK  status: ('A' for Active; 'I' for Inactive)
REMARK    1  A    between atoms: C_2  and  C_3 
REMARK    2  A    between atoms: C_2  and  N_10 
REMARK    3  A    between atoms: C_3  and  N_4 
REMARK       I    between atoms: N_10  and  C_11 
REMARK       I    between atoms: C_11  and  N_13 
REMARK    4  A    between atoms: C_16  and  C_17 
REMARK    5  A    between atoms: C_17  and  O_18 
ROOT
HETATM    1  N   UNL     1     -41.640 -50.498  12.596  1.00  0.00    -0.337 N 
HETATM    2  C   UNL     1     -42.907 -50.454  13.124  1.00  0.00     0.318 C 
HETATM    3  O   UNL     1     -43.488 -49.405  13.369  1.00  0.00    -0.247 OA
HETATM    4  N   UNL     1     -43.416 -51.716  13.386  1.00  0.00    -0.334 N 
HETATM    5  C   UNL     1     -44.607 -51.850  14.219  1.00  0.00     0.128 C 
HETATM    6  C   UNL     1     -44.473 -53.076  15.127  1.00  0.00     0.027 C 
HETATM    7  C   UNL     1     -44.119 -54.361  14.350  1.00  0.00     0.012 C 
HETATM    8  C   UNL     1     -42.909 -54.114  13.437  1.00  0.00     0.027 C 
HETATM    9  C   UNL     1     -43.098 -52.881  12.563  1.00  0.00     0.128 C 
HETATM   10  H   UNL     1     -41.098 -51.269  12.965  1.00  0.00     0.164 HD
ENDROOT
BRANCH   1  11
HETATM   11  C   UNL     1     -40.901 -49.292  12.231  1.00  0.00     0.100 C 
HETATM   12  C   UNL     1     -39.412 -49.554  12.468  1.00  0.00     0.034 C 
BRANCH  11  13
HETATM   13  C   UNL     1     -41.207 -48.922  10.766  1.00  0.00     0.153 C 
BRANCH  13  14
HETATM   14  N   UNL     1     -41.936 -47.684  10.598  1.00  0.00    -0.350 N 
HETATM   15  C   UNL     1     -41.409 -46.422  10.652  1.00  0.00     0.108 A 
HETATM   16  C   UNL     1     -42.477 -45.585  10.426  1.00  0.00     0.106 A 
HETATM   17  N   UNL     1     -43.627 -46.306  10.231  1.00  0.00    -0.361 N 
HETATM   18  C   UNL     1     -43.267 -47.568  10.322  1.00  0.00     0.182 A 
ATOM     19  HN  UNL     1     -44.562 -45.941  10.052  1.00  0.00     0.166 HD
ENDBRANCH  13  14
ENDBRANCH  11  13
ENDBRANCH   1  11
BRANCH   7  20
HETATM   20  C   UNL     1     -45.312 -54.908  13.553  1.00  0.00     0.168 C 
BRANCH  20  21
HETATM   21  O   UNL     1     -46.414 -55.150  14.414  1.00  0.00    -0.400 OA
HETATM   22  H   UNL     1     -46.601 -54.324  14.895  1.00  0.00     0.209 HD
ENDBRANCH  20  21
ENDBRANCH   7  20
TORSDOF 5
ENDMDL
MODEL 6
REMARK VINA RESULT:      -5.0      2.781      6.645
REMARK  5 active torsions:
REMARK  status: ('A' for Active; 'I' for Inactive)
REMARK    1  A    between atoms: C_2  and  C_3 
REMARK    2  A    between atoms: C_2  and  N_10 
REMARK    3  A    between atoms: C_3  and  N_4 
REMARK       I    between atoms: N_10  and  C_11 
REMARK       I    between atoms: C_11  and  N_13 
REMARK    4  A    between atoms: C_16  and  C_17 
REMARK    5  A    between atoms: C_17  and  O_18 
ROOT
HETATM    1  N   UNL     1     -44.180 -50.523  12.786  1.00  0.00    -0.337 N 
HETATM    2  C   UNL     1     -43.362 -49.718  13.540  1.00  0.00     0.318 C 
HETATM    3  O   UNL     1     -43.093 -49.957  14.710  1.00  0.00    -0.247 OA
HETATM    4  N   UNL     1     -42.928 -48.602  12.844  1.00  0.00    -0.334 N 
HETATM    5  C   UNL     1     -42.311 -47.498  13.572  1.00  0.00     0.128 C 
HETATM    6  C   UNL     1     -42.758 -46.162  12.972  1.00  0.00     0.027 C 
HETATM    7  C   UNL     1     -42.541 -46.089  11.446  1.00  0.00     0.012 C 
HETATM    8  C   UNL     1     -43.147 -47.324  10.763  1.00  0.00     0.027 C 
HETATM    9  C   UNL     1     -42.670 -48.620  11.405  1.00  0.00     0.128 C 
HETATM   10  H   UNL     1     -44.752 -49.992  12.142  1.00  0.00     0.164 HD
ENDROOT
BRANCH   1  11
HETATM   11  C   UNL     1     -44.753 -51.764  13.302  1.00  0.00     0.100 C 
HETATM   12  C   UNL     1     -46.272 -51.696  13.132  1.00  0.00     0.034 C 
BRANCH  11  13
HETATM   13  C   UNL     1     -44.131 -52.967  12.566  1.00  0.00     0.153 C 
BRANCH  13  14
HETATM   14  N   UNL     1     -42.801 -53.323  13.009  1.00  0.00    -0.350 N 
HETATM   15  C   UNL     1     -42.491 -54.151  14.053  1.00  0.00     0.108 A 
HETATM   16  C   UNL     1     -41.116 -54.186  14.077  1.00  0.00     0.106 A 
HETATM   17  N   UNL     1     -40.592 -53.411  13.076  1.00  0.00    -0.361 N 
HETATM   18  C   UNL     1     -41.630 -52.916  12.437  1.00  0.00     0.182 A 
ATOM     19  HN  UNL     1     -39.606 -53.251  12.870  1.00  0.00     0.166 HD
ENDBRANCH  13  14
ENDBRANCH  11  13
ENDBRANCH   1  11
BRANCH   7  20
HETATM   20  C   UNL     1     -41.062 -45.920  11.075  1.00  0.00     0.168 C 
BRANCH  20  21
HETATM   21  O   UNL     1     -40.935 -45.460   9.738  1.00  0.00    -0.400 OA
HETATM   22  H   UNL     1     -41.796 -45.094   9.468  1.00  0.00     0.209 HD
ENDBRANCH  20  21
ENDBRANCH   7  20
TORSDOF 5
ENDMDL
MODEL 7
REMARK VINA RESULT:      -5.0      3.255      6.408
REMARK  5 active torsions:
REMARK  status: ('A' for Active; 'I' for Inactive)
REMARK    1  A    between atoms: C_2  and  C_3 
REMARK    2  A    between atoms: C_2  and  N_10 
REMARK    3  A    between atoms: C_3  and  N_4 
REMARK       I    between atoms: N_10  and  C_11 
REMARK       I    between atoms: C_11  and  N_13 
REMARK    4  A    between atoms: C_16  and  C_17 
REMARK    5  A    between atoms: C_17  and  O_18 
ROOT
HETATM    1  N   UNL     1     -42.171 -52.223  13.265  1.00  0.00    -0.337 N 
HETATM    2  C   UNL     1     -41.210 -51.911  12.335  1.00  0.00     0.318 C 
HETATM    3  O   UNL     1     -40.520 -52.760  11.785  1.00  0.00    -0.247 OA
HETATM    4  N   UNL     1     -41.086 -50.545  12.139  1.00  0.00    -0.334 N 
HETATM    5  C   UNL     1     -39.923 -50.027  11.426  1.00  0.00     0.128 C 
HETATM    6  C   UNL     1     -39.455 -48.720  12.072  1.00  0.00     0.027 C 
HETATM    7  C   UNL     1     -40.591 -47.688  12.227  1.00  0.00     0.012 C 
HETATM    8  C   UNL     1     -41.806 -48.333  12.910  1.00  0.00     0.027 C 
HETATM    9  C   UNL     1     -42.221 -49.629  12.228  1.00  0.00     0.128 C 
HETATM   10  H   UNL     1     -42.231 -51.531  14.001  1.00  0.00     0.164 HD
ENDROOT
BRANCH   1  11
HETATM   11  C   UNL     1     -42.490 -53.600  13.633  1.00  0.00     0.100 C 
HETATM   12  C   UNL     1     -42.723 -53.650  15.144  1.00  0.00     0.034 C 
BRANCH  11  13
HETATM   13  C   UNL     1     -43.715 -54.080  12.832  1.00  0.00     0.153 C 
BRANCH  13  14
HETATM   14  N   UNL     1     -44.980 -53.931  13.517  1.00  0.00    -0.350 N 
HETATM   15  C   UNL     1     -45.655 -52.759  13.724  1.00  0.00     0.108 A 
HETATM   16  C   UNL     1     -46.794 -53.124  14.404  1.00  0.00     0.106 A 
HETATM   17  N   UNL     1     -46.826 -54.480  14.605  1.00  0.00    -0.361 N 
HETATM   18  C   UNL     1     -45.730 -54.943  14.045  1.00  0.00     0.182 A 
ATOM     19  HN  UNL     1     -47.548 -55.016  15.087  1.00  0.00     0.166 HD
ENDBRANCH  13  14
ENDBRANCH  11  13
ENDBRANCH   1  11
BRANCH   7  20
HETATM   20  C   UNL     1     -40.984 -47.048  10.888  1.00  0.00     0.168 C 
BRANCH  20  21
HETATM   21  O   UNL     1     -39.893 -46.317  10.349  1.00  0.00    -0.400 OA
HETATM   22  H   UNL     1     -39.082 -46.829  10.518  1.00  0.00     0.209 HD
ENDBRANCH  20  21
ENDBRANCH   7  20
TORSDOF 5
ENDMDL
MODEL 8
REMARK VINA RESULT:      -4.8      3.922      6.066
REMARK  5 active torsions:
REMARK  status: ('A' for Active; 'I' for Inactive)
REMARK    1  A    between atoms: C_2  and  C_3 
REMARK    2  A    between atoms: C_2  and  N_10 
REMARK    3  A    between atoms: C_3  and  N_4 
REMARK       I    between atoms: N_10  and  C_11 
REMARK       I    between atoms: C_11  and  N_13 
REMARK    4  A    between atoms: C_16  and  C_17 
REMARK    5  A    between atoms: C_17  and  O_18 
ROOT
HETATM    1  N   UNL     1     -41.364 -52.089  14.406  1.00  0.00    -0.337 N 
HETATM    2  C   UNL     1     -42.327 -51.156  14.701  1.00  0.00     0.318 C 
HETATM    3  O   UNL     1     -42.108 -50.176  15.401  1.00  0.00    -0.247 OA
HETATM    4  N   UNL     1     -43.562 -51.481  14.163  1.00  0.00    -0.334 N 
HETATM    5  C   UNL     1     -44.752 -50.774  14.624  1.00  0.00     0.128 C 
HETATM    6  C   UNL     1     -45.931 -51.747  14.723  1.00  0.00     0.027 C 
HETATM    7  C   UNL     1     -46.156 -52.550  13.425  1.00  0.00     0.012 C 
HETATM    8  C   UNL     1     -44.841 -53.194  12.963  1.00  0.00     0.027 C 
HETATM    9  C   UNL     1     -43.707 -52.180  12.887  1.00  0.00     0.128 C 
HETATM   10  H   UNL     1     -41.740 -53.028  14.362  1.00  0.00     0.164 HD
ENDROOT
BRANCH   1  11
HETATM   11  C   UNL     1     -39.981 -51.959  14.858  1.00  0.00     0.100 C 
HETATM   12  C   UNL     1     -39.799 -52.832  16.101  1.00  0.00     0.034 C 
BRANCH  11  13
HETATM   13  C   UNL     1     -39.024 -52.355  13.716  1.00  0.00     0.153 C 
BRANCH  13  14
HETATM   14  N   UNL     1     -38.670 -51.273  12.824  1.00  0.00    -0.350 N 
HETATM   15  C   UNL     1     -37.403 -50.853  12.526  1.00  0.00     0.108 A 
HETATM   16  C   UNL     1     -37.576 -49.816  11.638  1.00  0.00     0.106 A 
HETATM   17  N   UNL     1     -38.908 -49.607  11.389  1.00  0.00    -0.361 N 
HETATM   18  C   UNL     1     -39.543 -50.510  12.104  1.00  0.00     0.182 A 
ATOM     19  HN  UNL     1     -39.318 -48.900  10.779  1.00  0.00     0.166 HD
ENDBRANCH  13  14
ENDBRANCH  11  13
ENDBRANCH   1  11
BRANCH   7  20
HETATM   20  C   UNL     1     -46.776 -51.695  12.312  1.00  0.00     0.168 C 
BRANCH  20  21
HETATM   21  O   UNL     1     -46.990 -52.477  11.146  1.00  0.00    -0.400 OA
HETATM   22  H   UNL     1     -47.307 -53.352  11.432  1.00  0.00     0.209 HD
ENDBRANCH  20  21
ENDBRANCH   7  20
TORSDOF 5
ENDMDL
MODEL 9
REMARK VINA RESULT:      -4.8     14.230     16.904
REMARK  5 active torsions:
REMARK  status: ('A' for Active; 'I' for Inactive)
REMARK    1  A    between atoms: C_2  and  C_3 
REMARK    2  A    between atoms: C_2  and  N_10 
REMARK    3  A    between atoms: C_3  and  N_4 
REMARK       I    between atoms: N_10  and  C_11 
REMARK       I    between atoms: C_11  and  N_13 
REMARK    4  A    between atoms: C_16  and  C_17 
REMARK    5  A    between atoms: C_17  and  O_18 
ROOT
HETATM    1  N   UNL     1     -51.722 -52.345  -0.603  1.00  0.00    -0.337 N 
HETATM    2  C   UNL     1     -50.584 -51.698  -0.190  1.00  0.00     0.318 C 
HETATM    3  O   UNL     1     -49.512 -52.271  -0.040  1.00  0.00    -0.247 OA
HETATM    4  N   UNL     1     -50.805 -50.357   0.079  1.00  0.00    -0.334 N 
HETATM    5  C   UNL     1     -49.796 -49.597   0.811  1.00  0.00     0.128 C 
HETATM    6  C   UNL     1     -50.475 -48.623   1.777  1.00  0.00     0.027 C 
HETATM    7  C   UNL     1     -51.534 -47.736   1.088  1.00  0.00     0.012 C 
HETATM    8  C   UNL     1     -52.506 -48.602   0.274  1.00  0.00     0.027 C 
HETATM    9  C   UNL     1     -51.773 -49.553  -0.664  1.00  0.00     0.128 C 
HETATM   10  H   UNL     1     -52.554 -51.980  -0.157  1.00  0.00     0.164 HD
ENDROOT
BRANCH   1  11
HETATM   11  C   UNL     1     -51.735 -53.763  -0.954  1.00  0.00     0.100 C 
HETATM   12  C   UNL     1     -53.110 -54.331  -0.599  1.00  0.00     0.034 C 
BRANCH  11  13
HETATM   13  C   UNL     1     -51.396 -53.930  -2.448  1.00  0.00     0.153 C 
BRANCH  13  14
HETATM   14  N   UNL     1     -50.472 -55.003  -2.740  1.00  0.00    -0.350 N 
HETATM   15  C   UNL     1     -50.750 -56.137  -3.454  1.00  0.00     0.108 A 
HETATM   16  C   UNL     1     -49.568 -56.841  -3.470  1.00  0.00     0.106 A 
HETATM   17  N   UNL     1     -48.588 -56.161  -2.795  1.00  0.00    -0.361 N 
HETATM   18  C   UNL     1     -49.156 -55.049  -2.381  1.00  0.00     0.182 A 
ATOM     19  HN  UNL     1     -47.623 -56.454  -2.645  1.00  0.00     0.166 HD
ENDBRANCH  13  14
ENDBRANCH  11  13
ENDBRANCH   1  11
BRANCH   7  20
HETATM   20  C   UNL     1     -50.900 -46.645   0.214  1.00  0.00     0.168 C 
BRANCH  20  21
HETATM   21  O   UNL     1     -49.840 -46.005   0.910  1.00  0.00    -0.400 OA
HETATM   22  H   UNL     1     -50.235 -45.454   1.608  1.00  0.00     0.209 HD
ENDBRANCH  20  21
ENDBRANCH   7  20
TORSDOF 5
ENDMDL
