MODEL 1
REMARK VINA RESULT:      -6.9      0.000      0.000
REMARK  4 active torsions:
REMARK  status: ('A' for Active; 'I' for Inactive)
REMARK    1  A    between atoms: C_5  and  N_6 
REMARK       I    between atoms: N_6  and  C_7 
REMARK       I    between atoms: C_7  and  N_9 
REMARK    2  A    between atoms: N_9  and  C_10 
REMARK    3  A    between atoms: N_13  and  C_14 
REMARK    4  A    between atoms: C_14  and  C_15 
ROOT
HETATM    1  N   UNL     1     -40.742 -48.555  10.629  1.00  0.00    -0.295 N 
HETATM    2  C   UNL     1     -40.435 -49.748  11.230  1.00  0.00     0.322 C 
HETATM    3  O   UNL     1     -39.271 -50.004  11.516  1.00  0.00    -0.247 OA
HETATM    4  N   UNL     1     -41.478 -50.584  11.445  1.00  0.00    -0.338 N 
HETATM    5  H   UNL     1     -39.932 -47.980  10.441  1.00  0.00     0.172 HD
HETATM    6  H   UNL     1     -42.377 -50.145  11.262  1.00  0.00     0.164 HD
ENDROOT
BRANCH   4   7
HETATM    7  C   UNL     1     -41.529 -51.831  12.190  1.00  0.00     0.089 C 
HETATM    8  C   UNL     1     -42.962 -52.350  12.323  1.00  0.00     0.055 C 
HETATM    9  C   UNL     1     -43.586 -52.030  13.674  1.00  0.00     0.274 C 
HETATM   10  N   UNL     1     -42.766 -52.495  14.800  1.00  0.00     0.089 N 
HETATM   11  C   UNL     1     -41.500 -51.734  14.781  1.00  0.00     0.274 C 
HETATM   12  C   UNL     1     -40.696 -51.856  13.480  1.00  0.00     0.055 C 
BRANCH  10  13
HETATM   13  C   UNL     1     -42.535 -53.949  14.846  1.00  0.00     0.279 C 
BRANCH  13  14
HETATM   14  C   UNL     1     -43.756 -54.805  15.221  1.00  0.00     0.040 C 
HETATM   15  C   UNL     1     -44.733 -55.091  14.087  1.00  0.00     0.035 C 
HETATM   16  C   UNL     1     -46.082 -54.637  14.615  1.00  0.00     0.168 C 
HETATM   17  O   UNL     1     -45.951 -54.559  16.037  1.00  0.00    -0.391 OA
HETATM   18  C   UNL     1     -44.611 -54.126  16.283  1.00  0.00     0.173 C 
ENDBRANCH  13  14
ENDBRANCH  10  13
ENDBRANCH   4   7
BRANCH   1  19
HETATM   19  C   UNL     1     -41.999 -48.086  10.216  1.00  0.00     0.108 A 
HETATM   20  C   UNL     1     -42.864 -47.554  11.162  1.00  0.00     0.049 A 
HETATM   21  C   UNL     1     -44.077 -47.010  10.737  1.00  0.00     0.012 A 
HETATM   22  C   UNL     1     -44.399 -47.009   9.378  1.00  0.00    -0.046 A 
HETATM   23  C   UNL     1     -45.655 -46.393   8.849  1.00  0.00     0.049 C 
HETATM   24  C   UNL     1     -43.500 -47.608   8.515  1.00  0.00     0.096 A 
HETATM   25  N   UNL     1     -42.326 -48.140   8.903  1.00  0.00    -0.352 N 
ATOM     26  HN  UNL     1     -41.698 -48.574   8.226  1.00  0.00     0.166 HD
ENDBRANCH   1  19
TORSDOF 4
ENDMDL
MODEL 2
REMARK VINA RESULT:      -6.8      1.922      2.260
REMARK  4 active torsions:
REMARK  status: ('A' for Active; 'I' for Inactive)
REMARK    1  A    between atoms: C_5  and  N_6 
REMARK       I    between atoms: N_6  and  C_7 
REMARK       I    between atoms: C_7  and  N_9 
REMARK    2  A    between atoms: N_9  and  C_10 
REMARK    3  A    between atoms: N_13  and  C_14 
REMARK    4  A    between atoms: C_14  and  C_15 
ROOT
HETATM    1  N   UNL     1     -38.631 -48.836  11.640  1.00  0.00    -0.295 N 
HETATM    2  C   UNL     1     -38.797 -50.188  11.793  1.00  0.00     0.322 C 
HETATM    3  O   UNL     1     -37.835 -50.938  11.664  1.00  0.00    -0.247 OA
HETATM    4  N   UNL     1     -40.058 -50.599  12.060  1.00  0.00    -0.338 N 
HETATM    5  H   UNL     1     -37.686 -48.572  11.393  1.00  0.00     0.172 HD
HETATM    6  H   UNL     1     -40.689 -49.826  12.259  1.00  0.00     0.164 HD
ENDROOT
BRANCH   4   7
HETATM    7  C   UNL     1     -40.544 -51.917  12.432  1.00  0.00     0.089 C 
HETATM    8  C   UNL     1     -42.027 -52.088  12.094  1.00  0.00     0.055 C 
HETATM    9  C   UNL     1     -42.935 -51.898  13.301  1.00  0.00     0.274 C 
HETATM   10  N   UNL     1     -42.565 -52.760  14.429  1.00  0.00     0.089 N 
HETATM   11  C   UNL     1     -41.228 -52.342  14.897  1.00  0.00     0.274 C 
HETATM   12  C   UNL     1     -40.127 -52.398  13.830  1.00  0.00     0.055 C 
BRANCH  10  13
HETATM   13  C   UNL     1     -42.628 -54.207  14.156  1.00  0.00     0.279 C 
BRANCH  13  14
HETATM   14  C   UNL     1     -43.858 -54.937  14.717  1.00  0.00     0.040 C 
HETATM   15  C   UNL     1     -45.072 -54.982  13.798  1.00  0.00     0.035 C 
HETATM   16  C   UNL     1     -46.209 -54.420  14.632  1.00  0.00     0.168 C 
HETATM   17  O   UNL     1     -45.788 -54.504  15.995  1.00  0.00    -0.391 OA
HETATM   18  C   UNL     1     -44.378 -54.268  15.983  1.00  0.00     0.173 C 
ENDBRANCH  13  14
ENDBRANCH  10  13
ENDBRANCH   4   7
BRANCH   1  19
HETATM   19  C   UNL     1     -39.599 -47.824  11.733  1.00  0.00     0.108 A 
HETATM   20  C   UNL     1     -39.751 -47.146  12.934  1.00  0.00     0.049 A 
HETATM   21  C   UNL     1     -40.654 -46.083  13.000  1.00  0.00     0.012 A 
HETATM   22  C   UNL     1     -41.383 -45.721  11.866  1.00  0.00    -0.046 A 
HETATM   23  C   UNL     1     -42.324 -44.559  11.850  1.00  0.00     0.049 C 
HETATM   24  C   UNL     1     -41.204 -46.486  10.728  1.00  0.00     0.096 A 
HETATM   25  N   UNL     1     -40.341 -47.517  10.643  1.00  0.00    -0.352 N 
ATOM     26  HN  UNL     1     -40.249 -48.052   9.780  1.00  0.00     0.166 HD
ENDBRANCH   1  19
TORSDOF 4
ENDMDL
MODEL 3
REMARK VINA RESULT:      -6.8      3.094      7.950
REMARK  4 active torsions:
REMARK  status: ('A' for Active; 'I' for Inactive)
REMARK    1  A    between atoms: C_5  and  N_6 
REMARK       I    between atoms: N_6  and  C_7 
REMARK       I    between atoms: C_7  and  N_9 
REMARK    2  A    between atoms: N_9  and  C_10 
REMARK    3  A    between atoms: N_13  and  C_14 
REMARK    4  A    between atoms: C_14  and  C_15 
ROOT
HETATM    1  N   UNL     1     -40.986 -51.707  11.441  1.00  0.00    -0.295 N 
HETATM    2  C   UNL     1     -40.703 -50.403  11.753  1.00  0.00     0.322 C 
HETATM    3  O   UNL     1     -39.900 -49.774  11.071  1.00  0.00    -0.247 OA
HETATM    4  N   UNL     1     -41.338 -49.907  12.840  1.00  0.00    -0.338 N 
HETATM    5  H   UNL     1     -40.457 -52.056  10.653  1.00  0.00     0.172 HD
HETATM    6  H   UNL     1     -42.058 -50.532  13.194  1.00  0.00     0.164 HD
ENDROOT
BRANCH   4   7
HETATM    7  C   UNL     1     -41.389 -48.544  13.343  1.00  0.00     0.089 C 
HETATM    8  C   UNL     1     -42.361 -47.681  12.536  1.00  0.00     0.055 C 
HETATM    9  C   UNL     1     -41.661 -46.805  11.506  1.00  0.00     0.274 C 
HETATM   10  N   UNL     1     -40.605 -45.973  12.096  1.00  0.00     0.089 N 
HETATM   11  C   UNL     1     -39.550 -46.874  12.601  1.00  0.00     0.274 C 
HETATM   12  C   UNL     1     -40.024 -47.904  13.635  1.00  0.00     0.055 C 
BRANCH  10  13
HETATM   13  C   UNL     1     -41.060 -45.023  13.126  1.00  0.00     0.279 C 
BRANCH  13  14
HETATM   14  C   UNL     1     -41.356 -43.598  12.633  1.00  0.00     0.040 C 
HETATM   15  C   UNL     1     -42.831 -43.250  12.472  1.00  0.00     0.035 C 
HETATM   16  C   UNL     1     -42.957 -42.749  11.045  1.00  0.00     0.168 C 
HETATM   17  O   UNL     1     -41.636 -42.405  10.621  1.00  0.00    -0.391 OA
HETATM   18  C   UNL     1     -40.766 -43.349  11.251  1.00  0.00     0.173 C 
ENDBRANCH  13  14
ENDBRANCH  10  13
ENDBRANCH   4   7
BRANCH   1  19
HETATM   19  C   UNL     1     -41.856 -52.590  12.099  1.00  0.00     0.108 A 
HETATM   20  C   UNL     1     -41.356 -53.399  13.111  1.00  0.00     0.049 A 
HETATM   21  C   UNL     1     -42.239 -54.213  13.823  1.00  0.00     0.012 A 
HETATM   22  C   UNL     1     -43.600 -54.203  13.508  1.00  0.00    -0.046 A 
HETATM   23  C   UNL     1     -44.607 -55.007  14.265  1.00  0.00     0.049 C 
HETATM   24  C   UNL     1     -43.998 -53.405  12.451  1.00  0.00     0.096 A 
HETATM   25  N   UNL     1     -43.164 -52.614  11.750  1.00  0.00    -0.352 N 
ATOM     26  HN  UNL     1     -43.508 -52.046  10.976  1.00  0.00     0.166 HD
ENDBRANCH   1  19
TORSDOF 4
ENDMDL
MODEL 4
REMARK VINA RESULT:      -6.7      2.740      7.791
REMARK  4 active torsions:
REMARK  status: ('A' for Active; 'I' for Inactive)
REMARK    1  A    between atoms: C_5  and  N_6 
REMARK       I    between atoms: N_6  and  C_7 
REMARK       I    between atoms: C_7  and  N_9 
REMARK    2  A    between atoms: N_9  and  C_10 
REMARK    3  A    between atoms: N_13  and  C_14 
REMARK    4  A    between atoms: C_14  and  C_15 
ROOT
HETATM    1  N   UNL     1     -40.619 -53.418  13.008  1.00  0.00    -0.295 N 
HETATM    2  C   UNL     1     -40.156 -52.128  12.972  1.00  0.00     0.322 C 
HETATM    3  O   UNL     1     -38.974 -51.912  12.731  1.00  0.00    -0.247 OA
HETATM    4  N   UNL     1     -41.072 -51.167  13.238  1.00  0.00    -0.338 N 
HETATM    5  H   UNL     1     -39.896 -54.108  12.853  1.00  0.00     0.172 HD
HETATM    6  H   UNL     1     -42.021 -51.531  13.283  1.00  0.00     0.164 HD
ENDROOT
BRANCH   4   7
HETATM    7  C   UNL     1     -40.959 -49.723  13.127  1.00  0.00     0.089 C 
HETATM    8  C   UNL     1     -42.189 -49.015  13.700  1.00  0.00     0.055 C 
HETATM    9  C   UNL     1     -43.174 -48.577  12.625  1.00  0.00     0.274 C 
HETATM   10  N   UNL     1     -42.547 -47.754  11.584  1.00  0.00     0.089 N 
HETATM   11  C   UNL     1     -41.565 -48.596  10.873  1.00  0.00     0.274 C 
HETATM   12  C   UNL     1     -40.477 -49.207  11.764  1.00  0.00     0.055 C 
BRANCH  10  13
HETATM   13  C   UNL     1     -41.952 -46.493  12.061  1.00  0.00     0.279 C 
BRANCH  13  14
HETATM   14  C   UNL     1     -41.632 -45.455  10.974  1.00  0.00     0.040 C 
HETATM   15  C   UNL     1     -40.185 -44.979  10.924  1.00  0.00     0.035 C 
HETATM   16  C   UNL     1     -40.274 -43.465  11.003  1.00  0.00     0.168 C 
HETATM   17  O   UNL     1     -41.616 -43.122  10.652  1.00  0.00    -0.391 OA
HETATM   18  C   UNL     1     -42.435 -44.176  11.166  1.00  0.00     0.173 C 
ENDBRANCH  13  14
ENDBRANCH  10  13
ENDBRANCH   4   7
BRANCH   1  19
HETATM   19  C   UNL     1     -41.920 -53.869  13.277  1.00  0.00     0.108 A 
HETATM   20  C   UNL     1     -42.170 -54.533  14.470  1.00  0.00     0.049 A 
HETATM   21  C   UNL     1     -43.482 -54.903  14.774  1.00  0.00     0.012 A 
HETATM   22  C   UNL     1     -44.513 -54.604  13.881  1.00  0.00    -0.046 A 
HETATM   23  C   UNL     1     -45.945 -54.922  14.169  1.00  0.00     0.049 C 
HETATM   24  C   UNL     1     -44.162 -53.987  12.694  1.00  0.00     0.096 A 
HETATM   25  N   UNL     1     -42.904 -53.623  12.379  1.00  0.00    -0.352 N 
ATOM     26  HN  UNL     1     -42.697 -53.173  11.488  1.00  0.00     0.166 HD
ENDBRANCH   1  19
TORSDOF 4
ENDMDL
MODEL 5
REMARK VINA RESULT:      -6.7      1.721      2.261
REMARK  4 active torsions:
REMARK  status: ('A' for Active; 'I' for Inactive)
REMARK    1  A    between atoms: C_5  and  N_6 
REMARK       I    between atoms: N_6  and  C_7 
REMARK       I    between atoms: C_7  and  N_9 
REMARK    2  A    between atoms: N_9  and  C_10 
REMARK    3  A    between atoms: N_13  and  C_14 
REMARK    4  A    between atoms: C_14  and  C_15 
ROOT
HETATM    1  N   UNL     1     -40.744 -48.371  10.655  1.00  0.00    -0.295 N 
HETATM    2  C   UNL     1     -40.242 -49.507  11.235  1.00  0.00     0.322 C 
HETATM    3  O   UNL     1     -39.046 -49.578  11.497  1.00  0.00    -0.247 OA
HETATM    4  N   UNL     1     -41.136 -50.498  11.458  1.00  0.00    -0.338 N 
HETATM    5  H   UNL     1     -40.039 -47.673  10.460  1.00  0.00     0.172 HD
HETATM    6  H   UNL     1     -42.097 -50.205  11.297  1.00  0.00     0.164 HD
ENDROOT
BRANCH   4   7
HETATM    7  C   UNL     1     -40.975 -51.745  12.189  1.00  0.00     0.089 C 
HETATM    8  C   UNL     1     -42.094 -52.737  11.864  1.00  0.00     0.055 C 
HETATM    9  C   UNL     1     -43.184 -52.769  12.926  1.00  0.00     0.274 C 
HETATM   10  N   UNL     1     -42.655 -53.015  14.273  1.00  0.00     0.089 N 
HETATM   11  C   UNL     1     -41.805 -51.866  14.641  1.00  0.00     0.274 C 
HETATM   12  C   UNL     1     -40.642 -51.590  13.679  1.00  0.00     0.055 C 
BRANCH  10  13
HETATM   13  C   UNL     1     -41.952 -54.299  14.441  1.00  0.00     0.279 C 
BRANCH  13  14
HETATM   14  C   UNL     1     -41.375 -54.563  15.841  1.00  0.00     0.040 C 
HETATM   15  C   UNL     1     -39.945 -55.088  15.875  1.00  0.00     0.035 C 
HETATM   16  C   UNL     1     -40.018 -56.357  16.706  1.00  0.00     0.168 C 
HETATM   17  O   UNL     1     -41.241 -56.284  17.444  1.00  0.00    -0.391 OA
HETATM   18  C   UNL     1     -42.175 -55.623  16.586  1.00  0.00     0.173 C 
ENDBRANCH  13  14
ENDBRANCH  10  13
ENDBRANCH   4   7
BRANCH   1  19
HETATM   19  C   UNL     1     -42.067 -48.102  10.270  1.00  0.00     0.108 A 
HETATM   20  C   UNL     1     -43.026 -47.897  11.253  1.00  0.00     0.049 A 
HETATM   21  C   UNL     1     -44.321 -47.544  10.869  1.00  0.00     0.012 A 
HETATM   22  C   UNL     1     -44.630 -47.406   9.514  1.00  0.00    -0.046 A 
HETATM   23  C   UNL     1     -45.980 -46.977   9.036  1.00  0.00     0.049 C 
HETATM   24  C   UNL     1     -43.625 -47.681   8.605  1.00  0.00     0.096 A 
HETATM   25  N   UNL     1     -42.370 -48.025   8.953  1.00  0.00    -0.352 N 
ATOM     26  HN  UNL     1     -41.665 -48.221   8.242  1.00  0.00     0.166 HD
ENDBRANCH   1  19
TORSDOF 4
ENDMDL
MODEL 6
REMARK VINA RESULT:      -6.7      3.293      7.941
REMARK  4 active torsions:
REMARK  status: ('A' for Active; 'I' for Inactive)
REMARK    1  A    between atoms: C_5  and  N_6 
REMARK       I    between atoms: N_6  and  C_7 
REMARK       I    between atoms: C_7  and  N_9 
REMARK    2  A    between atoms: N_9  and  C_10 
REMARK    3  A    between atoms: N_13  and  C_14 
REMARK    4  A    between atoms: C_14  and  C_15 
ROOT
HETATM    1  N   UNL     1     -43.119 -52.516  12.976  1.00  0.00    -0.295 N 
HETATM    2  C   UNL     1     -42.228 -51.743  12.278  1.00  0.00     0.322 C 
HETATM    3  O   UNL     1     -41.328 -52.278  11.640  1.00  0.00    -0.247 OA
HETATM    4  N   UNL     1     -42.409 -50.405  12.373  1.00  0.00    -0.338 N 
HETATM    5  H   UNL     1     -42.922 -53.506  12.920  1.00  0.00     0.172 HD
HETATM    6  H   UNL     1     -43.281 -50.159  12.836  1.00  0.00     0.164 HD
ENDROOT
BRANCH   4   7
HETATM    7  C   UNL     1     -41.758 -49.328  11.647  1.00  0.00     0.089 C 
HETATM    8  C   UNL     1     -40.397 -48.980  12.254  1.00  0.00     0.055 C 
HETATM    9  C   UNL     1     -40.445 -47.752  13.152  1.00  0.00     0.274 C 
HETATM   10  N   UNL     1     -41.021 -46.581  12.480  1.00  0.00     0.089 N 
HETATM   11  C   UNL     1     -42.435 -46.882  12.180  1.00  0.00     0.274 C 
HETATM   12  C   UNL     1     -42.657 -48.129  11.313  1.00  0.00     0.055 C 
BRANCH  10  13
HETATM   13  C   UNL     1     -40.288 -46.124  11.286  1.00  0.00     0.279 C 
BRANCH  13  14
HETATM   14  C   UNL     1     -39.661 -44.725  11.385  1.00  0.00     0.040 C 
HETATM   15  C   UNL     1     -39.116 -44.343  12.756  1.00  0.00     0.035 C 
HETATM   16  C   UNL     1     -39.790 -43.024  13.087  1.00  0.00     0.168 C 
HETATM   17  O   UNL     1     -40.275 -42.499  11.849  1.00  0.00    -0.391 OA
HETATM   18  C   UNL     1     -40.675 -43.632  11.074  1.00  0.00     0.173 C 
ENDBRANCH  13  14
ENDBRANCH  10  13
ENDBRANCH   4   7
BRANCH   1  19
HETATM   19  C   UNL     1     -44.199 -52.099  13.769  1.00  0.00     0.108 A 
HETATM   20  C   UNL     1     -45.420 -51.841  13.162  1.00  0.00     0.049 A 
HETATM   21  C   UNL     1     -46.516 -51.510  13.962  1.00  0.00     0.012 A 
HETATM   22  C   UNL     1     -46.367 -51.443  15.349  1.00  0.00    -0.046 A 
HETATM   23  C   UNL     1     -47.509 -51.149  16.268  1.00  0.00     0.049 C 
HETATM   24  C   UNL     1     -45.101 -51.664  15.860  1.00  0.00     0.096 A 
HETATM   25  N   UNL     1     -44.031 -51.982  15.107  1.00  0.00    -0.352 N 
ATOM     26  HN  UNL     1     -43.117 -52.133  15.534  1.00  0.00     0.166 HD
ENDBRANCH   1  19
TORSDOF 4
ENDMDL
MODEL 7
REMARK VINA RESULT:      -6.4      3.613      5.569
REMARK  4 active torsions:
REMARK  status: ('A' for Active; 'I' for Inactive)
REMARK    1  A    between atoms: C_5  and  N_6 
REMARK       I    between atoms: N_6  and  C_7 
REMARK       I    between atoms: C_7  and  N_9 
REMARK    2  A    between atoms: N_9  and  C_10 
REMARK    3  A    between atoms: N_13  and  C_14 
REMARK    4  A    between atoms: C_14  and  C_15 
ROOT
HETATM    1  N   UNL     1     -42.357 -53.086  12.027  1.00  0.00    -0.295 N 
HETATM    2  C   UNL     1     -43.659 -52.910  12.417  1.00  0.00     0.322 C 
HETATM    3  O   UNL     1     -44.484 -53.790  12.198  1.00  0.00    -0.247 OA
HETATM    4  N   UNL     1     -43.940 -51.728  13.012  1.00  0.00    -0.338 N 
HETATM    5  H   UNL     1     -42.197 -53.960  11.543  1.00  0.00     0.172 HD
HETATM    6  H   UNL     1     -43.104 -51.186  13.223  1.00  0.00     0.164 HD
ENDROOT
BRANCH   4   7
HETATM    7  C   UNL     1     -45.155 -51.290  13.677  1.00  0.00     0.089 C 
HETATM    8  C   UNL     1     -44.873 -50.783  15.093  1.00  0.00     0.055 C 
HETATM    9  C   UNL     1     -45.184 -51.817  16.166  1.00  0.00     0.274 C 
HETATM   10  N   UNL     1     -46.554 -52.335  16.071  1.00  0.00     0.089 N 
HETATM   11  C   UNL     1     -46.672 -53.070  14.796  1.00  0.00     0.274 C 
HETATM   12  C   UNL     1     -46.352 -52.243  13.545  1.00  0.00     0.055 C 
BRANCH  10  13
HETATM   13  C   UNL     1     -47.616 -51.325  16.227  1.00  0.00     0.279 C 
BRANCH  13  14
HETATM   14  C   UNL     1     -48.029 -51.011  17.673  1.00  0.00     0.040 C 
HETATM   15  C   UNL     1     -47.385 -49.774  18.288  1.00  0.00     0.035 C 
HETATM   16  C   UNL     1     -46.758 -50.266  19.580  1.00  0.00     0.168 C 
HETATM   17  O   UNL     1     -47.389 -51.512  19.884  1.00  0.00    -0.391 OA
HETATM   18  C   UNL     1     -47.644 -52.137  18.623  1.00  0.00     0.173 C 
ENDBRANCH  13  14
ENDBRANCH  10  13
ENDBRANCH   4   7
BRANCH   1  19
HETATM   19  C   UNL     1     -41.277 -52.202  12.173  1.00  0.00     0.108 A 
HETATM   20  C   UNL     1     -40.394 -52.385  13.228  1.00  0.00     0.049 A 
HETATM   21  C   UNL     1     -39.273 -51.558  13.322  1.00  0.00     0.012 A 
HETATM   22  C   UNL     1     -39.059 -50.567  12.362  1.00  0.00    -0.046 A 
HETATM   23  C   UNL     1     -37.852 -49.685  12.371  1.00  0.00     0.049 C 
HETATM   24  C   UNL     1     -40.019 -50.424  11.377  1.00  0.00     0.096 A 
HETATM   25  N   UNL     1     -41.108 -51.208  11.268  1.00  0.00    -0.352 N 
ATOM     26  HN  UNL     1     -41.789 -51.059  10.524  1.00  0.00     0.166 HD
ENDBRANCH   1  19
TORSDOF 4
ENDMDL
MODEL 8
REMARK VINA RESULT:      -6.4      2.569      3.472
REMARK  4 active torsions:
REMARK  status: ('A' for Active; 'I' for Inactive)
REMARK    1  A    between atoms: C_5  and  N_6 
REMARK       I    between atoms: N_6  and  C_7 
REMARK       I    between atoms: C_7  and  N_9 
REMARK    2  A    between atoms: N_9  and  C_10 
REMARK    3  A    between atoms: N_13  and  C_14 
REMARK    4  A    between atoms: C_14  and  C_15 
ROOT
HETATM    1  N   UNL     1     -40.388 -50.957  11.265  1.00  0.00    -0.295 N 
HETATM    2  C   UNL     1     -41.084 -51.885  11.994  1.00  0.00     0.322 C 
HETATM    3  O   UNL     1     -40.770 -53.069  11.931  1.00  0.00    -0.247 OA
HETATM    4  N   UNL     1     -42.111 -51.404  12.732  1.00  0.00    -0.338 N 
HETATM    5  H   UNL     1     -39.661 -51.360  10.690  1.00  0.00     0.172 HD
HETATM    6  H   UNL     1     -42.133 -50.387  12.759  1.00  0.00     0.164 HD
ENDROOT
BRANCH   4   7
HETATM    7  C   UNL     1     -42.935 -52.074  13.724  1.00  0.00     0.089 C 
HETATM    8  C   UNL     1     -44.368 -52.274  13.226  1.00  0.00     0.055 C 
HETATM    9  C   UNL     1     -45.335 -51.233  13.772  1.00  0.00     0.274 C 
HETATM   10  N   UNL     1     -45.309 -51.149  15.237  1.00  0.00     0.089 N 
HETATM   11  C   UNL     1     -43.972 -50.666  15.638  1.00  0.00     0.274 C 
HETATM   12  C   UNL     1     -42.803 -51.535  15.156  1.00  0.00     0.055 C 
BRANCH  10  13
HETATM   13  C   UNL     1     -45.682 -52.390  15.940  1.00  0.00     0.279 C 
BRANCH  13  14
HETATM   14  C   UNL     1     -46.845 -52.266  16.937  1.00  0.00     0.040 C 
HETATM   15  C   UNL     1     -47.800 -51.105  16.692  1.00  0.00     0.035 C 
HETATM   16  C   UNL     1     -47.842 -50.354  18.011  1.00  0.00     0.168 C 
HETATM   17  O   UNL     1     -47.352 -51.258  19.004  1.00  0.00    -0.391 OA
HETATM   18  C   UNL     1     -46.344 -52.040  18.357  1.00  0.00     0.173 C 
ENDBRANCH  13  14
ENDBRANCH  10  13
ENDBRANCH   4   7
BRANCH   1  19
HETATM   19  C   UNL     1     -40.599 -49.571  11.192  1.00  0.00     0.108 A 
HETATM   20  C   UNL     1     -39.689 -48.718  11.802  1.00  0.00     0.049 A 
HETATM   21  C   UNL     1     -39.852 -47.340  11.655  1.00  0.00     0.012 A 
HETATM   22  C   UNL     1     -40.920 -46.844  10.903  1.00  0.00    -0.046 A 
HETATM   23  C   UNL     1     -41.122 -45.383  10.659  1.00  0.00     0.049 C 
HETATM   24  C   UNL     1     -41.805 -47.766  10.376  1.00  0.00     0.096 A 
HETATM   25  N   UNL     1     -41.668 -49.100  10.507  1.00  0.00    -0.352 N 
ATOM     26  HN  UNL     1     -42.351 -49.739  10.101  1.00  0.00     0.166 HD
ENDBRANCH   1  19
TORSDOF 4
ENDMDL
MODEL 9
REMARK VINA RESULT:      -6.2      3.397      7.376
REMARK  4 active torsions:
REMARK  status: ('A' for Active; 'I' for Inactive)
REMARK    1  A    between atoms: C_5  and  N_6 
REMARK       I    between atoms: N_6  and  C_7 
REMARK       I    between atoms: C_7  and  N_9 
REMARK    2  A    between atoms: N_9  and  C_10 
REMARK    3  A    between atoms: N_13  and  C_14 
REMARK    4  A    between atoms: C_14  and  C_15 
ROOT
HETATM    1  N   UNL     1     -45.913 -53.770  13.801  1.00  0.00    -0.295 N 
HETATM    2  C   UNL     1     -44.680 -53.898  13.217  1.00  0.00     0.322 C 
HETATM    3  O   UNL     1     -44.552 -54.585  12.209  1.00  0.00    -0.247 OA
HETATM    4  N   UNL     1     -43.666 -53.250  13.836  1.00  0.00    -0.338 N 
HETATM    5  H   UNL     1     -46.635 -54.307  13.339  1.00  0.00     0.172 HD
HETATM    6  H   UNL     1     -43.990 -52.630  14.575  1.00  0.00     0.164 HD
ENDROOT
BRANCH   4   7
HETATM    7  C   UNL     1     -42.294 -53.046  13.403  1.00  0.00     0.089 C 
HETATM    8  C   UNL     1     -41.371 -52.731  14.582  1.00  0.00     0.055 C 
HETATM    9  C   UNL     1     -41.080 -51.244  14.725  1.00  0.00     0.274 C 
HETATM   10  N   UNL     1     -40.555 -50.648  13.490  1.00  0.00     0.089 N 
HETATM   11  C   UNL     1     -41.616 -50.726  12.466  1.00  0.00     0.274 C 
HETATM   12  C   UNL     1     -42.124 -52.144  12.172  1.00  0.00     0.055 C 
BRANCH  10  13
HETATM   13  C   UNL     1     -39.283 -51.219  13.013  1.00  0.00     0.279 C 
BRANCH  13  14
HETATM   14  C   UNL     1     -38.034 -50.358  13.258  1.00  0.00     0.040 C 
HETATM   15  C   UNL     1     -37.466 -50.408  14.670  1.00  0.00     0.035 C 
HETATM   16  C   UNL     1     -37.387 -48.956  15.108  1.00  0.00     0.168 C 
HETATM   17  O   UNL     1     -37.447 -48.173  13.913  1.00  0.00    -0.391 OA
HETATM   18  C   UNL     1     -38.319 -48.879  13.027  1.00  0.00     0.173 C 
ENDBRANCH  13  14
ENDBRANCH  10  13
ENDBRANCH   4   7
BRANCH   1  19
HETATM   19  C   UNL     1     -46.260 -53.048  14.953  1.00  0.00     0.108 A 
HETATM   20  C   UNL     1     -46.845 -51.797  14.813  1.00  0.00     0.049 A 
HETATM   21  C   UNL     1     -47.269 -51.118  15.957  1.00  0.00     0.012 A 
HETATM   22  C   UNL     1     -47.098 -51.702  17.214  1.00  0.00    -0.046 A 
HETATM   23  C   UNL     1     -47.578 -51.056  18.474  1.00  0.00     0.049 C 
HETATM   24  C   UNL     1     -46.458 -52.927  17.261  1.00  0.00     0.096 A 
HETATM   25  N   UNL     1     -46.040 -53.599  16.171  1.00  0.00    -0.352 N 
ATOM     26  HN  UNL     1     -45.570 -54.500  16.259  1.00  0.00     0.166 HD
ENDBRANCH   1  19
TORSDOF 4
ENDMDL
