MODEL 1
REMARK VINA RESULT:      -6.6      0.000      0.000
REMARK  6 active torsions:
REMARK  status: ('A' for Active; 'I' for Inactive)
REMARK    1  A    between atoms: C_7  and  N_8 
REMARK       I    between atoms: N_8  and  C_9 
REMARK    2  A    between atoms: C_9  and  C_11 
REMARK    3  A    between atoms: C_11  and  N_12 
REMARK    4  A    between atoms: C_15  and  C_16 
REMARK    5  A    between atoms: C_16  and  N_17 
REMARK    6  A    between atoms: N_21  and  C_22 
ROOT
HETATM    1  N   UNL     1     -38.416 -50.808  13.454  1.00  0.00    -0.256 N 
HETATM    2  C   UNL     1     -37.649 -50.981  12.311  1.00  0.00     0.273 C 
HETATM    3  O   UNL     1     -36.875 -51.917  12.140  1.00  0.00    -0.266 OA
HETATM    4  C   UNL     1     -37.767 -49.919  11.284  1.00  0.00     0.110 C 
HETATM    5  C   UNL     1     -38.587 -48.888  11.509  1.00  0.00     0.123 C 
HETATM    6  N   UNL     1     -39.259 -48.736  12.703  1.00  0.00    -0.303 N 
HETATM    7  C   UNL     1     -39.127 -49.649  13.753  1.00  0.00     0.332 C 
HETATM    8  O   UNL     1     -39.612 -49.459  14.870  1.00  0.00    -0.246 OA
ENDROOT
BRANCH   1   9
HETATM    9  C   UNL     1     -38.363 -51.821  14.502  1.00  0.00     0.239 C 
BRANCH   9  10
HETATM   10  C   UNL     1     -39.322 -52.975  14.177  1.00  0.00     0.236 C 
HETATM   11  N   UNL     1     -40.661 -52.636  14.267  1.00  0.00    -0.355 N 
HETATM   12  H   UNL     1     -40.871 -51.641  14.163  1.00  0.00     0.162 HD
HETATM   13  O   UNL     1     -38.928 -54.079  13.813  1.00  0.00    -0.272 OA
BRANCH  11  14
HETATM   14  C   UNL     1     -41.738 -53.575  13.977  1.00  0.00     0.088 C 
HETATM   15  C   UNL     1     -42.896 -52.948  13.163  1.00  0.00     0.004 C 
HETATM   16  C   UNL     1     -43.538 -51.726  13.830  1.00  0.00     0.012 C 
HETATM   17  C   UNL     1     -43.962 -54.023  12.882  1.00  0.00     0.006 C 
HETATM   18  C   UNL     1     -44.464 -54.712  14.152  1.00  0.00     0.001 C 
HETATM   19  C   UNL     1     -43.318 -55.271  14.990  1.00  0.00     0.002 C 
HETATM   20  C   UNL     1     -42.241 -54.226  15.273  1.00  0.00     0.025 C 
ENDBRANCH  11  14
ENDBRANCH   9  10
ENDBRANCH   1   9
BRANCH   4  21
HETATM   21  C   UNL     1     -36.923 -49.993  10.022  1.00  0.00    -0.030 C 
BRANCH  21  22
HETATM   22  N   UNL     1     -36.223 -50.056   8.976  1.00  0.00    -0.365 N 
ATOM     23  HN2 UNL     1     -36.770 -50.030   9.837  1.00  0.00     0.165 HD
ATOM     24  HN1 UNL     1     -35.657 -50.106   8.128  1.00  0.00     0.165 HD
ENDBRANCH  21  22
ENDBRANCH   4  21
BRANCH   6  25
HETATM   25  C   UNL     1     -40.188 -47.633  12.822  1.00  0.00     0.094 A 
HETATM   26  C   UNL     1     -41.643 -47.744  12.442  1.00  0.00     0.028 A 
HETATM   27  C   UNL     1     -40.723 -46.897  11.619  1.00  0.00     0.028 A 
ENDBRANCH   6  25
TORSDOF 6
ENDMDL
MODEL 2
REMARK VINA RESULT:      -6.2      2.507      4.055
REMARK  6 active torsions:
REMARK  status: ('A' for Active; 'I' for Inactive)
REMARK    1  A    between atoms: C_7  and  N_8 
REMARK       I    between atoms: N_8  and  C_9 
REMARK    2  A    between atoms: C_9  and  C_11 
REMARK    3  A    between atoms: C_11  and  N_12 
REMARK    4  A    between atoms: C_15  and  C_16 
REMARK    5  A    between atoms: C_16  and  N_17 
REMARK    6  A    between atoms: N_21  and  C_22 
ROOT
HETATM    1  N   UNL     1     -40.590 -50.608  12.278  1.00  0.00    -0.256 N 
HETATM    2  C   UNL     1     -41.039 -49.331  11.972  1.00  0.00     0.273 C 
HETATM    3  O   UNL     1     -42.048 -49.100  11.312  1.00  0.00    -0.266 OA
HETATM    4  C   UNL     1     -40.192 -48.214  12.448  1.00  0.00     0.110 C 
HETATM    5  C   UNL     1     -39.077 -48.491  13.132  1.00  0.00     0.123 C 
HETATM    6  N   UNL     1     -38.646 -49.784  13.331  1.00  0.00    -0.303 N 
HETATM    7  C   UNL     1     -39.344 -50.888  12.833  1.00  0.00     0.332 C 
HETATM    8  O   UNL     1     -38.904 -52.038  12.886  1.00  0.00    -0.246 OA
ENDROOT
BRANCH   1   9
HETATM    9  C   UNL     1     -41.381 -51.757  11.855  1.00  0.00     0.239 C 
BRANCH   9  10
HETATM   10  C   UNL     1     -42.296 -52.225  12.996  1.00  0.00     0.236 C 
HETATM   11  N   UNL     1     -43.554 -51.648  12.979  1.00  0.00    -0.355 N 
HETATM   12  H   UNL     1     -43.867 -51.299  12.071  1.00  0.00     0.162 HD
HETATM   13  O   UNL     1     -41.955 -53.079  13.809  1.00  0.00    -0.272 OA
BRANCH  11  14
HETATM   14  C   UNL     1     -44.586 -51.970  13.957  1.00  0.00     0.088 C 
HETATM   15  C   UNL     1     -45.891 -52.504  13.319  1.00  0.00     0.004 C 
HETATM   16  C   UNL     1     -46.526 -51.549  12.301  1.00  0.00     0.012 C 
HETATM   17  C   UNL     1     -46.901 -52.845  14.431  1.00  0.00     0.006 C 
HETATM   18  C   UNL     1     -47.166 -51.670  15.375  1.00  0.00     0.001 C 
HETATM   19  C   UNL     1     -45.875 -51.099  15.953  1.00  0.00     0.002 C 
HETATM   20  C   UNL     1     -44.852 -50.765  14.870  1.00  0.00     0.025 C 
ENDBRANCH  11  14
ENDBRANCH   9  10
ENDBRANCH   1   9
BRANCH   4  21
HETATM   21  C   UNL     1     -40.574 -46.781  12.113  1.00  0.00    -0.030 C 
BRANCH  21  22
HETATM   22  N   UNL     1     -40.891 -45.593  11.835  1.00  0.00    -0.365 N 
ATOM     23  HN2 UNL     1     -40.628 -46.560  12.027  1.00  0.00     0.165 HD
ATOM     24  HN1 UNL     1     -41.148 -44.632  11.609  1.00  0.00     0.165 HD
ENDBRANCH  21  22
ENDBRANCH   4  21
BRANCH   6  25
HETATM   25  C   UNL     1     -37.473 -49.988  14.154  1.00  0.00     0.094 A 
HETATM   26  C   UNL     1     -37.551 -50.297  15.628  1.00  0.00     0.028 A 
HETATM   27  C   UNL     1     -37.018 -48.975  15.174  1.00  0.00     0.028 A 
ENDBRANCH   6  25
TORSDOF 6
ENDMDL
MODEL 3
REMARK VINA RESULT:      -6.0      3.453      7.012
REMARK  6 active torsions:
REMARK  status: ('A' for Active; 'I' for Inactive)
REMARK    1  A    between atoms: C_7  and  N_8 
REMARK       I    between atoms: N_8  and  C_9 
REMARK    2  A    between atoms: C_9  and  C_11 
REMARK    3  A    between atoms: C_11  and  N_12 
REMARK    4  A    between atoms: C_15  and  C_16 
REMARK    5  A    between atoms: C_16  and  N_17 
REMARK    6  A    between atoms: N_21  and  C_22 
ROOT
HETATM    1  N   UNL     1     -44.203 -53.276  14.333  1.00  0.00    -0.256 N 
HETATM    2  C   UNL     1     -44.858 -53.053  13.130  1.00  0.00     0.273 C 
HETATM    3  O   UNL     1     -44.504 -53.534  12.058  1.00  0.00    -0.266 OA
HETATM    4  C   UNL     1     -46.019 -52.135  13.183  1.00  0.00     0.110 C 
HETATM    5  C   UNL     1     -46.363 -51.593  14.356  1.00  0.00     0.123 C 
HETATM    6  N   UNL     1     -45.620 -51.792  15.499  1.00  0.00    -0.303 N 
HETATM    7  C   UNL     1     -44.460 -52.572  15.507  1.00  0.00     0.332 C 
HETATM    8  O   UNL     1     -43.713 -52.651  16.484  1.00  0.00    -0.246 OA
ENDROOT
BRANCH   1   9
HETATM    9  C   UNL     1     -43.061 -54.181  14.360  1.00  0.00     0.239 C 
BRANCH   9  10
HETATM   10  C   UNL     1     -41.877 -53.571  13.596  1.00  0.00     0.236 C 
HETATM   11  N   UNL     1     -41.492 -52.325  14.059  1.00  0.00    -0.355 N 
HETATM   12  H   UNL     1     -41.746 -52.117  15.027  1.00  0.00     0.162 HD
HETATM   13  O   UNL     1     -41.292 -54.168  12.697  1.00  0.00    -0.272 OA
BRANCH  11  14
HETATM   14  C   UNL     1     -40.375 -51.579  13.492  1.00  0.00     0.088 C 
HETATM   15  C   UNL     1     -39.008 -51.953  14.115  1.00  0.00     0.004 C 
HETATM   16  C   UNL     1     -38.942 -51.766  15.635  1.00  0.00     0.012 C 
HETATM   17  C   UNL     1     -37.895 -51.139  13.428  1.00  0.00     0.006 C 
HETATM   18  C   UNL     1     -38.148 -49.631  13.470  1.00  0.00     0.001 C 
HETATM   19  C   UNL     1     -39.523 -49.266  12.919  1.00  0.00     0.002 C 
HETATM   20  C   UNL     1     -40.644 -50.070  13.575  1.00  0.00     0.025 C 
ENDBRANCH  11  14
ENDBRANCH   9  10
ENDBRANCH   1   9
BRANCH   4  21
HETATM   21  C   UNL     1     -46.765 -51.787  11.905  1.00  0.00    -0.030 C 
BRANCH  21  22
HETATM   22  N   UNL     1     -47.385 -51.498  10.846  1.00  0.00    -0.365 N 
ATOM     23  HN2 UNL     1     -46.913 -51.741  11.718  1.00  0.00     0.165 HD
ATOM     24  HN1 UNL     1     -47.886 -51.264   9.989  1.00  0.00     0.165 HD
ENDBRANCH  21  22
ENDBRANCH   4  21
BRANCH   6  25
HETATM   25  C   UNL     1     -46.117 -51.232  16.737  1.00  0.00     0.094 A 
HETATM   26  C   UNL     1     -46.923 -52.031  17.731  1.00  0.00     0.028 A 
HETATM   27  C   UNL     1     -47.579 -50.932  16.955  1.00  0.00     0.028 A 
ENDBRANCH   6  25
TORSDOF 6
ENDMDL
MODEL 4
REMARK VINA RESULT:      -6.0      2.492      3.376
REMARK  6 active torsions:
REMARK  status: ('A' for Active; 'I' for Inactive)
REMARK    1  A    between atoms: C_7  and  N_8 
REMARK       I    between atoms: N_8  and  C_9 
REMARK    2  A    between atoms: C_9  and  C_11 
REMARK    3  A    between atoms: C_11  and  N_12 
REMARK    4  A    between atoms: C_15  and  C_16 
REMARK    5  A    between atoms: C_16  and  N_17 
REMARK    6  A    between atoms: N_21  and  C_22 
ROOT
HETATM    1  N   UNL     1     -40.642 -50.688  12.272  1.00  0.00    -0.256 N 
HETATM    2  C   UNL     1     -39.517 -50.957  13.038  1.00  0.00     0.273 C 
HETATM    3  O   UNL     1     -39.158 -52.087  13.355  1.00  0.00    -0.266 OA
HETATM    4  C   UNL     1     -38.765 -49.776  13.523  1.00  0.00     0.110 C 
HETATM    5  C   UNL     1     -39.197 -48.554  13.198  1.00  0.00     0.123 C 
HETATM    6  N   UNL     1     -40.369 -48.355  12.501  1.00  0.00    -0.303 N 
HETATM    7  C   UNL     1     -41.180 -49.417  12.089  1.00  0.00     0.332 C 
HETATM    8  O   UNL     1     -42.293 -49.253  11.585  1.00  0.00    -0.246 OA
ENDROOT
BRANCH   1   9
HETATM    9  C   UNL     1     -41.423 -51.802  11.746  1.00  0.00     0.239 C 
BRANCH   9  10
HETATM   10  C   UNL     1     -42.357 -52.358  12.831  1.00  0.00     0.236 C 
HETATM   11  N   UNL     1     -43.516 -51.620  13.006  1.00  0.00    -0.355 N 
HETATM   12  H   UNL     1     -43.805 -51.057  12.204  1.00  0.00     0.162 HD
HETATM   13  O   UNL     1     -42.118 -53.396  13.440  1.00  0.00    -0.272 OA
BRANCH  11  14
HETATM   14  C   UNL     1     -44.550 -51.986  13.966  1.00  0.00     0.088 C 
HETATM   15  C   UNL     1     -45.839 -52.528  13.303  1.00  0.00     0.004 C 
HETATM   16  C   UNL     1     -46.482 -51.559  12.304  1.00  0.00     0.012 C 
HETATM   17  C   UNL     1     -46.852 -52.915  14.397  1.00  0.00     0.006 C 
HETATM   18  C   UNL     1     -47.146 -51.770  15.368  1.00  0.00     0.001 C 
HETATM   19  C   UNL     1     -45.871 -51.190  15.972  1.00  0.00     0.002 C 
HETATM   20  C   UNL     1     -44.845 -50.810  14.906  1.00  0.00     0.025 C 
ENDBRANCH  11  14
ENDBRANCH   9  10
ENDBRANCH   1   9
BRANCH   4  21
HETATM   21  C   UNL     1     -37.550 -49.970  14.417  1.00  0.00    -0.030 C 
BRANCH  21  22
HETATM   22  N   UNL     1     -36.543 -50.131  15.157  1.00  0.00    -0.365 N 
ATOM     23  HN2 UNL     1     -37.378 -50.014  14.583  1.00  0.00     0.165 HD
ATOM     24  HN1 UNL     1     -35.727 -50.261  15.755  1.00  0.00     0.165 HD
ENDBRANCH  21  22
ENDBRANCH   4  21
BRANCH   6  25
HETATM   25  C   UNL     1     -40.712 -47.001  12.123  1.00  0.00     0.094 A 
HETATM   26  C   UNL     1     -40.123 -46.314  10.917  1.00  0.00     0.028 A 
HETATM   27  C   UNL     1     -39.752 -45.851  12.291  1.00  0.00     0.028 A 
ENDBRANCH   6  25
TORSDOF 6
ENDMDL
MODEL 5
REMARK VINA RESULT:      -6.0      2.438      3.827
REMARK  6 active torsions:
REMARK  status: ('A' for Active; 'I' for Inactive)
REMARK    1  A    between atoms: C_7  and  N_8 
REMARK       I    between atoms: N_8  and  C_9 
REMARK    2  A    between atoms: C_9  and  C_11 
REMARK    3  A    between atoms: C_11  and  N_12 
REMARK    4  A    between atoms: C_15  and  C_16 
REMARK    5  A    between atoms: C_16  and  N_17 
REMARK    6  A    between atoms: N_21  and  C_22 
ROOT
HETATM    1  N   UNL     1     -40.427 -52.925  13.469  1.00  0.00    -0.256 N 
HETATM    2  C   UNL     1     -40.830 -52.114  12.418  1.00  0.00     0.273 C 
HETATM    3  O   UNL     1     -41.615 -52.465  11.543  1.00  0.00    -0.266 OA
HETATM    4  C   UNL     1     -40.211 -50.769  12.362  1.00  0.00     0.110 C 
HETATM    5  C   UNL     1     -39.329 -50.422  13.304  1.00  0.00     0.123 C 
HETATM    6  N   UNL     1     -38.912 -51.305  14.275  1.00  0.00    -0.303 N 
HETATM    7  C   UNL     1     -39.383 -52.620  14.338  1.00  0.00     0.332 C 
HETATM    8  O   UNL     1     -38.922 -53.460  15.114  1.00  0.00    -0.246 OA
ENDROOT
BRANCH   1   9
HETATM    9  C   UNL     1     -41.006 -54.256  13.598  1.00  0.00     0.239 C 
BRANCH   9  10
HETATM   10  C   UNL     1     -42.312 -54.195  14.404  1.00  0.00     0.236 C 
HETATM   11  N   UNL     1     -43.081 -53.075  14.143  1.00  0.00    -0.355 N 
HETATM   12  H   UNL     1     -42.922 -52.632  13.236  1.00  0.00     0.162 HD
HETATM   13  O   UNL     1     -42.662 -55.093  15.164  1.00  0.00    -0.272 OA
BRANCH  11  14
HETATM   14  C   UNL     1     -44.369 -52.832  14.782  1.00  0.00     0.088 C 
HETATM   15  C   UNL     1     -45.573 -53.319  13.940  1.00  0.00     0.004 C 
HETATM   16  C   UNL     1     -45.647 -52.700  12.538  1.00  0.00     0.012 C 
HETATM   17  C   UNL     1     -46.879 -53.049  14.711  1.00  0.00     0.006 C 
HETATM   18  C   UNL     1     -47.030 -51.585  15.132  1.00  0.00     0.001 C 
HETATM   19  C   UNL     1     -45.814 -51.083  15.904  1.00  0.00     0.002 C 
HETATM   20  C   UNL     1     -44.505 -51.352  15.164  1.00  0.00     0.025 C 
ENDBRANCH  11  14
ENDBRANCH   9  10
ENDBRANCH   1   9
BRANCH   4  21
HETATM   21  C   UNL     1     -40.548 -49.830  11.215  1.00  0.00    -0.030 C 
BRANCH  21  22
HETATM   22  N   UNL     1     -40.829 -49.052  10.264  1.00  0.00    -0.365 N 
ATOM     23  HN2 UNL     1     -40.590 -49.705  11.011  1.00  0.00     0.165 HD
ATOM     24  HN1 UNL     1     -41.057 -48.422   9.494  1.00  0.00     0.165 HD
ENDBRANCH  21  22
ENDBRANCH   4  21
BRANCH   6  25
HETATM   25  C   UNL     1     -38.018 -50.813  15.302  1.00  0.00     0.094 A 
HETATM   26  C   UNL     1     -38.503 -50.068  16.520  1.00  0.00     0.028 A 
HETATM   27  C   UNL     1     -37.717 -49.345  15.471  1.00  0.00     0.028 A 
ENDBRANCH   6  25
TORSDOF 6
ENDMDL
MODEL 6
REMARK VINA RESULT:      -5.9      2.410      4.368
REMARK  6 active torsions:
REMARK  status: ('A' for Active; 'I' for Inactive)
REMARK    1  A    between atoms: C_7  and  N_8 
REMARK       I    between atoms: N_8  and  C_9 
REMARK    2  A    between atoms: C_9  and  C_11 
REMARK    3  A    between atoms: C_11  and  N_12 
REMARK    4  A    between atoms: C_15  and  C_16 
REMARK    5  A    between atoms: C_16  and  N_17 
REMARK    6  A    between atoms: N_21  and  C_22 
ROOT
HETATM    1  N   UNL     1     -40.346 -53.213  13.803  1.00  0.00    -0.256 N 
HETATM    2  C   UNL     1     -39.768 -53.262  15.064  1.00  0.00     0.273 C 
HETATM    3  O   UNL     1     -40.012 -54.130  15.896  1.00  0.00    -0.266 OA
HETATM    4  C   UNL     1     -38.847 -52.151  15.399  1.00  0.00     0.110 C 
HETATM    5  C   UNL     1     -38.627 -51.196  14.490  1.00  0.00     0.123 C 
HETATM    6  N   UNL     1     -39.296 -51.164  13.286  1.00  0.00    -0.303 N 
HETATM    7  C   UNL     1     -40.246 -52.127  12.937  1.00  0.00     0.332 C 
HETATM    8  O   UNL     1     -40.949 -52.040  11.927  1.00  0.00    -0.246 OA
ENDROOT
BRANCH   1   9
HETATM    9  C   UNL     1     -41.251 -54.282  13.397  1.00  0.00     0.239 C 
BRANCH   9  10
HETATM   10  C   UNL     1     -42.548 -54.223  14.216  1.00  0.00     0.236 C 
HETATM   11  N   UNL     1     -43.232 -53.025  14.099  1.00  0.00    -0.355 N 
HETATM   12  H   UNL     1     -43.039 -52.489  13.251  1.00  0.00     0.162 HD
HETATM   13  O   UNL     1     -42.965 -55.178  14.865  1.00  0.00    -0.272 OA
BRANCH  11  14
HETATM   14  C   UNL     1     -44.499 -52.767  14.773  1.00  0.00     0.088 C 
HETATM   15  C   UNL     1     -45.733 -53.198  13.945  1.00  0.00     0.004 C 
HETATM   16  C   UNL     1     -45.821 -52.537  12.564  1.00  0.00     0.012 C 
HETATM   17  C   UNL     1     -47.014 -52.915  14.753  1.00  0.00     0.006 C 
HETATM   18  C   UNL     1     -47.116 -51.461  15.218  1.00  0.00     0.001 C 
HETATM   19  C   UNL     1     -45.870 -51.014  15.976  1.00  0.00     0.002 C 
HETATM   20  C   UNL     1     -44.586 -51.295  15.200  1.00  0.00     0.025 C 
ENDBRANCH  11  14
ENDBRANCH   9  10
ENDBRANCH   1   9
BRANCH   4  21
HETATM   21  C   UNL     1     -38.210 -52.089  16.778  1.00  0.00    -0.030 C 
BRANCH  21  22
HETATM   22  N   UNL     1     -37.682 -52.038  17.921  1.00  0.00    -0.365 N 
ATOM     23  HN2 UNL     1     -38.140 -52.069  17.009  1.00  0.00     0.165 HD
ATOM     24  HN1 UNL     1     -37.254 -51.998  18.846  1.00  0.00     0.165 HD
ENDBRANCH  21  22
ENDBRANCH   4  21
BRANCH   6  25
HETATM   25  C   UNL     1     -38.930 -50.138  12.333  1.00  0.00     0.094 A 
HETATM   26  C   UNL     1     -37.637 -50.167  11.557  1.00  0.00     0.028 A 
HETATM   27  C   UNL     1     -37.845 -49.129  12.615  1.00  0.00     0.028 A 
ENDBRANCH   6  25
TORSDOF 6
ENDMDL
MODEL 7
REMARK VINA RESULT:      -5.8      2.414      7.173
REMARK  6 active torsions:
REMARK  status: ('A' for Active; 'I' for Inactive)
REMARK    1  A    between atoms: C_7  and  N_8 
REMARK       I    between atoms: N_8  and  C_9 
REMARK    2  A    between atoms: C_9  and  C_11 
REMARK    3  A    between atoms: C_11  and  N_12 
REMARK    4  A    between atoms: C_15  and  C_16 
REMARK    5  A    between atoms: C_16  and  N_17 
REMARK    6  A    between atoms: N_21  and  C_22 
ROOT
HETATM    1  N   UNL     1     -42.058 -53.608  13.335  1.00  0.00    -0.256 N 
HETATM    2  C   UNL     1     -41.473 -54.316  14.375  1.00  0.00     0.273 C 
HETATM    3  O   UNL     1     -40.261 -54.393  14.556  1.00  0.00    -0.266 OA
HETATM    4  C   UNL     1     -42.403 -55.049  15.265  1.00  0.00     0.110 C 
HETATM    5  C   UNL     1     -43.717 -54.982  15.026  1.00  0.00     0.123 C 
HETATM    6  N   UNL     1     -44.226 -54.326  13.926  1.00  0.00    -0.303 N 
HETATM    7  C   UNL     1     -43.405 -53.689  12.992  1.00  0.00     0.332 C 
HETATM    8  O   UNL     1     -43.832 -53.216  11.937  1.00  0.00    -0.246 OA
ENDROOT
BRANCH   1   9
HETATM    9  C   UNL     1     -41.204 -52.850  12.428  1.00  0.00     0.239 C 
BRANCH   9  10
HETATM   10  C   UNL     1     -40.899 -51.464  13.015  1.00  0.00     0.236 C 
HETATM   11  N   UNL     1     -39.621 -51.342  13.531  1.00  0.00    -0.355 N 
HETATM   12  H   UNL     1     -38.929 -51.993  13.155  1.00  0.00     0.162 HD
HETATM   13  O   UNL     1     -41.701 -50.536  12.971  1.00  0.00    -0.272 OA
BRANCH  11  14
HETATM   14  C   UNL     1     -39.117 -50.104  14.114  1.00  0.00     0.088 C 
HETATM   15  C   UNL     1     -38.745 -49.035  13.058  1.00  0.00     0.004 C 
HETATM   16  C   UNL     1     -37.701 -49.504  12.036  1.00  0.00     0.012 C 
HETATM   17  C   UNL     1     -38.256 -47.761  13.772  1.00  0.00     0.006 C 
HETATM   18  C   UNL     1     -37.106 -48.026  14.745  1.00  0.00     0.001 C 
HETATM   19  C   UNL     1     -37.446 -49.128  15.745  1.00  0.00     0.002 C 
HETATM   20  C   UNL     1     -37.945 -50.399  15.061  1.00  0.00     0.025 C 
ENDBRANCH  11  14
ENDBRANCH   9  10
ENDBRANCH   1   9
BRANCH   4  21
HETATM   21  C   UNL     1     -41.852 -55.898  16.399  1.00  0.00    -0.030 C 
BRANCH  21  22
HETATM   22  N   UNL     1     -41.394 -56.602  17.339  1.00  0.00    -0.365 N 
ATOM     23  HN2 UNL     1     -41.767 -56.060  16.559  1.00  0.00     0.165 HD
ATOM     24  HN1 UNL     1     -41.023 -57.172  18.100  1.00  0.00     0.165 HD
ENDBRANCH  21  22
ENDBRANCH   4  21
BRANCH   6  25
HETATM   25  C   UNL     1     -45.665 -54.237  13.796  1.00  0.00     0.094 A 
HETATM   26  C   UNL     1     -46.469 -53.097  14.369  1.00  0.00     0.028 A 
HETATM   27  C   UNL     1     -46.594 -54.465  14.962  1.00  0.00     0.028 A 
ENDBRANCH   6  25
TORSDOF 6
ENDMDL
MODEL 8
REMARK VINA RESULT:      -5.7      2.015      2.406
REMARK  6 active torsions:
REMARK  status: ('A' for Active; 'I' for Inactive)
REMARK    1  A    between atoms: C_7  and  N_8 
REMARK       I    between atoms: N_8  and  C_9 
REMARK    2  A    between atoms: C_9  and  C_11 
REMARK    3  A    between atoms: C_11  and  N_12 
REMARK    4  A    between atoms: C_15  and  C_16 
REMARK    5  A    between atoms: C_16  and  N_17 
REMARK    6  A    between atoms: N_21  and  C_22 
ROOT
HETATM    1  N   UNL     1     -39.913 -50.818  14.397  1.00  0.00    -0.256 N 
HETATM    2  C   UNL     1     -39.128 -51.018  13.270  1.00  0.00     0.273 C 
HETATM    3  O   UNL     1     -38.725 -52.117  12.902  1.00  0.00    -0.266 OA
HETATM    4  C   UNL     1     -38.737 -49.798  12.527  1.00  0.00     0.110 C 
HETATM    5  C   UNL     1     -39.156 -48.608  12.969  1.00  0.00     0.123 C 
HETATM    6  N   UNL     1     -39.866 -48.473  14.142  1.00  0.00    -0.303 N 
HETATM    7  C   UNL     1     -40.194 -49.569  14.945  1.00  0.00     0.332 C 
HETATM    8  O   UNL     1     -40.708 -49.454  16.059  1.00  0.00    -0.246 OA
ENDROOT
BRANCH   1   9
HETATM    9  C   UNL     1     -40.349 -51.975  15.170  1.00  0.00     0.239 C 
BRANCH   9  10
HETATM   10  C   UNL     1     -41.687 -52.503  14.632  1.00  0.00     0.236 C 
HETATM   11  N   UNL     1     -42.796 -51.877  15.174  1.00  0.00    -0.355 N 
HETATM   12  H   UNL     1     -42.634 -50.939  15.548  1.00  0.00     0.162 HD
HETATM   13  O   UNL     1     -41.756 -53.361  13.758  1.00  0.00    -0.272 OA
BRANCH  11  14
HETATM   14  C   UNL     1     -44.162 -52.207  14.784  1.00  0.00     0.088 C 
HETATM   15  C   UNL     1     -45.147 -51.024  14.936  1.00  0.00     0.004 C 
HETATM   16  C   UNL     1     -45.216 -50.446  16.356  1.00  0.00     0.012 C 
HETATM   17  C   UNL     1     -46.548 -51.463  14.471  1.00  0.00     0.006 C 
HETATM   18  C   UNL     1     -47.048 -52.718  15.189  1.00  0.00     0.001 C 
HETATM   19  C   UNL     1     -46.047 -53.866  15.099  1.00  0.00     0.002 C 
HETATM   20  C   UNL     1     -44.646 -53.451  15.543  1.00  0.00     0.025 C 
ENDBRANCH  11  14
ENDBRANCH   9  10
ENDBRANCH   1   9
BRANCH   4  21
HETATM   21  C   UNL     1     -37.833 -49.913  11.311  1.00  0.00    -0.030 C 
BRANCH  21  22
HETATM   22  N   UNL     1     -37.083 -50.008  10.302  1.00  0.00    -0.365 N 
ATOM     23  HN2 UNL     1     -37.694 -49.897  11.112  1.00  0.00     0.165 HD
ATOM     24  HN1 UNL     1     -36.475 -50.086   9.486  1.00  0.00     0.165 HD
ENDBRANCH  21  22
ENDBRANCH   4  21
BRANCH   6  25
HETATM   25  C   UNL     1     -40.348 -47.155  14.495  1.00  0.00     0.094 A 
HETATM   26  C   UNL     1     -41.575 -46.539  13.873  1.00  0.00     0.028 A 
HETATM   27  C   UNL     1     -40.224 -45.976  13.563  1.00  0.00     0.028 A 
ENDBRANCH   6  25
TORSDOF 6
ENDMDL
MODEL 9
REMARK VINA RESULT:      -5.7      2.150      4.109
REMARK  6 active torsions:
REMARK  status: ('A' for Active; 'I' for Inactive)
REMARK    1  A    between atoms: C_7  and  N_8 
REMARK       I    between atoms: N_8  and  C_9 
REMARK    2  A    between atoms: C_9  and  C_11 
REMARK    3  A    between atoms: C_11  and  N_12 
REMARK    4  A    between atoms: C_15  and  C_16 
REMARK    5  A    between atoms: C_16  and  N_17 
REMARK    6  A    between atoms: N_21  and  C_22 
ROOT
HETATM    1  N   UNL     1     -39.864 -49.347  12.392  1.00  0.00    -0.256 N 
HETATM    2  C   UNL     1     -39.962 -47.967  12.502  1.00  0.00     0.273 C 
HETATM    3  O   UNL     1     -40.736 -47.281  11.843  1.00  0.00    -0.266 OA
HETATM    4  C   UNL     1     -39.022 -47.323  13.449  1.00  0.00     0.110 C 
HETATM    5  C   UNL     1     -38.162 -48.088  14.129  1.00  0.00     0.123 C 
HETATM    6  N   UNL     1     -38.061 -49.445  13.911  1.00  0.00    -0.303 N 
HETATM    7  C   UNL     1     -38.851 -50.109  12.969  1.00  0.00     0.332 C 
HETATM    8  O   UNL     1     -38.681 -51.292  12.667  1.00  0.00    -0.246 OA
ENDROOT
BRANCH   1   9
HETATM    9  C   UNL     1     -40.768 -50.051  11.491  1.00  0.00     0.239 C 
BRANCH   9  10
HETATM   10  C   UNL     1     -41.991 -50.571  12.260  1.00  0.00     0.236 C 
HETATM   11  N   UNL     1     -41.908 -51.907  12.612  1.00  0.00    -0.355 N 
HETATM   12  H   UNL     1     -40.961 -52.288  12.673  1.00  0.00     0.162 HD
HETATM   13  O   UNL     1     -42.928 -49.845  12.581  1.00  0.00    -0.272 OA
BRANCH  11  14
HETATM   14  C   UNL     1     -42.949 -52.594  13.366  1.00  0.00     0.088 C 
HETATM   15  C   UNL     1     -42.402 -53.414  14.559  1.00  0.00     0.004 C 
HETATM   16  C   UNL     1     -41.365 -54.473  14.166  1.00  0.00     0.012 C 
HETATM   17  C   UNL     1     -43.577 -54.071  15.308  1.00  0.00     0.006 C 
HETATM   18  C   UNL     1     -44.468 -54.915  14.395  1.00  0.00     0.001 C 
HETATM   19  C   UNL     1     -44.953 -54.127  13.182  1.00  0.00     0.002 C 
HETATM   20  C   UNL     1     -43.807 -53.455  12.430  1.00  0.00     0.025 C 
ENDBRANCH  11  14
ENDBRANCH   9  10
ENDBRANCH   1   9
BRANCH   4  21
HETATM   21  C   UNL     1     -39.018 -45.810  13.597  1.00  0.00    -0.030 C 
BRANCH  21  22
HETATM   22  N   UNL     1     -39.014 -44.556  13.719  1.00  0.00    -0.365 N 
ATOM     23  HN2 UNL     1     -39.042 -45.569  13.596  1.00  0.00     0.165 HD
ATOM     24  HN1 UNL     1     -39.010 -43.540  13.819  1.00  0.00     0.165 HD
ENDBRANCH  21  22
ENDBRANCH   4  21
BRANCH   6  25
HETATM   25  C   UNL     1     -37.159 -50.201  14.753  1.00  0.00     0.094 A 
HETATM   26  C   UNL     1     -37.517 -50.637  16.152  1.00  0.00     0.028 A 
HETATM   27  C   UNL     1     -36.468 -49.590  15.946  1.00  0.00     0.028 A 
ENDBRANCH   6  25
TORSDOF 6
ENDMDL
