MODEL 1
REMARK VINA RESULT:      -6.2      0.000      0.000
REMARK  4 active torsions:
REMARK  status: ('A' for Active; 'I' for Inactive)
REMARK       I    between atoms: C_2  and  N_3 
REMARK       I    between atoms: C_2  and  N_13 
REMARK    1  A    between atoms: N_3  and  C_4 
REMARK    2  A    between atoms: C_4  and  C_5 
REMARK    3  A    between atoms: C_5  and  C_6 
REMARK    4  A    between atoms: N_13  and  C_14 
ROOT
HETATM    1  O   UNL     1     -40.777 -52.143  12.105  1.00  0.00    -0.247 OA
HETATM    2  C   UNL     1     -41.853 -51.564  12.117  1.00  0.00     0.316 C 
HETATM    3  N   UNL     1     -42.042 -50.259  11.729  1.00  0.00    -0.343 N 
HETATM    4  N   UNL     1     -43.046 -52.133  12.493  1.00  0.00    -0.339 N 
HETATM    5  H   UNL     1     -42.963 -50.088  11.355  1.00  0.00     0.164 HD
HETATM    6  H   UNL     1     -43.739 -51.483  12.829  1.00  0.00     0.164 HD
ENDROOT
BRANCH   3   7
HETATM    7  C   UNL     1     -40.951 -49.503  11.124  1.00  0.00     0.130 C 
BRANCH   7   8
HETATM    8  C   UNL     1     -41.330 -48.036  10.943  1.00  0.00     0.076 C 
BRANCH   8   9
HETATM    9  C   UNL     1     -42.561 -47.841  10.099  1.00  0.00     0.010 A 
HETATM   10  C   UNL     1     -43.784 -47.526  10.688  1.00  0.00     0.025 A 
HETATM   11  C   UNL     1     -44.911 -47.407   9.878  1.00  0.00     0.003 A 
HETATM   12  C   UNL     1     -44.789 -47.598   8.508  1.00  0.00     0.017 A 
HETATM   13  C   UNL     1     -43.536 -47.895   8.001  1.00  0.00     0.088 A 
HETATM   14  N   UNL     1     -42.425 -48.019   8.762  1.00  0.00    -0.369 N 
ATOM     15  HN  UNL     1     -41.521 -48.239   8.347  1.00  0.00     0.165 HD
ENDBRANCH   8   9
ENDBRANCH   7   8
ENDBRANCH   3   7
BRANCH   4  16
HETATM   16  C   UNL     1     -43.131 -53.496  12.978  1.00  0.00     0.086 C 
HETATM   17  C   UNL     1     -44.554 -54.053  12.876  1.00  0.00     0.025 C 
HETATM   18  C   UNL     1     -44.735 -54.998  14.065  1.00  0.00     0.002 C 
HETATM   19  C   UNL     1     -43.423 -54.961  14.840  1.00  0.00     0.002 C 
HETATM   20  C   UNL     1     -42.797 -53.626  14.463  1.00  0.00     0.025 C 
ENDBRANCH   4  16
TORSDOF 4
ENDMDL
MODEL 2
REMARK VINA RESULT:      -6.1      4.371      4.895
REMARK  4 active torsions:
REMARK  status: ('A' for Active; 'I' for Inactive)
REMARK       I    between atoms: C_2  and  N_3 
REMARK       I    between atoms: C_2  and  N_13 
REMARK    1  A    between atoms: N_3  and  C_4 
REMARK    2  A    between atoms: C_4  and  C_5 
REMARK    3  A    between atoms: C_5  and  C_6 
REMARK    4  A    between atoms: N_13  and  C_14 
ROOT
HETATM    1  O   UNL     1     -42.093 -48.743  11.198  1.00  0.00    -0.247 OA
HETATM    2  C   UNL     1     -41.226 -47.934  10.906  1.00  0.00     0.316 C 
HETATM    3  N   UNL     1     -41.449 -46.759  10.228  1.00  0.00    -0.343 N 
HETATM    4  N   UNL     1     -39.897 -48.056  11.234  1.00  0.00    -0.339 N 
HETATM    5  H   UNL     1     -40.795 -46.031  10.473  1.00  0.00     0.164 HD
HETATM    6  H   UNL     1     -39.263 -47.565  10.624  1.00  0.00     0.164 HD
ENDROOT
BRANCH   3   7
HETATM    7  C   UNL     1     -42.810 -46.326   9.929  1.00  0.00     0.130 C 
BRANCH   7   8
HETATM    8  C   UNL     1     -43.189 -46.654   8.487  1.00  0.00     0.076 C 
BRANCH   8   9
HETATM    9  C   UNL     1     -44.469 -47.438   8.373  1.00  0.00     0.010 A 
HETATM   10  C   UNL     1     -45.436 -47.367   9.373  1.00  0.00     0.025 A 
HETATM   11  C   UNL     1     -46.583 -48.148   9.258  1.00  0.00     0.003 A 
HETATM   12  C   UNL     1     -46.738 -48.972   8.150  1.00  0.00     0.017 A 
HETATM   13  C   UNL     1     -45.736 -48.974   7.195  1.00  0.00     0.088 A 
HETATM   14  N   UNL     1     -44.611 -48.229   7.282  1.00  0.00    -0.369 N 
ATOM     15  HN  UNL     1     -43.898 -48.260   6.555  1.00  0.00     0.165 HD
ENDBRANCH   8   9
ENDBRANCH   7   8
ENDBRANCH   3   7
BRANCH   4  16
HETATM   16  C   UNL     1     -39.378 -49.218  11.926  1.00  0.00     0.086 C 
HETATM   17  C   UNL     1     -38.980 -48.895  13.369  1.00  0.00     0.025 C 
HETATM   18  C   UNL     1     -37.776 -49.780  13.695  1.00  0.00     0.002 C 
HETATM   19  C   UNL     1     -37.489 -50.587  12.434  1.00  0.00     0.002 C 
HETATM   20  C   UNL     1     -38.089 -49.758  11.308  1.00  0.00     0.025 C 
ENDBRANCH   4  16
TORSDOF 4
ENDMDL
MODEL 3
REMARK VINA RESULT:      -5.8      2.175      6.534
REMARK  4 active torsions:
REMARK  status: ('A' for Active; 'I' for Inactive)
REMARK       I    between atoms: C_2  and  N_3 
REMARK       I    between atoms: C_2  and  N_13 
REMARK    1  A    between atoms: N_3  and  C_4 
REMARK    2  A    between atoms: C_4  and  C_5 
REMARK    3  A    between atoms: C_5  and  C_6 
REMARK    4  A    between atoms: N_13  and  C_14 
ROOT
HETATM    1  O   UNL     1     -43.158 -48.777  12.876  1.00  0.00    -0.247 OA
HETATM    2  C   UNL     1     -42.649 -49.178  11.841  1.00  0.00     0.316 C 
HETATM    3  N   UNL     1     -41.875 -50.310  11.737  1.00  0.00    -0.343 N 
HETATM    4  N   UNL     1     -42.791 -48.577  10.613  1.00  0.00    -0.339 N 
HETATM    5  H   UNL     1     -41.934 -50.746  10.830  1.00  0.00     0.164 HD
HETATM    6  H   UNL     1     -42.041 -48.756   9.964  1.00  0.00     0.164 HD
ENDROOT
BRANCH   3   7
HETATM    7  C   UNL     1     -41.729 -51.210  12.876  1.00  0.00     0.130 C 
BRANCH   7   8
HETATM    8  C   UNL     1     -42.666 -52.408  12.755  1.00  0.00     0.076 C 
BRANCH   8   9
HETATM    9  C   UNL     1     -44.052 -52.131  13.274  1.00  0.00     0.010 A 
HETATM   10  C   UNL     1     -45.173 -52.585  12.584  1.00  0.00     0.025 A 
HETATM   11  C   UNL     1     -46.439 -52.263  13.068  1.00  0.00     0.003 A 
HETATM   12  C   UNL     1     -46.553 -51.505  14.226  1.00  0.00     0.017 A 
HETATM   13  C   UNL     1     -45.390 -51.104  14.859  1.00  0.00     0.088 A 
HETATM   14  N   UNL     1     -44.148 -51.400  14.411  1.00  0.00    -0.369 N 
ATOM     15  HN  UNL     1     -43.317 -51.085  14.910  1.00  0.00     0.165 HD
ENDBRANCH   8   9
ENDBRANCH   7   8
ENDBRANCH   3   7
BRANCH   4  16
HETATM   16  C   UNL     1     -43.534 -47.345  10.439  1.00  0.00     0.086 C 
HETATM   17  C   UNL     1     -44.904 -47.588   9.799  1.00  0.00     0.025 C 
HETATM   18  C   UNL     1     -45.199 -46.362   8.932  1.00  0.00     0.002 C 
HETATM   19  C   UNL     1     -43.993 -45.442   9.074  1.00  0.00     0.002 C 
HETATM   20  C   UNL     1     -42.856 -46.366   9.483  1.00  0.00     0.025 C 
ENDBRANCH   4  16
TORSDOF 4
ENDMDL
MODEL 4
REMARK VINA RESULT:      -5.8      1.544      6.735
REMARK  4 active torsions:
REMARK  status: ('A' for Active; 'I' for Inactive)
REMARK       I    between atoms: C_2  and  N_3 
REMARK       I    between atoms: C_2  and  N_13 
REMARK    1  A    between atoms: N_3  and  C_4 
REMARK    2  A    between atoms: C_4  and  C_5 
REMARK    3  A    between atoms: C_5  and  C_6 
REMARK    4  A    between atoms: N_13  and  C_14 
ROOT
HETATM    1  O   UNL     1     -41.751 -49.211  12.868  1.00  0.00    -0.247 OA
HETATM    2  C   UNL     1     -41.519 -49.596  11.732  1.00  0.00     0.316 C 
HETATM    3  N   UNL     1     -40.816 -50.736  11.422  1.00  0.00    -0.343 N 
HETATM    4  N   UNL     1     -41.947 -48.967  10.588  1.00  0.00    -0.339 N 
HETATM    5  H   UNL     1     -41.103 -51.152  10.549  1.00  0.00     0.164 HD
HETATM    6  H   UNL     1     -41.383 -49.142   9.771  1.00  0.00     0.164 HD
ENDROOT
BRANCH   3   7
HETATM    7  C   UNL     1     -40.411 -51.663  12.473  1.00  0.00     0.130 C 
BRANCH   7   8
HETATM    8  C   UNL     1     -40.846 -53.090  12.147  1.00  0.00     0.076 C 
BRANCH   8   9
HETATM    9  C   UNL     1     -42.196 -53.442  12.712  1.00  0.00     0.010 A 
HETATM   10  C   UNL     1     -42.304 -54.198  13.877  1.00  0.00     0.025 A 
HETATM   11  C   UNL     1     -43.570 -54.549  14.338  1.00  0.00     0.003 A 
HETATM   12  C   UNL     1     -44.692 -54.133  13.632  1.00  0.00     0.017 A 
HETATM   13  C   UNL     1     -44.499 -53.373  12.492  1.00  0.00     0.088 A 
HETATM   14  N   UNL     1     -43.282 -53.020  12.019  1.00  0.00    -0.369 N 
ATOM     15  HN  UNL     1     -43.185 -52.458  11.174  1.00  0.00     0.165 HD
ENDBRANCH   8   9
ENDBRANCH   7   8
ENDBRANCH   3   7
BRANCH   4  16
HETATM   16  C   UNL     1     -42.687 -47.721  10.624  1.00  0.00     0.086 C 
HETATM   17  C   UNL     1     -43.571 -47.545   9.386  1.00  0.00     0.025 C 
HETATM   18  C   UNL     1     -43.601 -46.044   9.087  1.00  0.00     0.002 C 
HETATM   19  C   UNL     1     -42.725 -45.384  10.145  1.00  0.00     0.002 C 
HETATM   20  C   UNL     1     -41.786 -46.488  10.605  1.00  0.00     0.025 C 
ENDBRANCH   4  16
TORSDOF 4
ENDMDL
MODEL 5
REMARK VINA RESULT:      -5.7      2.060      6.369
REMARK  4 active torsions:
REMARK  status: ('A' for Active; 'I' for Inactive)
REMARK       I    between atoms: C_2  and  N_3 
REMARK       I    between atoms: C_2  and  N_13 
REMARK    1  A    between atoms: N_3  and  C_4 
REMARK    2  A    between atoms: C_4  and  C_5 
REMARK    3  A    between atoms: C_5  and  C_6 
REMARK    4  A    between atoms: N_13  and  C_14 
ROOT
HETATM    1  O   UNL     1     -41.842 -50.859  13.579  1.00  0.00    -0.247 OA
HETATM    2  C   UNL     1     -41.905 -51.051  12.374  1.00  0.00     0.316 C 
HETATM    3  N   UNL     1     -42.152 -52.271  11.789  1.00  0.00    -0.343 N 
HETATM    4  N   UNL     1     -41.766 -50.077  11.416  1.00  0.00    -0.339 N 
HETATM    5  H   UNL     1     -42.624 -52.194  10.902  1.00  0.00     0.164 HD
HETATM    6  H   UNL     1     -41.449 -50.407  10.518  1.00  0.00     0.164 HD
ENDROOT
BRANCH   3   7
HETATM    7  C   UNL     1     -42.508 -53.424  12.610  1.00  0.00     0.130 C 
BRANCH   7   8
HETATM    8  C   UNL     1     -44.005 -53.715  12.531  1.00  0.00     0.076 C 
BRANCH   8   9
HETATM    9  C   UNL     1     -44.824 -52.864  13.464  1.00  0.00     0.010 A 
HETATM   10  C   UNL     1     -46.021 -52.293  13.037  1.00  0.00     0.025 A 
HETATM   11  C   UNL     1     -46.724 -51.468  13.912  1.00  0.00     0.003 A 
HETATM   12  C   UNL     1     -46.220 -51.239  15.186  1.00  0.00     0.017 A 
HETATM   13  C   UNL     1     -45.030 -51.854  15.536  1.00  0.00     0.088 A 
HETATM   14  N   UNL     1     -44.326 -52.658  14.707  1.00  0.00    -0.369 N 
ATOM     15  HN  UNL     1     -43.454 -53.093  15.006  1.00  0.00     0.165 HD
ENDBRANCH   8   9
ENDBRANCH   7   8
ENDBRANCH   3   7
BRANCH   4  16
HETATM   16  C   UNL     1     -41.467 -48.700  11.755  1.00  0.00     0.086 C 
HETATM   17  C   UNL     1     -42.010 -47.722  10.709  1.00  0.00     0.025 C 
HETATM   18  C   UNL     1     -41.020 -46.557  10.651  1.00  0.00     0.002 C 
HETATM   19  C   UNL     1     -39.918 -46.887  11.650  1.00  0.00     0.002 C 
HETATM   20  C   UNL     1     -39.969 -48.401  11.786  1.00  0.00     0.025 C 
ENDBRANCH   4  16
TORSDOF 4
ENDMDL
MODEL 6
REMARK VINA RESULT:      -5.5      2.073      3.147
REMARK  4 active torsions:
REMARK  status: ('A' for Active; 'I' for Inactive)
REMARK       I    between atoms: C_2  and  N_3 
REMARK       I    between atoms: C_2  and  N_13 
REMARK    1  A    between atoms: N_3  and  C_4 
REMARK    2  A    between atoms: C_4  and  C_5 
REMARK    3  A    between atoms: C_5  and  C_6 
REMARK    4  A    between atoms: N_13  and  C_14 
ROOT
HETATM    1  O   UNL     1     -42.252 -50.485  13.496  1.00  0.00    -0.247 OA
HETATM    2  C   UNL     1     -42.166 -51.137  12.467  1.00  0.00     0.316 C 
HETATM    3  N   UNL     1     -41.452 -50.754  11.356  1.00  0.00    -0.343 N 
HETATM    4  N   UNL     1     -42.744 -52.367  12.267  1.00  0.00    -0.339 N 
HETATM    5  H   UNL     1     -41.095 -51.535  10.827  1.00  0.00     0.164 HD
HETATM    6  H   UNL     1     -42.930 -52.597  11.303  1.00  0.00     0.164 HD
ENDROOT
BRANCH   3   7
HETATM    7  C   UNL     1     -40.607 -49.564  11.396  1.00  0.00     0.130 C 
BRANCH   7   8
HETATM    8  C   UNL     1     -41.331 -48.355  10.809  1.00  0.00     0.076 C 
BRANCH   8   9
HETATM    9  C   UNL     1     -40.669 -47.046  11.148  1.00  0.00     0.010 A 
HETATM   10  C   UNL     1     -40.311 -46.751  12.461  1.00  0.00     0.025 A 
HETATM   11  C   UNL     1     -39.749 -45.508  12.744  1.00  0.00     0.003 A 
HETATM   12  C   UNL     1     -39.555 -44.597  11.713  1.00  0.00     0.017 A 
HETATM   13  C   UNL     1     -39.926 -44.974  10.433  1.00  0.00     0.088 A 
HETATM   14  N   UNL     1     -40.475 -46.172  10.131  1.00  0.00    -0.369 N 
ATOM     15  HN  UNL     1     -40.734 -46.409   9.173  1.00  0.00     0.165 HD
ENDBRANCH   8   9
ENDBRANCH   7   8
ENDBRANCH   3   7
BRANCH   4  16
HETATM   16  C   UNL     1     -43.582 -52.997  13.268  1.00  0.00     0.086 C 
HETATM   17  C   UNL     1     -42.776 -53.912  14.195  1.00  0.00     0.025 C 
HETATM   18  C   UNL     1     -43.702 -55.071  14.569  1.00  0.00     0.002 C 
HETATM   19  C   UNL     1     -45.017 -54.815  13.843  1.00  0.00     0.002 C 
HETATM   20  C   UNL     1     -44.636 -53.926  12.669  1.00  0.00     0.025 C 
ENDBRANCH   4  16
TORSDOF 4
ENDMDL
MODEL 7
REMARK VINA RESULT:      -5.5      3.182      6.380
REMARK  4 active torsions:
REMARK  status: ('A' for Active; 'I' for Inactive)
REMARK       I    between atoms: C_2  and  N_3 
REMARK       I    between atoms: C_2  and  N_13 
REMARK    1  A    between atoms: N_3  and  C_4 
REMARK    2  A    between atoms: C_4  and  C_5 
REMARK    3  A    between atoms: C_5  and  C_6 
REMARK    4  A    between atoms: N_13  and  C_14 
ROOT
HETATM    1  O   UNL     1     -40.948 -51.457  13.391  1.00  0.00    -0.247 OA
HETATM    2  C   UNL     1     -41.283 -51.549  12.220  1.00  0.00     0.316 C 
HETATM    3  N   UNL     1     -42.198 -52.456  11.738  1.00  0.00    -0.343 N 
HETATM    4  N   UNL     1     -40.821 -50.746  11.206  1.00  0.00    -0.339 N 
HETATM    5  H   UNL     1     -42.697 -52.121  10.929  1.00  0.00     0.164 HD
HETATM    6  H   UNL     1     -40.857 -51.159  10.287  1.00  0.00     0.164 HD
ENDROOT
BRANCH   3   7
HETATM    7  C   UNL     1     -42.955 -53.299  12.658  1.00  0.00     0.130 C 
BRANCH   7   8
HETATM    8  C   UNL     1     -44.415 -53.412  12.225  1.00  0.00     0.076 C 
BRANCH   8   9
HETATM    9  C   UNL     1     -45.383 -52.951  13.282  1.00  0.00     0.010 A 
HETATM   10  C   UNL     1     -45.446 -51.610  13.652  1.00  0.00     0.025 A 
HETATM   11  C   UNL     1     -46.316 -51.231  14.670  1.00  0.00     0.003 A 
HETATM   12  C   UNL     1     -47.104 -52.195  15.288  1.00  0.00     0.017 A 
HETATM   13  C   UNL     1     -46.991 -53.504  14.852  1.00  0.00     0.088 A 
HETATM   14  N   UNL     1     -46.153 -53.900  13.867  1.00  0.00    -0.369 N 
ATOM     15  HN  UNL     1     -46.103 -54.876  13.577  1.00  0.00     0.165 HD
ENDBRANCH   8   9
ENDBRANCH   7   8
ENDBRANCH   3   7
BRANCH   4  16
HETATM   16  C   UNL     1     -39.821 -49.721  11.428  1.00  0.00     0.086 C 
HETATM   17  C   UNL     1     -38.497 -50.310  11.923  1.00  0.00     0.025 C 
HETATM   18  C   UNL     1     -37.891 -49.274  12.871  1.00  0.00     0.002 C 
HETATM   19  C   UNL     1     -38.877 -48.113  12.919  1.00  0.00     0.002 C 
HETATM   20  C   UNL     1     -40.211 -48.732  12.526  1.00  0.00     0.025 C 
ENDBRANCH   4  16
TORSDOF 4
ENDMDL
MODEL 8
REMARK VINA RESULT:      -5.4      2.454      4.040
REMARK  4 active torsions:
REMARK  status: ('A' for Active; 'I' for Inactive)
REMARK       I    between atoms: C_2  and  N_3 
REMARK       I    between atoms: C_2  and  N_13 
REMARK    1  A    between atoms: N_3  and  C_4 
REMARK    2  A    between atoms: C_4  and  C_5 
REMARK    3  A    between atoms: C_5  and  C_6 
REMARK    4  A    between atoms: N_13  and  C_14 
ROOT
HETATM    1  O   UNL     1     -42.743 -50.554  14.062  1.00  0.00    -0.247 OA
HETATM    2  C   UNL     1     -43.540 -50.522  13.136  1.00  0.00     0.316 C 
HETATM    3  N   UNL     1     -43.578 -49.543  12.171  1.00  0.00    -0.343 N 
HETATM    4  N   UNL     1     -44.504 -51.471  12.898  1.00  0.00    -0.339 N 
HETATM    5  H   UNL     1     -43.922 -49.876  11.284  1.00  0.00     0.164 HD
HETATM    6  H   UNL     1     -45.305 -51.143  12.382  1.00  0.00     0.164 HD
ENDROOT
BRANCH   3   7
HETATM    7  C   UNL     1     -42.538 -48.521  12.115  1.00  0.00     0.130 C 
BRANCH   7   8
HETATM    8  C   UNL     1     -41.473 -48.875  11.080  1.00  0.00     0.076 C 
BRANCH   8   9
HETATM    9  C   UNL     1     -40.119 -49.129  11.685  1.00  0.00     0.010 A 
HETATM   10  C   UNL     1     -39.808 -48.650  12.956  1.00  0.00     0.025 A 
HETATM   11  C   UNL     1     -38.526 -48.858  13.460  1.00  0.00     0.003 A 
HETATM   12  C   UNL     1     -37.593 -49.541  12.690  1.00  0.00     0.017 A 
HETATM   13  C   UNL     1     -37.987 -49.995  11.443  1.00  0.00     0.088 A 
HETATM   14  N   UNL     1     -39.222 -49.805  10.927  1.00  0.00    -0.369 N 
ATOM     15  HN  UNL     1     -39.470 -50.158  10.003  1.00  0.00     0.165 HD
ENDBRANCH   8   9
ENDBRANCH   7   8
ENDBRANCH   3   7
BRANCH   4  16
HETATM   16  C   UNL     1     -44.707 -52.602  13.780  1.00  0.00     0.086 C 
HETATM   17  C   UNL     1     -44.334 -53.927  13.109  1.00  0.00     0.025 C 
HETATM   18  C   UNL     1     -45.292 -54.980  13.669  1.00  0.00     0.002 C 
HETATM   19  C   UNL     1     -46.209 -54.246  14.640  1.00  0.00     0.002 C 
HETATM   20  C   UNL     1     -46.169 -52.797  14.179  1.00  0.00     0.025 C 
ENDBRANCH   4  16
TORSDOF 4
ENDMDL
MODEL 9
REMARK VINA RESULT:      -5.3      2.529      4.114
REMARK  4 active torsions:
REMARK  status: ('A' for Active; 'I' for Inactive)
REMARK       I    between atoms: C_2  and  N_3 
REMARK       I    between atoms: C_2  and  N_13 
REMARK    1  A    between atoms: N_3  and  C_4 
REMARK    2  A    between atoms: C_4  and  C_5 
REMARK    3  A    between atoms: C_5  and  C_6 
REMARK    4  A    between atoms: N_13  and  C_14 
ROOT
HETATM    1  O   UNL     1     -40.636 -52.536  12.009  1.00  0.00    -0.247 OA
HETATM    2  C   UNL     1     -41.629 -51.826  12.055  1.00  0.00     0.316 C 
HETATM    3  N   UNL     1     -41.655 -50.495  11.711  1.00  0.00    -0.343 N 
HETATM    4  N   UNL     1     -42.880 -52.250  12.432  1.00  0.00    -0.339 N 
HETATM    5  H   UNL     1     -42.550 -50.197  11.356  1.00  0.00     0.164 HD
HETATM    6  H   UNL     1     -43.480 -51.529  12.799  1.00  0.00     0.164 HD
ENDROOT
BRANCH   3   7
HETATM    7  C   UNL     1     -40.483 -49.865  11.111  1.00  0.00     0.130 C 
BRANCH   7   8
HETATM    8  C   UNL     1     -40.451 -48.368  11.406  1.00  0.00     0.076 C 
BRANCH   8   9
HETATM    9  C   UNL     1     -39.516 -48.004  12.528  1.00  0.00     0.010 A 
HETATM   10  C   UNL     1     -39.523 -46.721  13.071  1.00  0.00     0.025 A 
HETATM   11  C   UNL     1     -38.606 -46.408  14.072  1.00  0.00     0.003 A 
HETATM   12  C   UNL     1     -37.713 -47.379  14.507  1.00  0.00     0.017 A 
HETATM   13  C   UNL     1     -37.781 -48.633  13.925  1.00  0.00     0.088 A 
HETATM   14  N   UNL     1     -38.658 -48.965  12.950  1.00  0.00    -0.369 N 
ATOM     15  HN  UNL     1     -38.674 -49.902  12.549  1.00  0.00     0.165 HD
ENDBRANCH   8   9
ENDBRANCH   7   8
ENDBRANCH   3   7
BRANCH   4  16
HETATM   16  C   UNL     1     -43.133 -53.606  12.877  1.00  0.00     0.086 C 
HETATM   17  C   UNL     1     -44.616 -53.974  12.781  1.00  0.00     0.025 C 
HETATM   18  C   UNL     1     -44.902 -54.926  13.943  1.00  0.00     0.002 C 
HETATM   19  C   UNL     1     -43.587 -55.081  14.698  1.00  0.00     0.002 C 
HETATM   20  C   UNL     1     -42.800 -53.826  14.351  1.00  0.00     0.025 C 
ENDBRANCH   4  16
TORSDOF 4
ENDMDL
