MODEL 1
REMARK VINA RESULT:      -6.3      0.000      0.000
REMARK  6 active torsions:
REMARK  status: ('A' for Active; 'I' for Inactive)
REMARK    1  A    between atoms: N9_1  and  C1*_2 
REMARK    2  A    between atoms: C2*_7  and  O2*_18 
REMARK    3  A    between atoms: C3*_10  and  O3*_20 
REMARK    4  A    between atoms: C4*_11  and  C5*_21 
REMARK    5  A    between atoms: C6_12  and  N6_19 
REMARK    6  A    between atoms: C5*_21  and  O5*_22 
ROOT
ATOM      1  N9    A A   1     -42.249 -48.099  11.188  1.00  0.00    -0.297 N 
ATOM      2  C4    A A   1     -42.423 -49.299  11.826  1.00  0.00     0.142 A 
ATOM      3  C5    A A   1     -41.201 -49.947  11.700  1.00  0.00     0.116 A 
ATOM      4  N7    A A   1     -40.328 -49.213  10.927  1.00  0.00    -0.346 N 
ATOM      5  H7    A A   1     -39.366 -49.443  10.681  1.00  0.00     0.167 HD
ATOM      6  C8    A A   1     -41.016 -48.149  10.578  1.00  0.00     0.188 C 
ATOM      7  C6    A A   1     -41.065 -51.188  12.337  1.00  0.00     0.109 A 
ATOM      8  N3    A A   1     -43.508 -49.769  12.458  1.00  0.00    -0.336 N 
ATOM      9  H3    A A   1     -44.390 -49.263  12.540  1.00  0.00     0.168 HD
ATOM     10  N1    A A   1     -42.141 -51.719  12.958  1.00  0.00    -0.341 N 
ATOM     11  H1    A A   1     -42.094 -52.636  13.402  1.00  0.00     0.167 HD
ATOM     12  C2    A A   1     -43.284 -50.997  12.972  1.00  0.00     0.183 A 
ENDROOT
BRANCH   1  13
ATOM     13  C1*   A A   1     -43.151 -46.965  11.071  1.00  0.00     0.262 C 
ATOM     14  C2*   A A   1     -42.662 -45.700  10.347  1.00  0.00     0.198 C 
ATOM     15  C3*   A A   1     -43.560 -45.562   9.114  1.00  0.00     0.182 C 
ATOM     16  C4*   A A   1     -44.276 -46.900   8.999  1.00  0.00     0.179 C 
ATOM     17  O4*   A A   1     -44.319 -47.427  10.340  1.00  0.00    -0.353 OA
BRANCH  14  18
ATOM     18  O2*   A A   1     -42.812 -44.548  11.197  1.00  0.00    -0.388 OA
ATOM     19  H2*   A A   1     -42.432 -44.808  12.066  1.00  0.00     0.210 HD
ENDBRANCH  14  18
BRANCH  15  20
ATOM     20  O3*   A A   1     -44.483 -44.477   9.337  1.00  0.00    -0.390 OA
ATOM     21  H3*   A A   1     -44.311 -44.085  10.213  1.00  0.00     0.210 HD
ENDBRANCH  15  20
BRANCH  16  22
ATOM     22  C5*   A A   1     -43.567 -47.868   8.044  1.00  0.00     0.198 C 
BRANCH  22  23
ATOM     23  O5*   A A   1     -42.963 -47.153   6.970  1.00  0.00    -0.398 OA
ATOM     24  H5*   A A   1     -42.001 -47.303   7.022  1.00  0.00     0.209 HD
ENDBRANCH  22  23
ENDBRANCH  16  22
ENDBRANCH   1  13
BRANCH   7  25
ATOM     25  N6    A A   1     -39.873 -51.906  12.339  1.00  0.00    -0.287 NA
ATOM     26  H61   A A   1     -39.969 -52.842  11.958  1.00  0.00     0.125 HD
ATOM     27  H62   A A   1     -39.354 -51.797  13.200  1.00  0.00     0.125 HD
ENDBRANCH   7  25
TORSDOF 6
ENDMDL
MODEL 2
REMARK VINA RESULT:      -6.0      6.527      8.221
REMARK  6 active torsions:
REMARK  status: ('A' for Active; 'I' for Inactive)
REMARK    1  A    between atoms: N9_1  and  C1*_2 
REMARK    2  A    between atoms: C2*_7  and  O2*_18 
REMARK    3  A    between atoms: C3*_10  and  O3*_20 
REMARK    4  A    between atoms: C4*_11  and  C5*_21 
REMARK    5  A    between atoms: C6_12  and  N6_19 
REMARK    6  A    between atoms: C5*_21  and  O5*_22 
ROOT
ATOM      1  N9    A A   1     -42.172 -53.852  13.339  1.00  0.00    -0.297 N 
ATOM      2  C4    A A   1     -43.511 -53.977  13.602  1.00  0.00     0.142 A 
ATOM      3  C5    A A   1     -44.136 -53.187  12.646  1.00  0.00     0.116 A 
ATOM      4  N7    A A   1     -43.210 -52.520  11.874  1.00  0.00    -0.346 N 
ATOM      5  H7    A A   1     -43.386 -51.885  11.096  1.00  0.00     0.167 HD
ATOM      6  C8    A A   1     -42.048 -52.885  12.366  1.00  0.00     0.188 C 
ATOM      7  C6    A A   1     -45.536 -53.188  12.629  1.00  0.00     0.109 A 
ATOM      8  N3    A A   1     -44.120 -54.704  14.551  1.00  0.00    -0.336 N 
ATOM      9  H3    A A   1     -43.631 -55.281  15.235  1.00  0.00     0.168 HD
ATOM     10  N1    A A   1     -46.195 -53.878  13.586  1.00  0.00    -0.341 N 
ATOM     11  H1    A A   1     -47.215 -53.874  13.630  1.00  0.00     0.167 HD
ATOM     12  C2    A A   1     -45.462 -54.575  14.483  1.00  0.00     0.183 A 
ENDROOT
BRANCH   1  13
ATOM     13  C1*   A A   1     -41.034 -54.516  13.953  1.00  0.00     0.262 C 
ATOM     14  C2*   A A   1     -39.694 -53.767  14.036  1.00  0.00     0.198 C 
ATOM     15  C3*   A A   1     -39.420 -53.587  15.532  1.00  0.00     0.182 C 
ATOM     16  C4*   A A   1     -40.738 -53.921  16.216  1.00  0.00     0.179 C 
ATOM     17  O4*   A A   1     -41.413 -54.828  15.321  1.00  0.00    -0.353 OA
BRANCH  14  18
ATOM     18  O2*   A A   1     -38.647 -54.548  13.434  1.00  0.00    -0.388 OA
ATOM     19  H2*   A A   1     -39.091 -55.336  13.048  1.00  0.00     0.210 HD
ENDBRANCH  14  18
BRANCH  15  20
ATOM     20  O3*   A A   1     -38.368 -54.495  15.919  1.00  0.00    -0.390 OA
ATOM     21  H3*   A A   1     -37.815 -54.072  16.601  1.00  0.00     0.210 HD
ENDBRANCH  15  20
BRANCH  16  22
ATOM     22  C5*   A A   1     -41.589 -52.677  16.495  1.00  0.00     0.198 C 
BRANCH  22  23
ATOM     23  O5*   A A   1     -42.906 -53.054  16.887  1.00  0.00    -0.398 OA
ATOM     24  H5*   A A   1     -43.336 -53.464  16.114  1.00  0.00     0.209 HD
ENDBRANCH  22  23
ENDBRANCH  16  22
ENDBRANCH   1  13
BRANCH   7  25
ATOM     25  N6    A A   1     -46.278 -52.490  11.681  1.00  0.00    -0.287 NA
ATOM     26  H61   A A   1     -45.703 -51.992  11.009  1.00  0.00     0.125 HD
ATOM     27  H62   A A   1     -47.065 -52.000  12.085  1.00  0.00     0.125 HD
ENDBRANCH   7  25
TORSDOF 6
ENDMDL
MODEL 3
REMARK VINA RESULT:      -5.8      4.058      6.454
REMARK  6 active torsions:
REMARK  status: ('A' for Active; 'I' for Inactive)
REMARK    1  A    between atoms: N9_1  and  C1*_2 
REMARK    2  A    between atoms: C2*_7  and  O2*_18 
REMARK    3  A    between atoms: C3*_10  and  O3*_20 
REMARK    4  A    between atoms: C4*_11  and  C5*_21 
REMARK    5  A    between atoms: C6_12  and  N6_19 
REMARK    6  A    between atoms: C5*_21  and  O5*_22 
ROOT
ATOM      1  N9    A A   1     -42.805 -52.862  12.761  1.00  0.00    -0.297 N 
ATOM      2  C4    A A   1     -42.114 -51.728  12.426  1.00  0.00     0.142 A 
ATOM      3  C5    A A   1     -40.775 -52.087  12.523  1.00  0.00     0.116 A 
ATOM      4  N7    A A   1     -40.642 -53.375  12.995  1.00  0.00    -0.346 N 
ATOM      5  H7    A A   1     -39.779 -53.896  13.153  1.00  0.00     0.167 HD
ATOM      6  C8    A A   1     -41.875 -53.780  13.195  1.00  0.00     0.188 C 
ATOM      7  C6    A A   1     -39.826 -51.125  12.157  1.00  0.00     0.109 A 
ATOM      8  N3    A A   1     -42.588 -50.527  12.062  1.00  0.00    -0.336 N 
ATOM      9  H3    A A   1     -43.579 -50.298  11.993  1.00  0.00     0.168 HD
ATOM     10  N1    A A   1     -40.253 -49.889  11.815  1.00  0.00    -0.341 N 
ATOM     11  H1    A A   1     -39.591 -49.150  11.577  1.00  0.00     0.167 HD
ATOM     12  C2    A A   1     -41.585 -49.662  11.799  1.00  0.00     0.183 A 
ENDROOT
BRANCH   1  13
ATOM     13  C1*   A A   1     -44.236 -53.120  12.751  1.00  0.00     0.262 C 
ATOM     14  C2*   A A   1     -44.823 -54.083  13.796  1.00  0.00     0.198 C 
ATOM     15  C3*   A A   1     -45.759 -53.229  14.657  1.00  0.00     0.182 C 
ATOM     16  C4*   A A   1     -45.416 -51.790  14.300  1.00  0.00     0.179 C 
ATOM     17  O4*   A A   1     -44.898 -51.843  12.956  1.00  0.00    -0.353 OA
BRANCH  14  18
ATOM     18  O2*   A A   1     -45.567 -55.130  13.148  1.00  0.00    -0.388 OA
ATOM     19  H2*   A A   1     -46.514 -54.926  13.316  1.00  0.00     0.210 HD
ENDBRANCH  14  18
BRANCH  15  20
ATOM     20  O3*   A A   1     -47.122 -53.557  14.317  1.00  0.00    -0.390 OA
ATOM     21  H3*   A A   1     -47.126 -54.125  13.524  1.00  0.00     0.210 HD
ENDBRANCH  15  20
BRANCH  16  22
ATOM     22  C5*   A A   1     -44.399 -51.169  15.265  1.00  0.00     0.198 C 
BRANCH  22  23
ATOM     23  O5*   A A   1     -43.901 -49.943  14.741  1.00  0.00    -0.398 OA
ATOM     24  H5*   A A   1     -44.668 -49.380  14.528  1.00  0.00     0.209 HD
ENDBRANCH  22  23
ENDBRANCH  16  22
ENDBRANCH   1  13
BRANCH   7  25
ATOM     25  N6    A A   1     -38.458 -51.382  12.149  1.00  0.00    -0.287 NA
ATOM     26  H61   A A   1     -38.099 -51.669  13.054  1.00  0.00     0.125 HD
ATOM     27  H62   A A   1     -37.933 -50.691  11.631  1.00  0.00     0.125 HD
ENDBRANCH   7  25
TORSDOF 6
ENDMDL
MODEL 4
REMARK VINA RESULT:      -5.7      3.337      5.793
REMARK  6 active torsions:
REMARK  status: ('A' for Active; 'I' for Inactive)
REMARK    1  A    between atoms: N9_1  and  C1*_2 
REMARK    2  A    between atoms: C2*_7  and  O2*_18 
REMARK    3  A    between atoms: C3*_10  and  O3*_20 
REMARK    4  A    between atoms: C4*_11  and  C5*_21 
REMARK    5  A    between atoms: C6_12  and  N6_19 
REMARK    6  A    between atoms: C5*_21  and  O5*_22 
ROOT
ATOM      1  N9    A A   1     -40.390 -47.787  11.426  1.00  0.00    -0.297 N 
ATOM      2  C4    A A   1     -41.463 -47.470  10.636  1.00  0.00     0.142 A 
ATOM      3  C5    A A   1     -41.754 -46.148  10.946  1.00  0.00     0.116 A 
ATOM      4  N7    A A   1     -40.947 -45.690  11.964  1.00  0.00    -0.346 N 
ATOM      5  H7    A A   1     -40.935 -44.760  12.383  1.00  0.00     0.167 HD
ATOM      6  C8    A A   1     -40.195 -46.721  12.276  1.00  0.00     0.188 C 
ATOM      7  C6    A A   1     -42.778 -45.529  10.218  1.00  0.00     0.109 A 
ATOM      8  N3    A A   1     -42.104 -48.233   9.738  1.00  0.00    -0.336 N 
ATOM      9  H3    A A   1     -41.861 -49.200   9.527  1.00  0.00     0.168 HD
ATOM     10  N1    A A   1     -43.476 -46.266   9.326  1.00  0.00    -0.341 N 
ATOM     11  H1    A A   1     -44.253 -45.861   8.803  1.00  0.00     0.167 HD
ATOM     12  C2    A A   1     -43.113 -47.556   9.149  1.00  0.00     0.183 A 
ENDROOT
BRANCH   1  13
ATOM     13  C1*   A A   1     -39.593 -49.002  11.474  1.00  0.00     0.262 C 
ATOM     14  C2*   A A   1     -38.886 -49.373  12.788  1.00  0.00     0.198 C 
ATOM     15  C3*   A A   1     -39.526 -50.690  13.238  1.00  0.00     0.182 C 
ATOM     16  C4*   A A   1     -40.772 -50.834  12.376  1.00  0.00     0.179 C 
ATOM     17  O4*   A A   1     -40.485 -50.106  11.166  1.00  0.00    -0.353 OA
BRANCH  14  18
ATOM     18  O2*   A A   1     -37.477 -49.562  12.561  1.00  0.00    -0.388 OA
ATOM     19  H2*   A A   1     -37.394 -50.439  12.125  1.00  0.00     0.210 HD
ENDBRANCH  14  18
BRANCH  15  20
ATOM     20  O3*   A A   1     -38.586 -51.759  13.009  1.00  0.00    -0.390 OA
ATOM     21  H3*   A A   1     -38.453 -52.251  13.840  1.00  0.00     0.210 HD
ENDBRANCH  15  20
BRANCH  16  22
ATOM     22  C5*   A A   1     -42.032 -50.296  13.065  1.00  0.00     0.198 C 
BRANCH  22  23
ATOM     23  O5*   A A   1     -43.073 -50.101  12.114  1.00  0.00    -0.398 OA
ATOM     24  H5*   A A   1     -42.703 -50.284  11.231  1.00  0.00     0.209 HD
ENDBRANCH  22  23
ENDBRANCH  16  22
ENDBRANCH   1  13
BRANCH   7  25
ATOM     25  N6    A A   1     -43.121 -44.190  10.390  1.00  0.00    -0.287 NA
ATOM     26  H61   A A   1     -42.320 -43.591  10.564  1.00  0.00     0.125 HD
ATOM     27  H62   A A   1     -43.938 -44.069  10.972  1.00  0.00     0.125 HD
ENDBRANCH   7  25
TORSDOF 6
ENDMDL
MODEL 5
REMARK VINA RESULT:      -5.7      5.486      7.057
REMARK  6 active torsions:
REMARK  status: ('A' for Active; 'I' for Inactive)
REMARK    1  A    between atoms: N9_1  and  C1*_2 
REMARK    2  A    between atoms: C2*_7  and  O2*_18 
REMARK    3  A    between atoms: C3*_10  and  O3*_20 
REMARK    4  A    between atoms: C4*_11  and  C5*_21 
REMARK    5  A    between atoms: C6_12  and  N6_19 
REMARK    6  A    between atoms: C5*_21  and  O5*_22 
ROOT
ATOM      1  N9    A A   1     -42.779 -52.347  12.906  1.00  0.00    -0.297 N 
ATOM      2  C4    A A   1     -41.737 -51.628  13.429  1.00  0.00     0.142 A 
ATOM      3  C5    A A   1     -40.735 -51.708  12.472  1.00  0.00     0.116 A 
ATOM      4  N7    A A   1     -41.110 -52.529  11.430  1.00  0.00    -0.346 N 
ATOM      5  H7    A A   1     -40.576 -52.757  10.591  1.00  0.00     0.167 HD
ATOM      6  C8    A A   1     -42.309 -52.951  11.761  1.00  0.00     0.188 C 
ATOM      7  C6    A A   1     -39.558 -50.987  12.713  1.00  0.00     0.109 A 
ATOM      8  N3    A A   1     -41.670 -50.966  14.594  1.00  0.00    -0.336 N 
ATOM      9  H3    A A   1     -42.428 -50.921  15.274  1.00  0.00     0.168 HD
ATOM     10  N1    A A   1     -39.429 -50.332  13.888  1.00  0.00    -0.341 N 
ATOM     11  H1    A A   1     -38.573 -49.826  14.118  1.00  0.00     0.167 HD
ATOM     12  C2    A A   1     -40.469 -50.369  14.750  1.00  0.00     0.183 A 
ENDROOT
BRANCH   1  13
ATOM     13  C1*   A A   1     -44.127 -52.543  13.415  1.00  0.00     0.262 C 
ATOM     14  C2*   A A   1     -45.002 -53.643  12.792  1.00  0.00     0.198 C 
ATOM     15  C3*   A A   1     -45.255 -54.649  13.919  1.00  0.00     0.182 C 
ATOM     16  C4*   A A   1     -44.260 -54.276  15.008  1.00  0.00     0.179 C 
ATOM     17  O4*   A A   1     -44.004 -52.869  14.825  1.00  0.00    -0.353 OA
BRANCH  14  18
ATOM     18  O2*   A A   1     -46.250 -53.090  12.336  1.00  0.00    -0.388 OA
ATOM     19  H2*   A A   1     -46.387 -52.272  12.864  1.00  0.00     0.210 HD
ENDBRANCH  14  18
BRANCH  15  20
ATOM     20  O3*   A A   1     -46.619 -54.508  14.364  1.00  0.00    -0.390 OA
ATOM     21  H3*   A A   1     -46.956 -53.635  14.089  1.00  0.00     0.210 HD
ENDBRANCH  15  20
BRANCH  16  22
ATOM     22  C5*   A A   1     -42.965 -55.093  14.931  1.00  0.00     0.198 C 
BRANCH  22  23
ATOM     23  O5*   A A   1     -42.973 -56.130  15.907  1.00  0.00    -0.398 OA
ATOM     24  H5*   A A   1     -43.426 -56.899  15.516  1.00  0.00     0.209 HD
ENDBRANCH  22  23
ENDBRANCH  16  22
ENDBRANCH   1  13
BRANCH   7  25
ATOM     25  N6    A A   1     -38.507 -50.934  11.802  1.00  0.00    -0.287 NA
ATOM     26  H61   A A   1     -38.088 -50.013  11.727  1.00  0.00     0.125 HD
ATOM     27  H62   A A   1     -38.708 -51.433  10.946  1.00  0.00     0.125 HD
ENDBRANCH   7  25
TORSDOF 6
ENDMDL
MODEL 6
REMARK VINA RESULT:      -5.6      3.371      6.065
REMARK  6 active torsions:
REMARK  status: ('A' for Active; 'I' for Inactive)
REMARK    1  A    between atoms: N9_1  and  C1*_2 
REMARK    2  A    between atoms: C2*_7  and  O2*_18 
REMARK    3  A    between atoms: C3*_10  and  O3*_20 
REMARK    4  A    between atoms: C4*_11  and  C5*_21 
REMARK    5  A    between atoms: C6_12  and  N6_19 
REMARK    6  A    between atoms: C5*_21  and  O5*_22 
ROOT
ATOM      1  N9    A A   1     -41.243 -49.731  11.616  1.00  0.00    -0.297 N 
ATOM      2  C4    A A   1     -42.046 -48.674  11.280  1.00  0.00     0.142 A 
ATOM      3  C5    A A   1     -41.167 -47.668  10.900  1.00  0.00     0.116 A 
ATOM      4  N7    A A   1     -39.859 -48.059  11.084  1.00  0.00    -0.346 N 
ATOM      5  H7    A A   1     -39.013 -47.527  10.879  1.00  0.00     0.167 HD
ATOM      6  C8    A A   1     -39.946 -49.271  11.583  1.00  0.00     0.188 C 
ATOM      7  C6    A A   1     -41.726 -46.474  10.426  1.00  0.00     0.109 A 
ATOM      8  N3    A A   1     -43.385 -48.596  11.287  1.00  0.00    -0.336 N 
ATOM      9  H3    A A   1     -44.004 -49.357  11.566  1.00  0.00     0.168 HD
ATOM     10  N1    A A   1     -43.069 -46.335  10.445  1.00  0.00    -0.341 N 
ATOM     11  H1    A A   1     -43.513 -45.467  10.143  1.00  0.00     0.167 HD
ATOM     12  C2    A A   1     -43.808 -47.381  10.878  1.00  0.00     0.183 A 
ENDROOT
BRANCH   1  13
ATOM     13  C1*   A A   1     -41.598 -51.087  12.004  1.00  0.00     0.262 C 
ATOM     14  C2*   A A   1     -40.478 -52.061  12.404  1.00  0.00     0.198 C 
ATOM     15  C3*   A A   1     -40.734 -52.393  13.878  1.00  0.00     0.182 C 
ATOM     16  C4*   A A   1     -41.751 -51.360  14.341  1.00  0.00     0.179 C 
ATOM     17  O4*   A A   1     -42.478 -50.982  13.155  1.00  0.00    -0.353 OA
BRANCH  14  18
ATOM     18  O2*   A A   1     -40.550 -53.259  11.610  1.00  0.00    -0.388 OA
ATOM     19  H2*   A A   1     -41.412 -53.676  11.835  1.00  0.00     0.210 HD
ENDBRANCH  14  18
BRANCH  15  20
ATOM     20  O3*   A A   1     -41.253 -53.735  13.963  1.00  0.00    -0.390 OA
ATOM     21  H3*   A A   1     -40.888 -54.266  13.231  1.00  0.00     0.210 HD
ENDBRANCH  15  20
BRANCH  16  22
ATOM     22  C5*   A A   1     -41.096 -50.143  15.006  1.00  0.00     0.198 C 
BRANCH  22  23
ATOM     23  O5*   A A   1     -41.937 -49.000  14.887  1.00  0.00    -0.398 OA
ATOM     24  H5*   A A   1     -42.807 -49.306  14.571  1.00  0.00     0.209 HD
ENDBRANCH  22  23
ENDBRANCH  16  22
ENDBRANCH   1  13
BRANCH   7  25
ATOM     25  N6    A A   1     -40.953 -45.416   9.954  1.00  0.00    -0.287 NA
ATOM     26  H61   A A   1     -40.333 -45.029  10.658  1.00  0.00     0.125 HD
ATOM     27  H62   A A   1     -41.482 -44.771   9.383  1.00  0.00     0.125 HD
ENDBRANCH   7  25
TORSDOF 6
ENDMDL
MODEL 7
REMARK VINA RESULT:      -5.6      4.342      6.389
REMARK  6 active torsions:
REMARK  status: ('A' for Active; 'I' for Inactive)
REMARK    1  A    between atoms: N9_1  and  C1*_2 
REMARK    2  A    between atoms: C2*_7  and  O2*_18 
REMARK    3  A    between atoms: C3*_10  and  O3*_20 
REMARK    4  A    between atoms: C4*_11  and  C5*_21 
REMARK    5  A    between atoms: C6_12  and  N6_19 
REMARK    6  A    between atoms: C5*_21  and  O5*_22 
ROOT
ATOM      1  N9    A A   1     -41.978 -51.373  12.388  1.00  0.00    -0.297 N 
ATOM      2  C4    A A   1     -42.976 -52.270  12.661  1.00  0.00     0.142 A 
ATOM      3  C5    A A   1     -44.092 -51.488  12.930  1.00  0.00     0.116 A 
ATOM      4  N7    A A   1     -43.771 -50.148  12.917  1.00  0.00    -0.346 N 
ATOM      5  H7    A A   1     -44.393 -49.355  13.071  1.00  0.00     0.167 HD
ATOM      6  C8    A A   1     -42.482 -50.122  12.663  1.00  0.00     0.188 C 
ATOM      7  C6    A A   1     -45.299 -52.155  13.172  1.00  0.00     0.109 A 
ATOM      8  N3    A A   1     -42.930 -53.611  12.660  1.00  0.00    -0.336 N 
ATOM      9  H3    A A   1     -42.094 -54.157  12.450  1.00  0.00     0.168 HD
ATOM     10  N1    A A   1     -45.296 -53.505  13.215  1.00  0.00    -0.341 N 
ATOM     11  H1    A A   1     -46.148 -54.028  13.424  1.00  0.00     0.167 HD
ATOM     12  C2    A A   1     -44.130 -54.144  12.972  1.00  0.00     0.183 A 
ENDROOT
BRANCH   1  13
ATOM     13  C1*   A A   1     -40.610 -51.603  11.951  1.00  0.00     0.262 C 
ATOM     14  C2*   A A   1     -39.560 -50.506  12.193  1.00  0.00     0.198 C 
ATOM     15  C3*   A A   1     -38.542 -51.121  13.158  1.00  0.00     0.182 C 
ATOM     16  C4*   A A   1     -39.214 -52.381  13.685  1.00  0.00     0.179 C 
ATOM     17  O4*   A A   1     -40.135 -52.784  12.652  1.00  0.00    -0.353 OA
BRANCH  14  18
ATOM     18  O2*   A A   1     -38.914 -50.152  10.956  1.00  0.00    -0.388 OA
ATOM     19  H2*   A A   1     -39.618 -49.764  10.391  1.00  0.00     0.210 HD
ENDBRANCH  14  18
BRANCH  15  20
ATOM     20  O3*   A A   1     -37.337 -51.421  12.426  1.00  0.00    -0.390 OA
ATOM     21  H3*   A A   1     -37.295 -50.854  11.634  1.00  0.00     0.210 HD
ENDBRANCH  15  20
BRANCH  16  22
ATOM     22  C5*   A A   1     -39.938 -52.151  15.018  1.00  0.00     0.198 C 
BRANCH  22  23
ATOM     23  O5*   A A   1     -40.927 -53.154  15.225  1.00  0.00    -0.398 OA
ATOM     24  H5*   A A   1     -41.338 -53.345  14.363  1.00  0.00     0.209 HD
ENDBRANCH  22  23
ENDBRANCH  16  22
ENDBRANCH   1  13
BRANCH   7  25
ATOM     25  N6    A A   1     -46.499 -51.484  13.391  1.00  0.00    -0.287 NA
ATOM     26  H61   A A   1     -46.887 -51.647  14.314  1.00  0.00     0.125 HD
ATOM     27  H62   A A   1     -47.126 -51.538  12.599  1.00  0.00     0.125 HD
ENDBRANCH   7  25
TORSDOF 6
ENDMDL
MODEL 8
REMARK VINA RESULT:      -5.6      2.621      3.850
REMARK  6 active torsions:
REMARK  status: ('A' for Active; 'I' for Inactive)
REMARK    1  A    between atoms: N9_1  and  C1*_2 
REMARK    2  A    between atoms: C2*_7  and  O2*_18 
REMARK    3  A    between atoms: C3*_10  and  O3*_20 
REMARK    4  A    between atoms: C4*_11  and  C5*_21 
REMARK    5  A    between atoms: C6_12  and  N6_19 
REMARK    6  A    between atoms: C5*_21  and  O5*_22 
ROOT
ATOM      1  N9    A A   1     -40.386 -47.364  11.166  1.00  0.00    -0.297 N 
ATOM      2  C4    A A   1     -39.911 -48.489  11.785  1.00  0.00     0.142 A 
ATOM      3  C5    A A   1     -40.764 -49.505  11.377  1.00  0.00     0.116 A 
ATOM      4  N7    A A   1     -41.791 -49.009  10.604  1.00  0.00    -0.346 N 
ATOM      5  H7    A A   1     -42.551 -49.528  10.165  1.00  0.00     0.167 HD
ATOM      6  C8    A A   1     -41.572 -47.714  10.561  1.00  0.00     0.188 C 
ATOM      7  C6    A A   1     -40.465 -50.805  11.806  1.00  0.00     0.109 A 
ATOM      8  N3    A A   1     -38.851 -48.622  12.597  1.00  0.00    -0.336 N 
ATOM      9  H3    A A   1     -38.238 -47.854  12.872  1.00  0.00     0.168 HD
ATOM     10  N1    A A   1     -39.428 -50.985  12.653  1.00  0.00    -0.341 N 
ATOM     11  H1    A A   1     -39.199 -51.911  13.017  1.00  0.00     0.167 HD
ATOM     12  C2    A A   1     -38.700 -49.900  13.002  1.00  0.00     0.183 A 
ENDROOT
BRANCH   1  13
ATOM     13  C1*   A A   1     -39.848 -46.013  11.144  1.00  0.00     0.262 C 
ATOM     14  C2*   A A   1     -40.621 -44.919  10.388  1.00  0.00     0.198 C 
ATOM     15  C3*   A A   1     -41.049 -43.909  11.457  1.00  0.00     0.182 C 
ATOM     16  C4*   A A   1     -40.812 -44.618  12.782  1.00  0.00     0.179 C 
ATOM     17  O4*   A A   1     -39.761 -45.569  12.524  1.00  0.00    -0.353 OA
BRANCH  14  18
ATOM     18  O2*   A A   1     -39.767 -44.281   9.421  1.00  0.00    -0.388 OA
ATOM     19  H2*   A A   1     -38.880 -44.230   9.842  1.00  0.00     0.210 HD
ENDBRANCH  14  18
BRANCH  15  20
ATOM     20  O3*   A A   1     -40.233 -42.728  11.325  1.00  0.00    -0.390 OA
ATOM     21  H3*   A A   1     -40.136 -42.510  10.380  1.00  0.00     0.210 HD
ENDBRANCH  15  20
BRANCH  16  22
ATOM     22  C5*   A A   1     -42.073 -45.310  13.315  1.00  0.00     0.198 C 
BRANCH  22  23
ATOM     23  O5*   A A   1     -43.215 -44.484  13.116  1.00  0.00    -0.398 OA
ATOM     24  H5*   A A   1     -43.019 -43.612  13.504  1.00  0.00     0.209 HD
ENDBRANCH  22  23
ENDBRANCH  16  22
ENDBRANCH   1  13
BRANCH   7  25
ATOM     25  N6    A A   1     -41.205 -51.917  11.414  1.00  0.00    -0.287 NA
ATOM     26  H61   A A   1     -41.634 -52.407  12.192  1.00  0.00     0.125 HD
ATOM     27  H62   A A   1     -40.736 -52.468  10.708  1.00  0.00     0.125 HD
ENDBRANCH   7  25
TORSDOF 6
ENDMDL
MODEL 9
REMARK VINA RESULT:      -5.5      2.090      3.688
REMARK  6 active torsions:
REMARK  status: ('A' for Active; 'I' for Inactive)
REMARK    1  A    between atoms: N9_1  and  C1*_2 
REMARK    2  A    between atoms: C2*_7  and  O2*_18 
REMARK    3  A    between atoms: C3*_10  and  O3*_20 
REMARK    4  A    between atoms: C4*_11  and  C5*_21 
REMARK    5  A    between atoms: C6_12  and  N6_19 
REMARK    6  A    between atoms: C5*_21  and  O5*_22 
ROOT
ATOM      1  N9    A A   1     -41.207 -49.361  11.495  1.00  0.00    -0.297 N 
ATOM      2  C4    A A   1     -39.895 -49.686  11.715  1.00  0.00     0.142 A 
ATOM      3  C5    A A   1     -39.939 -50.798  12.545  1.00  0.00     0.116 A 
ATOM      4  N7    A A   1     -41.236 -51.095  12.905  1.00  0.00    -0.346 N 
ATOM      5  H7    A A   1     -41.561 -51.861  13.495  1.00  0.00     0.167 HD
ATOM      6  C8    A A   1     -41.959 -50.170  12.317  1.00  0.00     0.188 C 
ATOM      7  C6    A A   1     -38.718 -51.400  12.877  1.00  0.00     0.109 A 
ATOM      8  N3    A A   1     -38.788 -49.097  11.237  1.00  0.00    -0.336 N 
ATOM      9  H3    A A   1     -38.790 -48.284  10.621  1.00  0.00     0.168 HD
ATOM     10  N1    A A   1     -37.574 -50.824  12.448  1.00  0.00    -0.341 N 
ATOM     11  H1    A A   1     -36.663 -51.210  12.698  1.00  0.00     0.167 HD
ATOM     12  C2    A A   1     -37.673 -49.718  11.676  1.00  0.00     0.183 A 
ENDROOT
BRANCH   1  13
ATOM     13  C1*   A A   1     -41.784 -48.342  10.633  1.00  0.00     0.262 C 
ATOM     14  C2*   A A   1     -43.154 -47.748  11.002  1.00  0.00     0.198 C 
ATOM     15  C3*   A A   1     -42.892 -46.267  11.288  1.00  0.00     0.182 C 
ATOM     16  C4*   A A   1     -41.379 -46.152  11.406  1.00  0.00     0.179 C 
ATOM     17  O4*   A A   1     -40.851 -47.230  10.608  1.00  0.00    -0.353 OA
BRANCH  14  18
ATOM     18  O2*   A A   1     -44.070 -47.883   9.900  1.00  0.00    -0.388 OA
ATOM     19  H2*   A A   1     -44.618 -48.672  10.105  1.00  0.00     0.210 HD
ENDBRANCH  14  18
BRANCH  15  20
ATOM     20  O3*   A A   1     -43.406 -45.488  10.189  1.00  0.00    -0.390 OA
ATOM     21  H3*   A A   1     -44.096 -46.001   9.729  1.00  0.00     0.210 HD
ENDBRANCH  15  20
BRANCH  16  22
ATOM     22  C5*   A A   1     -40.892 -46.243  12.858  1.00  0.00     0.198 C 
BRANCH  22  23
ATOM     23  O5*   A A   1     -39.491 -46.493  12.897  1.00  0.00    -0.398 OA
ATOM     24  H5*   A A   1     -39.310 -47.030  13.689  1.00  0.00     0.209 HD
ENDBRANCH  22  23
ENDBRANCH  16  22
ENDBRANCH   1  13
BRANCH   7  25
ATOM     25  N6    A A   1     -38.634 -52.556  13.648  1.00  0.00    -0.287 NA
ATOM     26  H61   A A   1     -38.674 -52.375  14.646  1.00  0.00     0.125 HD
ATOM     27  H62   A A   1     -37.929 -53.198  13.312  1.00  0.00     0.125 HD
ENDBRANCH   7  25
TORSDOF 6
ENDMDL
