MODEL 1
REMARK VINA RESULT:      -5.4      0.000      0.000
REMARK  7 active torsions:
REMARK  status: ('A' for Active; 'I' for Inactive)
REMARK    1  A    between atoms: C_2  and  N_3 
REMARK    2  A    between atoms: N_3  and  C_4 
REMARK    3  A    between atoms: N_3  and  S_6 
REMARK    4  A    between atoms: S_6  and  N_9 
REMARK    5  A    between atoms: N_9  and  C_10 
REMARK    6  A    between atoms: C_10  and  C_11 
REMARK    7  A    between atoms: C_17  and  N_18 
ROOT
HETATM    1  C   UNL     1     -41.362 -52.806  13.087  1.00  0.00    -0.000 A 
HETATM    2  C   UNL     1     -41.102 -54.134  13.487  1.00  0.00     0.013 A 
HETATM    3  C   UNL     1     -39.877 -54.485  14.032  1.00  0.00     0.018 A 
HETATM    4  C   UNL     1     -38.942 -53.488  14.177  1.00  0.00     0.089 A 
HETATM    5  N   UNL     1     -39.161 -52.203  13.828  1.00  0.00    -0.352 N 
ATOM      6  HN  UNL     1     -38.430 -51.505  13.965  1.00  0.00     0.166 HD
HETATM    7  C   UNL     1     -40.356 -51.839  13.294  1.00  0.00     0.110 A 
ENDROOT
BRANCH   1   8
HETATM    8  C   UNL     1     -42.658 -52.467  12.377  1.00  0.00     0.147 C 
BRANCH   8   9
HETATM    9  N   UNL     1     -43.554 -53.612  12.122  1.00  0.00    -0.202 NA
HETATM   10  H   UNL     1     -43.722 -53.726  11.123  1.00  0.00     0.141 HD
BRANCH   9  11
HETATM   11  S   UNL     1     -45.055 -53.525  12.846  1.00  0.00     0.281 S 
HETATM   12  O   UNL     1     -45.376 -54.863  13.280  1.00  0.00    -0.194 OA
HETATM   13  O   UNL     1     -45.937 -52.813  11.951  1.00  0.00    -0.194 OA
BRANCH  11  14
HETATM   14  N   UNL     1     -44.799 -52.556  14.219  1.00  0.00    -0.198 NA
BRANCH  14  15
HETATM   15  C   UNL     1     -45.716 -51.365  14.192  1.00  0.00     0.104 C 
HETATM   16  C   UNL     1     -46.924 -51.483  15.106  1.00  0.00     0.021 C 
ENDBRANCH  14  15
BRANCH  14  17
HETATM   17  C   UNL     1     -44.692 -53.232  15.543  1.00  0.00     0.104 C 
HETATM   18  C   UNL     1     -43.361 -53.050  16.242  1.00  0.00     0.021 C 
ENDBRANCH  14  17
ENDBRANCH  11  14
ENDBRANCH   9  11
ENDBRANCH   8   9
ENDBRANCH   1   8
BRANCH   7  19
HETATM   19  N   UNL     1     -40.473 -50.509  12.962  1.00  0.00    -0.363 N 
HETATM   20  C   UNL     1     -41.089 -49.587  13.931  1.00  0.00     0.150 C 
HETATM   21  C   UNL     1     -42.183 -48.744  13.263  1.00  0.00     0.187 C 
HETATM   22  O   UNL     1     -41.677 -48.055  12.110  1.00  0.00    -0.388 OA
HETATM   23  C   UNL     1     -41.239 -49.009  11.137  1.00  0.00     0.187 C 
HETATM   24  C   UNL     1     -40.122 -49.918  11.670  1.00  0.00     0.150 C 
ENDBRANCH   7  19
TORSDOF 7
ENDMDL
MODEL 2
REMARK VINA RESULT:      -5.2      4.096      5.938
REMARK  7 active torsions:
REMARK  status: ('A' for Active; 'I' for Inactive)
REMARK    1  A    between atoms: C_2  and  N_3 
REMARK    2  A    between atoms: N_3  and  C_4 
REMARK    3  A    between atoms: N_3  and  S_6 
REMARK    4  A    between atoms: S_6  and  N_9 
REMARK    5  A    between atoms: N_9  and  C_10 
REMARK    6  A    between atoms: C_10  and  C_11 
REMARK    7  A    between atoms: C_17  and  N_18 
ROOT
HETATM    1  C   UNL     1     -41.462 -50.213  11.923  1.00  0.00    -0.000 A 
HETATM    2  C   UNL     1     -41.863 -51.300  12.727  1.00  0.00     0.013 A 
HETATM    3  C   UNL     1     -43.074 -51.276  13.401  1.00  0.00     0.018 A 
HETATM    4  C   UNL     1     -43.863 -50.162  13.241  1.00  0.00     0.089 A 
HETATM    5  N   UNL     1     -43.524 -49.113  12.464  1.00  0.00    -0.352 N 
ATOM      6  HN  UNL     1     -44.155 -48.316  12.379  1.00  0.00     0.166 HD
HETATM    7  C   UNL     1     -42.343 -49.119  11.792  1.00  0.00     0.110 A 
ENDROOT
BRANCH   1   8
HETATM    8  C   UNL     1     -40.081 -50.201  11.296  1.00  0.00     0.147 C 
BRANCH   8   9
HETATM    9  N   UNL     1     -39.143 -51.212  11.822  1.00  0.00    -0.202 NA
HETATM   10  H   UNL     1     -39.531 -51.673  12.646  1.00  0.00     0.141 HD
BRANCH   9  11
HETATM   11  S   UNL     1     -37.640 -50.638  12.265  1.00  0.00     0.281 S 
HETATM   12  O   UNL     1     -37.374 -49.500  11.421  1.00  0.00    -0.194 OA
HETATM   13  O   UNL     1     -36.730 -51.760  12.293  1.00  0.00    -0.194 OA
BRANCH  11  14
HETATM   14  N   UNL     1     -37.857 -50.093  13.860  1.00  0.00    -0.198 NA
BRANCH  14  15
HETATM   15  C   UNL     1     -38.157 -48.620  13.869  1.00  0.00     0.104 C 
HETATM   16  C   UNL     1     -37.080 -47.765  14.515  1.00  0.00     0.021 C 
ENDBRANCH  14  15
BRANCH  14  17
HETATM   17  C   UNL     1     -38.709 -50.911  14.769  1.00  0.00     0.104 C 
HETATM   18  C   UNL     1     -39.731 -50.121  15.560  1.00  0.00     0.021 C 
ENDBRANCH  14  17
ENDBRANCH  11  14
ENDBRANCH   9  11
ENDBRANCH   8   9
ENDBRANCH   1   8
BRANCH   7  19
HETATM   19  N   UNL     1     -42.088 -47.997  11.038  1.00  0.00    -0.363 N 
HETATM   20  C   UNL     1     -41.401 -46.858  11.670  1.00  0.00     0.150 C 
HETATM   21  C   UNL     1     -42.161 -45.550  11.409  1.00  0.00     0.187 C 
HETATM   22  O   UNL     1     -42.370 -45.342  10.004  1.00  0.00    -0.388 OA
HETATM   23  C   UNL     1     -43.178 -46.400   9.479  1.00  0.00     0.187 C 
HETATM   24  C   UNL     1     -42.526 -47.779   9.659  1.00  0.00     0.150 C 
ENDBRANCH   7  19
TORSDOF 7
ENDMDL
MODEL 3
REMARK VINA RESULT:      -5.2      2.375      3.085
REMARK  7 active torsions:
REMARK  status: ('A' for Active; 'I' for Inactive)
REMARK    1  A    between atoms: C_2  and  N_3 
REMARK    2  A    between atoms: N_3  and  C_4 
REMARK    3  A    between atoms: N_3  and  S_6 
REMARK    4  A    between atoms: S_6  and  N_9 
REMARK    5  A    between atoms: N_9  and  C_10 
REMARK    6  A    between atoms: C_10  and  C_11 
REMARK    7  A    between atoms: C_17  and  N_18 
ROOT
HETATM    1  C   UNL     1     -40.438 -50.071  12.622  1.00  0.00    -0.000 A 
HETATM    2  C   UNL     1     -39.464 -51.012  13.017  1.00  0.00     0.013 A 
HETATM    3  C   UNL     1     -38.165 -50.933  12.539  1.00  0.00     0.018 A 
HETATM    4  C   UNL     1     -37.869 -49.899  11.684  1.00  0.00     0.089 A 
HETATM    5  N   UNL     1     -38.767 -48.967  11.301  1.00  0.00    -0.352 N 
ATOM      6  HN  UNL     1     -38.486 -48.218  10.668  1.00  0.00     0.166 HD
HETATM    7  C   UNL     1     -40.045 -49.026  11.760  1.00  0.00     0.110 A 
ENDROOT
BRANCH   1   8
HETATM    8  C   UNL     1     -41.882 -50.247  13.051  1.00  0.00     0.147 C 
BRANCH   8   9
HETATM    9  N   UNL     1     -42.683 -51.154  12.205  1.00  0.00    -0.202 NA
HETATM   10  H   UNL     1     -43.352 -50.629  11.642  1.00  0.00     0.141 HD
BRANCH   9  11
HETATM   11  S   UNL     1     -43.562 -52.312  13.024  1.00  0.00     0.281 S 
HETATM   12  O   UNL     1     -42.935 -52.464  14.314  1.00  0.00    -0.194 OA
HETATM   13  O   UNL     1     -43.722 -53.448  12.147  1.00  0.00    -0.194 OA
BRANCH  11  14
HETATM   14  N   UNL     1     -45.088 -51.596  13.245  1.00  0.00    -0.198 NA
BRANCH  14  15
HETATM   15  C   UNL     1     -46.153 -52.431  12.591  1.00  0.00     0.104 C 
HETATM   16  C   UNL     1     -46.983 -51.690  11.555  1.00  0.00     0.021 C 
ENDBRANCH  14  15
BRANCH  14  17
HETATM   17  C   UNL     1     -45.436 -51.093  14.605  1.00  0.00     0.104 C 
HETATM   18  C   UNL     1     -46.818 -51.479  15.089  1.00  0.00     0.021 C 
ENDBRANCH  14  17
ENDBRANCH  11  14
ENDBRANCH   9  11
ENDBRANCH   8   9
ENDBRANCH   1   8
BRANCH   7  19
HETATM   19  N   UNL     1     -40.882 -48.037  11.300  1.00  0.00    -0.363 N 
HETATM   20  C   UNL     1     -40.923 -46.751  12.018  1.00  0.00     0.150 C 
HETATM   21  C   UNL     1     -42.370 -46.346  12.329  1.00  0.00     0.187 C 
HETATM   22  O   UNL     1     -43.171 -46.324  11.138  1.00  0.00    -0.388 OA
HETATM   23  C   UNL     1     -43.223 -47.637  10.573  1.00  0.00     0.187 C 
HETATM   24  C   UNL     1     -41.832 -48.168  10.195  1.00  0.00     0.150 C 
ENDBRANCH   7  19
TORSDOF 7
ENDMDL
MODEL 4
REMARK VINA RESULT:      -5.2      2.431      4.405
REMARK  7 active torsions:
REMARK  status: ('A' for Active; 'I' for Inactive)
REMARK    1  A    between atoms: C_2  and  N_3 
REMARK    2  A    between atoms: N_3  and  C_4 
REMARK    3  A    between atoms: N_3  and  S_6 
REMARK    4  A    between atoms: S_6  and  N_9 
REMARK    5  A    between atoms: N_9  and  C_10 
REMARK    6  A    between atoms: C_10  and  C_11 
REMARK    7  A    between atoms: C_17  and  N_18 
ROOT
HETATM    1  C   UNL     1     -42.293 -49.469  12.662  1.00  0.00    -0.000 A 
HETATM    2  C   UNL     1     -43.074 -48.363  12.266  1.00  0.00     0.013 A 
HETATM    3  C   UNL     1     -42.839 -47.724  11.059  1.00  0.00     0.018 A 
HETATM    4  C   UNL     1     -41.830 -48.218  10.268  1.00  0.00     0.089 A 
HETATM    5  N   UNL     1     -41.076 -49.287  10.603  1.00  0.00    -0.352 N 
ATOM      6  HN  UNL     1     -40.344 -49.613   9.971  1.00  0.00     0.166 HD
HETATM    7  C   UNL     1     -41.293 -49.930  11.780  1.00  0.00     0.110 A 
ENDROOT
BRANCH   1   8
HETATM    8  C   UNL     1     -42.479 -50.076  14.039  1.00  0.00     0.147 C 
BRANCH   8   9
HETATM    9  N   UNL     1     -43.878 -50.169  14.502  1.00  0.00    -0.202 NA
HETATM   10  H   UNL     1     -44.021 -49.606  15.341  1.00  0.00     0.141 HD
BRANCH   9  11
HETATM   11  S   UNL     1     -44.416 -51.705  14.866  1.00  0.00     0.281 S 
HETATM   12  O   UNL     1     -45.508 -51.546  15.794  1.00  0.00    -0.194 OA
HETATM   13  O   UNL     1     -43.264 -52.504  15.217  1.00  0.00    -0.194 OA
BRANCH  11  14
HETATM   14  N   UNL     1     -45.035 -52.289  13.395  1.00  0.00    -0.198 NA
BRANCH  14  15
HETATM   15  C   UNL     1     -44.482 -53.656  13.104  1.00  0.00     0.104 C 
HETATM   16  C   UNL     1     -45.326 -54.801  13.638  1.00  0.00     0.021 C 
ENDBRANCH  14  15
BRANCH  14  17
HETATM   17  C   UNL     1     -46.496 -52.140  13.142  1.00  0.00     0.104 C 
HETATM   18  C   UNL     1     -46.864 -51.842  11.703  1.00  0.00     0.021 C 
ENDBRANCH  14  17
ENDBRANCH  11  14
ENDBRANCH   9  11
ENDBRANCH   8   9
ENDBRANCH   1   8
BRANCH   7  19
HETATM   19  N   UNL     1     -40.464 -50.998  12.030  1.00  0.00    -0.363 N 
HETATM   20  C   UNL     1     -40.970 -52.360  11.793  1.00  0.00     0.150 C 
HETATM   21  C   UNL     1     -40.720 -53.256  13.013  1.00  0.00     0.187 C 
HETATM   22  O   UNL     1     -39.333 -53.254  13.384  1.00  0.00    -0.388 OA
HETATM   23  C   UNL     1     -38.941 -51.929  13.757  1.00  0.00     0.187 C 
HETATM   24  C   UNL     1     -39.124 -50.920  12.614  1.00  0.00     0.150 C 
ENDBRANCH   7  19
TORSDOF 7
ENDMDL
MODEL 5
REMARK VINA RESULT:      -5.2      4.354      6.860
REMARK  7 active torsions:
REMARK  status: ('A' for Active; 'I' for Inactive)
REMARK    1  A    between atoms: C_2  and  N_3 
REMARK    2  A    between atoms: N_3  and  C_4 
REMARK    3  A    between atoms: N_3  and  S_6 
REMARK    4  A    between atoms: S_6  and  N_9 
REMARK    5  A    between atoms: N_9  and  C_10 
REMARK    6  A    between atoms: C_10  and  C_11 
REMARK    7  A    between atoms: C_17  and  N_18 
ROOT
HETATM    1  C   UNL     1     -43.612 -47.471  10.623  1.00  0.00    -0.000 A 
HETATM    2  C   UNL     1     -44.778 -47.783   9.892  1.00  0.00     0.013 A 
HETATM    3  C   UNL     1     -45.355 -46.851   9.044  1.00  0.00     0.018 A 
HETATM    4  C   UNL     1     -44.739 -45.627   8.938  1.00  0.00     0.089 A 
HETATM    5  N   UNL     1     -43.611 -45.300   9.603  1.00  0.00    -0.352 N 
ATOM      6  HN  UNL     1     -43.196 -44.376   9.479  1.00  0.00     0.166 HD
HETATM    7  C   UNL     1     -43.028 -46.200  10.437  1.00  0.00     0.110 A 
ENDROOT
BRANCH   1   8
HETATM    8  C   UNL     1     -43.067 -48.454  11.640  1.00  0.00     0.147 C 
BRANCH   8   9
HETATM    9  N   UNL     1     -41.972 -49.318  11.157  1.00  0.00    -0.202 NA
HETATM   10  H   UNL     1     -42.324 -50.016  10.500  1.00  0.00     0.141 HD
BRANCH   9  11
HETATM   11  S   UNL     1     -41.142 -50.156  12.336  1.00  0.00     0.281 S 
HETATM   12  O   UNL     1     -40.780 -51.426  11.756  1.00  0.00    -0.194 OA
HETATM   13  O   UNL     1     -41.922 -50.099  13.551  1.00  0.00    -0.194 OA
BRANCH  11  14
HETATM   14  N   UNL     1     -39.726 -49.246  12.574  1.00  0.00    -0.198 NA
BRANCH  14  15
HETATM   15  C   UNL     1     -39.936 -48.236  13.667  1.00  0.00     0.104 C 
HETATM   16  C   UNL     1     -38.944 -47.084  13.656  1.00  0.00     0.021 C 
ENDBRANCH  14  15
BRANCH  14  17
HETATM   17  C   UNL     1     -38.428 -49.975  12.638  1.00  0.00     0.104 C 
HETATM   18  C   UNL     1     -37.551 -49.817  11.412  1.00  0.00     0.021 C 
ENDBRANCH  14  17
ENDBRANCH  11  14
ENDBRANCH   9  11
ENDBRANCH   8   9
ENDBRANCH   1   8
BRANCH   7  19
HETATM   19  N   UNL     1     -41.891 -45.763  11.074  1.00  0.00    -0.363 N 
HETATM   20  C   UNL     1     -42.029 -44.920  12.274  1.00  0.00     0.150 C 
HETATM   21  C   UNL     1     -41.158 -43.662  12.161  1.00  0.00     0.187 C 
HETATM   22  O   UNL     1     -39.787 -44.001  11.895  1.00  0.00    -0.388 OA
HETATM   23  C   UNL     1     -39.699 -44.679  10.638  1.00  0.00     0.187 C 
HETATM   24  C   UNL     1     -40.519 -45.978  10.614  1.00  0.00     0.150 C 
ENDBRANCH   7  19
TORSDOF 7
ENDMDL
MODEL 6
REMARK VINA RESULT:      -5.2      0.879      1.989
REMARK  7 active torsions:
REMARK  status: ('A' for Active; 'I' for Inactive)
REMARK    1  A    between atoms: C_2  and  N_3 
REMARK    2  A    between atoms: N_3  and  C_4 
REMARK    3  A    between atoms: N_3  and  S_6 
REMARK    4  A    between atoms: S_6  and  N_9 
REMARK    5  A    between atoms: N_9  and  C_10 
REMARK    6  A    between atoms: C_10  and  C_11 
REMARK    7  A    between atoms: C_17  and  N_18 
ROOT
HETATM    1  C   UNL     1     -41.334 -52.828  12.975  1.00  0.00    -0.000 A 
HETATM    2  C   UNL     1     -41.078 -54.120  13.478  1.00  0.00     0.013 A 
HETATM    3  C   UNL     1     -39.952 -54.373  14.246  1.00  0.00     0.018 A 
HETATM    4  C   UNL     1     -39.113 -53.316  14.503  1.00  0.00     0.089 A 
HETATM    5  N   UNL     1     -39.335 -52.062  14.058  1.00  0.00    -0.352 N 
ATOM      6  HN  UNL     1     -38.678 -51.315  14.286  1.00  0.00     0.166 HD
HETATM    7  C   UNL     1     -40.435 -51.793  13.306  1.00  0.00     0.110 A 
ENDROOT
BRANCH   1   8
HETATM    8  C   UNL     1     -42.499 -52.597  12.033  1.00  0.00     0.147 C 
BRANCH   8   9
HETATM    9  N   UNL     1     -43.726 -52.072  12.666  1.00  0.00    -0.202 NA
HETATM   10  H   UNL     1     -43.534 -51.749  13.614  1.00  0.00     0.141 HD
BRANCH   9  11
HETATM   11  S   UNL     1     -44.995 -53.148  12.779  1.00  0.00     0.281 S 
HETATM   12  O   UNL     1     -44.462 -54.444  12.439  1.00  0.00    -0.194 OA
HETATM   13  O   UNL     1     -46.109 -52.596  12.043  1.00  0.00    -0.194 OA
BRANCH  11  14
HETATM   14  N   UNL     1     -45.397 -53.143  14.431  1.00  0.00    -0.198 NA
BRANCH  14  15
HETATM   15  C   UNL     1     -44.538 -54.124  15.178  1.00  0.00     0.104 C 
HETATM   16  C   UNL     1     -43.576 -53.489  16.168  1.00  0.00     0.021 C 
ENDBRANCH  14  15
BRANCH  14  17
HETATM   17  C   UNL     1     -45.571 -51.825  15.105  1.00  0.00     0.104 C 
HETATM   18  C   UNL     1     -47.011 -51.422  15.347  1.00  0.00     0.021 C 
ENDBRANCH  14  17
ENDBRANCH  11  14
ENDBRANCH   9  11
ENDBRANCH   8   9
ENDBRANCH   1   8
BRANCH   7  19
HETATM   19  N   UNL     1     -40.562 -50.487  12.893  1.00  0.00    -0.363 N 
HETATM   20  C   UNL     1     -39.826 -50.046  11.696  1.00  0.00     0.150 C 
HETATM   21  C   UNL     1     -39.045 -48.756  11.979  1.00  0.00     0.187 C 
HETATM   22  O   UNL     1     -39.909 -47.728  12.490  1.00  0.00    -0.388 OA
HETATM   23  C   UNL     1     -40.471 -48.153  13.736  1.00  0.00     0.187 C 
HETATM   24  C   UNL     1     -41.299 -49.438  13.597  1.00  0.00     0.150 C 
ENDBRANCH   7  19
TORSDOF 7
ENDMDL
MODEL 7
REMARK VINA RESULT:      -5.2      2.273      5.612
REMARK  7 active torsions:
REMARK  status: ('A' for Active; 'I' for Inactive)
REMARK    1  A    between atoms: C_2  and  N_3 
REMARK    2  A    between atoms: N_3  and  C_4 
REMARK    3  A    between atoms: N_3  and  S_6 
REMARK    4  A    between atoms: S_6  and  N_9 
REMARK    5  A    between atoms: N_9  and  C_10 
REMARK    6  A    between atoms: C_10  and  C_11 
REMARK    7  A    between atoms: C_17  and  N_18 
ROOT
HETATM    1  C   UNL     1     -41.428 -53.277  13.202  1.00  0.00    -0.000 A 
HETATM    2  C   UNL     1     -40.043 -53.502  13.343  1.00  0.00     0.013 A 
HETATM    3  C   UNL     1     -39.549 -54.258  14.395  1.00  0.00     0.018 A 
HETATM    4  C   UNL     1     -40.462 -54.786  15.275  1.00  0.00     0.089 A 
HETATM    5  N   UNL     1     -41.795 -54.612  15.161  1.00  0.00    -0.352 N 
ATOM      6  HN  UNL     1     -42.425 -55.034  15.844  1.00  0.00     0.166 HD
HETATM    7  C   UNL     1     -42.299 -53.876  14.136  1.00  0.00     0.110 A 
ENDROOT
BRANCH   1   8
HETATM    8  C   UNL     1     -41.940 -52.344  12.123  1.00  0.00     0.147 C 
BRANCH   8   9
HETATM    9  N   UNL     1     -40.914 -51.492  11.489  1.00  0.00    -0.202 NA
HETATM   10  H   UNL     1     -39.977 -51.834  11.702  1.00  0.00     0.141 HD
BRANCH   9  11
HETATM   11  S   UNL     1     -40.943 -49.883  11.928  1.00  0.00     0.281 S 
HETATM   12  O   UNL     1     -41.921 -49.766  12.982  1.00  0.00    -0.194 OA
HETATM   13  O   UNL     1     -41.067 -49.098  10.722  1.00  0.00    -0.194 OA
BRANCH  11  14
HETATM   14  N   UNL     1     -39.401 -49.604  12.585  1.00  0.00    -0.198 NA
BRANCH  14  15
HETATM   15  C   UNL     1     -39.504 -49.349  14.063  1.00  0.00     0.104 C 
HETATM   16  C   UNL     1     -38.926 -50.455  14.932  1.00  0.00     0.021 C 
ENDBRANCH  14  15
BRANCH  14  17
HETATM   17  C   UNL     1     -38.293 -50.518  12.185  1.00  0.00     0.104 C 
HETATM   18  C   UNL     1     -37.364 -49.962  11.126  1.00  0.00     0.021 C 
ENDBRANCH  14  17
ENDBRANCH  11  14
ENDBRANCH   9  11
ENDBRANCH   8   9
ENDBRANCH   1   8
BRANCH   7  19
HETATM   19  N   UNL     1     -43.669 -53.751  14.118  1.00  0.00    -0.363 N 
HETATM   20  C   UNL     1     -44.322 -52.948  15.165  1.00  0.00     0.150 C 
HETATM   21  C   UNL     1     -45.474 -53.727  15.812  1.00  0.00     0.187 C 
HETATM   22  O   UNL     1     -46.410 -54.187  14.824  1.00  0.00    -0.388 OA
HETATM   23  C   UNL     1     -45.752 -55.090  13.929  1.00  0.00     0.187 C 
HETATM   24  C   UNL     1     -44.575 -54.432  13.193  1.00  0.00     0.150 C 
ENDBRANCH   7  19
TORSDOF 7
ENDMDL
MODEL 8
REMARK VINA RESULT:      -5.1      2.402      5.561
REMARK  7 active torsions:
REMARK  status: ('A' for Active; 'I' for Inactive)
REMARK    1  A    between atoms: C_2  and  N_3 
REMARK    2  A    between atoms: N_3  and  C_4 
REMARK    3  A    between atoms: N_3  and  S_6 
REMARK    4  A    between atoms: S_6  and  N_9 
REMARK    5  A    between atoms: N_9  and  C_10 
REMARK    6  A    between atoms: C_10  and  C_11 
REMARK    7  A    between atoms: C_17  and  N_18 
ROOT
HETATM    1  C   UNL     1     -40.731 -54.093  13.867  1.00  0.00    -0.000 A 
HETATM    2  C   UNL     1     -39.391 -54.512  13.998  1.00  0.00     0.013 A 
HETATM    3  C   UNL     1     -38.952 -55.143  15.152  1.00  0.00     0.018 A 
HETATM    4  C   UNL     1     -39.876 -55.351  16.147  1.00  0.00     0.089 A 
HETATM    5  N   UNL     1     -41.172 -54.985  16.051  1.00  0.00    -0.352 N 
ATOM      6  HN  UNL     1     -41.813 -55.172  16.821  1.00  0.00     0.166 HD
HETATM    7  C   UNL     1     -41.622 -54.368  14.927  1.00  0.00     0.110 A 
ENDROOT
BRANCH   1   8
HETATM    8  C   UNL     1     -41.163 -53.293  12.654  1.00  0.00     0.147 C 
BRANCH   8   9
HETATM    9  N   UNL     1     -40.150 -52.357  12.125  1.00  0.00    -0.202 NA
HETATM   10  H   UNL     1     -39.237 -52.537  12.544  1.00  0.00     0.141 HD
BRANCH   9  11
HETATM   11  S   UNL     1     -40.471 -50.738  12.366  1.00  0.00     0.281 S 
HETATM   12  O   UNL     1     -41.406 -50.667  13.462  1.00  0.00    -0.194 OA
HETATM   13  O   UNL     1     -40.797 -50.157  11.084  1.00  0.00    -0.194 OA
BRANCH  11  14
HETATM   14  N   UNL     1     -38.985 -50.091  12.878  1.00  0.00    -0.198 NA
BRANCH  14  15
HETATM   15  C   UNL     1     -38.183 -51.139  13.597  1.00  0.00     0.104 C 
HETATM   16  C   UNL     1     -38.316 -51.103  15.110  1.00  0.00     0.021 C 
ENDBRANCH  14  15
BRANCH  14  17
HETATM   17  C   UNL     1     -38.210 -49.266  11.908  1.00  0.00     0.104 C 
HETATM   18  C   UNL     1     -37.240 -50.046  11.045  1.00  0.00     0.021 C 
ENDBRANCH  14  17
ENDBRANCH  11  14
ENDBRANCH   9  11
ENDBRANCH   8   9
ENDBRANCH   1   8
BRANCH   7  19
HETATM   19  N   UNL     1     -42.954 -54.027  14.935  1.00  0.00    -0.363 N 
HETATM   20  C   UNL     1     -43.936 -54.986  14.401  1.00  0.00     0.150 C 
HETATM   21  C   UNL     1     -44.870 -54.306  13.392  1.00  0.00     0.187 C 
HETATM   22  O   UNL     1     -45.503 -53.151  13.966  1.00  0.00    -0.388 OA
HETATM   23  C   UNL     1     -44.505 -52.188  14.319  1.00  0.00     0.187 C 
HETATM   24  C   UNL     1     -43.501 -52.733  15.345  1.00  0.00     0.150 C 
ENDBRANCH   7  19
TORSDOF 7
ENDMDL
MODEL 9
REMARK VINA RESULT:      -5.1      2.110      3.244
REMARK  7 active torsions:
REMARK  status: ('A' for Active; 'I' for Inactive)
REMARK    1  A    between atoms: C_2  and  N_3 
REMARK    2  A    between atoms: N_3  and  C_4 
REMARK    3  A    between atoms: N_3  and  S_6 
REMARK    4  A    between atoms: S_6  and  N_9 
REMARK    5  A    between atoms: N_9  and  C_10 
REMARK    6  A    between atoms: C_10  and  C_11 
REMARK    7  A    between atoms: C_17  and  N_18 
ROOT
HETATM    1  C   UNL     1     -42.101 -54.330  15.906  1.00  0.00    -0.000 A 
HETATM    2  C   UNL     1     -42.329 -55.268  16.935  1.00  0.00     0.013 A 
HETATM    3  C   UNL     1     -41.349 -56.179  17.296  1.00  0.00     0.018 A 
HETATM    4  C   UNL     1     -40.153 -56.120  16.622  1.00  0.00     0.089 A 
HETATM    5  N   UNL     1     -39.889 -55.223  15.648  1.00  0.00    -0.352 N 
ATOM      6  HN  UNL     1     -38.979 -55.224  15.188  1.00  0.00     0.166 HD
HETATM    7  C   UNL     1     -40.836 -54.320  15.282  1.00  0.00     0.110 A 
ENDROOT
BRANCH   1   8
HETATM    8  C   UNL     1     -43.226 -53.427  15.439  1.00  0.00     0.147 C 
BRANCH   8   9
HETATM    9  N   UNL     1     -43.934 -53.882  14.225  1.00  0.00    -0.202 NA
HETATM   10  H   UNL     1     -43.985 -53.133  13.534  1.00  0.00     0.141 HD
BRANCH   9  11
HETATM   11  S   UNL     1     -45.497 -54.415  14.461  1.00  0.00     0.281 S 
HETATM   12  O   UNL     1     -45.643 -54.635  15.879  1.00  0.00    -0.194 OA
HETATM   13  O   UNL     1     -45.744 -55.486  13.523  1.00  0.00    -0.194 OA
BRANCH  11  14
HETATM   14  N   UNL     1     -46.461 -53.089  14.015  1.00  0.00    -0.198 NA
BRANCH  14  15
HETATM   15  C   UNL     1     -47.046 -52.438  15.237  1.00  0.00     0.104 C 
HETATM   16  C   UNL     1     -46.320 -51.180  15.686  1.00  0.00     0.021 C 
ENDBRANCH  14  15
BRANCH  14  17
HETATM   17  C   UNL     1     -45.920 -52.141  13.000  1.00  0.00     0.104 C 
HETATM   18  C   UNL     1     -46.866 -51.825  11.860  1.00  0.00     0.021 C 
ENDBRANCH  14  17
ENDBRANCH  11  14
ENDBRANCH   9  11
ENDBRANCH   8   9
ENDBRANCH   1   8
BRANCH   7  19
HETATM   19  N   UNL     1     -40.471 -53.460  14.273  1.00  0.00    -0.363 N 
HETATM   20  C   UNL     1     -39.946 -52.130  14.629  1.00  0.00     0.150 C 
HETATM   21  C   UNL     1     -40.675 -51.029  13.849  1.00  0.00     0.187 C 
HETATM   22  O   UNL     1     -40.618 -51.270  12.434  1.00  0.00    -0.388 OA
HETATM   23  C   UNL     1     -41.284 -52.500  12.132  1.00  0.00     0.187 C 
HETATM   24  C   UNL     1     -40.644 -53.702  12.841  1.00  0.00     0.150 C 
ENDBRANCH   7  19
TORSDOF 7
ENDMDL
