MODEL 1
REMARK VINA RESULT:      -7.0      0.000      0.000
REMARK  4 active torsions:
REMARK  status: ('A' for Active; 'I' for Inactive)
REMARK    1  A    between atoms: N_4  and  C_5 
REMARK    2  A    between atoms: C_5  and  C_6 
REMARK    3  A    between atoms: C_6  and  N_7 
REMARK       I    between atoms: N_7  and  C_8 
REMARK       I    between atoms: C_8  and  N_10 
REMARK    4  A    between atoms: N_10  and  C_11 
ROOT
HETATM    1  N   UNL     1     -41.531 -50.075  11.284  1.00  0.00    -0.341 N 
HETATM    2  C   UNL     1     -40.652 -49.061  11.103  1.00  0.00     0.321 C 
HETATM    3  O   UNL     1     -39.516 -49.050  11.572  1.00  0.00    -0.247 OA
HETATM    4  N   UNL     1     -41.108 -47.980  10.401  1.00  0.00    -0.294 N 
HETATM    5  H   UNL     1     -42.404 -49.987  10.768  1.00  0.00     0.164 HD
HETATM    6  H   UNL     1     -40.441 -47.224  10.385  1.00  0.00     0.172 HD
ENDROOT
BRANCH   1   7
HETATM    7  C   UNL     1     -41.270 -51.285  12.021  1.00  0.00     0.154 C 
BRANCH   7   8
HETATM    8  C   UNL     1     -41.868 -51.258  13.442  1.00  0.00     0.292 C 
BRANCH   8   9
HETATM    9  N   UNL     1     -43.060 -52.117  13.583  1.00  0.00     0.095 N 
HETATM   10  C   UNL     1     -42.991 -53.331  12.747  1.00  0.00     0.303 C 
HETATM   11  C   UNL     1     -44.241 -54.219  12.925  1.00  0.00     0.146 C 
HETATM   12  C   UNL     1     -44.306 -54.874  14.305  1.00  0.00     0.041 C 
HETATM   13  O   UNL     1     -45.438 -53.483  12.630  1.00  0.00    -0.378 OA
HETATM   14  C   UNL     1     -45.544 -52.271  13.397  1.00  0.00     0.146 C 
HETATM   15  C   UNL     1     -44.292 -51.380  13.222  1.00  0.00     0.303 C 
HETATM   16  C   UNL     1     -46.801 -51.552  12.926  1.00  0.00     0.041 C 
ENDBRANCH   8   9
ENDBRANCH   7   8
ENDBRANCH   1   7
BRANCH   4  17
HETATM   17  C   UNL     1     -42.378 -47.782   9.839  1.00  0.00     0.114 A 
HETATM   18  N   UNL     1     -42.540 -48.049   8.518  1.00  0.00    -0.352 N 
HETATM   19  C   UNL     1     -43.774 -47.933   7.987  1.00  0.00     0.089 A 
ATOM     20  HN  UNL     1     -41.748 -48.332   7.942  1.00  0.00     0.166 HD
HETATM   21  C   UNL     1     -44.885 -47.589   8.722  1.00  0.00     0.018 A 
HETATM   22  C   UNL     1     -44.711 -47.299  10.071  1.00  0.00     0.012 A 
HETATM   23  C   UNL     1     -43.435 -47.365  10.651  1.00  0.00    -0.018 A 
HETATM   24  C   UNL     1     -43.268 -47.030  12.104  1.00  0.00     0.052 C 
ENDBRANCH   4  17
TORSDOF 4
ENDMDL
MODEL 2
REMARK VINA RESULT:      -6.6      1.990      3.005
REMARK  4 active torsions:
REMARK  status: ('A' for Active; 'I' for Inactive)
REMARK    1  A    between atoms: N_4  and  C_5 
REMARK    2  A    between atoms: C_5  and  C_6 
REMARK    3  A    between atoms: C_6  and  N_7 
REMARK       I    between atoms: N_7  and  C_8 
REMARK       I    between atoms: C_8  and  N_10 
REMARK    4  A    between atoms: N_10  and  C_11 
ROOT
HETATM    1  N   UNL     1     -41.160 -51.118  13.472  1.00  0.00    -0.341 N 
HETATM    2  C   UNL     1     -40.420 -51.716  12.509  1.00  0.00     0.321 C 
HETATM    3  O   UNL     1     -40.088 -52.898  12.539  1.00  0.00    -0.247 OA
HETATM    4  N   UNL     1     -39.988 -50.914  11.489  1.00  0.00    -0.294 N 
HETATM    5  H   UNL     1     -41.431 -50.157  13.274  1.00  0.00     0.164 HD
HETATM    6  H   UNL     1     -39.365 -51.396  10.860  1.00  0.00     0.172 HD
ENDROOT
BRANCH   1   7
HETATM    7  C   UNL     1     -41.682 -51.766  14.648  1.00  0.00     0.154 C 
BRANCH   7   8
HETATM    8  C   UNL     1     -43.116 -51.314  14.991  1.00  0.00     0.292 C 
BRANCH   8   9
HETATM    9  N   UNL     1     -44.152 -52.180  14.395  1.00  0.00     0.095 N 
HETATM   10  C   UNL     1     -43.585 -53.325  13.658  1.00  0.00     0.303 C 
HETATM   11  C   UNL     1     -44.689 -54.222  13.059  1.00  0.00     0.146 C 
HETATM   12  C   UNL     1     -45.474 -54.982  14.127  1.00  0.00     0.041 C 
HETATM   13  O   UNL     1     -45.557 -53.464  12.202  1.00  0.00    -0.378 OA
HETATM   14  C   UNL     1     -46.117 -52.314  12.861  1.00  0.00     0.146 C 
HETATM   15  C   UNL     1     -45.012 -51.415  13.464  1.00  0.00     0.303 C 
HETATM   16  C   UNL     1     -46.937 -51.559  11.824  1.00  0.00     0.041 C 
ENDBRANCH   8   9
ENDBRANCH   7   8
ENDBRANCH   1   7
BRANCH   4  17
HETATM   17  C   UNL     1     -40.214 -49.542  11.308  1.00  0.00     0.114 A 
HETATM   18  N   UNL     1     -41.288 -49.162  10.569  1.00  0.00    -0.352 N 
HETATM   19  C   UNL     1     -41.554 -47.846  10.452  1.00  0.00     0.089 A 
ATOM     20  HN  UNL     1     -41.879 -49.857  10.114  1.00  0.00     0.166 HD
HETATM   21  C   UNL     1     -40.812 -46.866  11.071  1.00  0.00     0.018 A 
HETATM   22  C   UNL     1     -39.702 -47.258  11.812  1.00  0.00     0.012 A 
HETATM   23  C   UNL     1     -39.366 -48.616  11.920  1.00  0.00    -0.018 A 
HETATM   24  C   UNL     1     -38.154 -49.014  12.711  1.00  0.00     0.052 C 
ENDBRANCH   4  17
TORSDOF 4
ENDMDL
MODEL 3
REMARK VINA RESULT:      -6.5      2.065      6.643
REMARK  4 active torsions:
REMARK  status: ('A' for Active; 'I' for Inactive)
REMARK    1  A    between atoms: N_4  and  C_5 
REMARK    2  A    between atoms: C_5  and  C_6 
REMARK    3  A    between atoms: C_6  and  N_7 
REMARK       I    between atoms: N_7  and  C_8 
REMARK       I    between atoms: C_8  and  N_10 
REMARK    4  A    between atoms: N_10  and  C_11 
ROOT
HETATM    1  N   UNL     1     -42.161 -50.414  13.210  1.00  0.00    -0.341 N 
HETATM    2  C   UNL     1     -41.671 -51.047  12.118  1.00  0.00     0.321 C 
HETATM    3  O   UNL     1     -40.827 -50.561  11.368  1.00  0.00    -0.247 OA
HETATM    4  N   UNL     1     -42.209 -52.271  11.832  1.00  0.00    -0.294 N 
HETATM    5  H   UNL     1     -42.791 -50.969  13.785  1.00  0.00     0.164 HD
HETATM    6  H   UNL     1     -41.872 -52.644  10.958  1.00  0.00     0.172 HD
ENDROOT
BRANCH   1   7
HETATM    7  C   UNL     1     -41.762 -49.107  13.667  1.00  0.00     0.154 C 
BRANCH   7   8
HETATM    8  C   UNL     1     -42.736 -47.997  13.222  1.00  0.00     0.292 C 
BRANCH   8   9
HETATM    9  N   UNL     1     -42.324 -47.337  11.968  1.00  0.00     0.095 N 
HETATM   10  C   UNL     1     -42.361 -45.865  12.058  1.00  0.00     0.303 C 
HETATM   11  C   UNL     1     -41.911 -45.201  10.740  1.00  0.00     0.146 C 
HETATM   12  C   UNL     1     -40.420 -45.393  10.463  1.00  0.00     0.041 C 
HETATM   13  O   UNL     1     -42.716 -45.649   9.639  1.00  0.00    -0.378 OA
HETATM   14  C   UNL     1     -42.742 -47.082   9.520  1.00  0.00     0.146 C 
HETATM   15  C   UNL     1     -43.190 -47.751  10.841  1.00  0.00     0.303 C 
HETATM   16  C   UNL     1     -43.693 -47.420   8.381  1.00  0.00     0.041 C 
ENDBRANCH   8   9
ENDBRANCH   7   8
ENDBRANCH   1   7
BRANCH   4  17
HETATM   17  C   UNL     1     -43.211 -52.962  12.529  1.00  0.00     0.114 A 
HETATM   18  N   UNL     1     -44.505 -52.681  12.233  1.00  0.00    -0.352 N 
HETATM   19  C   UNL     1     -45.473 -53.392  12.844  1.00  0.00     0.089 A 
ATOM     20  HN  UNL     1     -44.740 -51.948  11.563  1.00  0.00     0.166 HD
HETATM   21  C   UNL     1     -45.217 -54.414  13.730  1.00  0.00     0.018 A 
HETATM   22  C   UNL     1     -43.890 -54.687  14.044  1.00  0.00     0.012 A 
HETATM   23  C   UNL     1     -42.855 -53.938  13.463  1.00  0.00    -0.018 A 
HETATM   24  C   UNL     1     -41.432 -54.239  13.830  1.00  0.00     0.052 C 
ENDBRANCH   4  17
TORSDOF 4
ENDMDL
MODEL 4
REMARK VINA RESULT:      -6.4      2.234      6.515
REMARK  4 active torsions:
REMARK  status: ('A' for Active; 'I' for Inactive)
REMARK    1  A    between atoms: N_4  and  C_5 
REMARK    2  A    between atoms: C_5  and  C_6 
REMARK    3  A    between atoms: C_6  and  N_7 
REMARK       I    between atoms: N_7  and  C_8 
REMARK       I    between atoms: C_8  and  N_10 
REMARK    4  A    between atoms: N_10  and  C_11 
ROOT
HETATM    1  N   UNL     1     -41.859 -50.833  11.843  1.00  0.00    -0.341 N 
HETATM    2  C   UNL     1     -41.598 -52.077  12.309  1.00  0.00     0.321 C 
HETATM    3  O   UNL     1     -40.514 -52.642  12.177  1.00  0.00    -0.247 OA
HETATM    4  N   UNL     1     -42.638 -52.734  12.904  1.00  0.00    -0.294 N 
HETATM    5  H   UNL     1     -42.771 -50.459  12.098  1.00  0.00     0.164 HD
HETATM    6  H   UNL     1     -42.406 -53.686  13.141  1.00  0.00     0.172 HD
ENDROOT
BRANCH   1   7
HETATM    7  C   UNL     1     -40.921 -49.985  11.154  1.00  0.00     0.154 C 
BRANCH   7   8
HETATM    8  C   UNL     1     -40.590 -48.700  11.940  1.00  0.00     0.292 C 
BRANCH   8   9
HETATM    9  N   UNL     1     -40.752 -47.473  11.136  1.00  0.00     0.095 N 
HETATM   10  C   UNL     1     -40.525 -46.243  11.919  1.00  0.00     0.303 C 
HETATM   11  C   UNL     1     -40.684 -44.977  11.051  1.00  0.00     0.146 C 
HETATM   12  C   UNL     1     -39.565 -44.823  10.022  1.00  0.00     0.041 C 
HETATM   13  O   UNL     1     -41.980 -44.938  10.434  1.00  0.00    -0.378 OA
HETATM   14  C   UNL     1     -42.269 -46.129   9.680  1.00  0.00     0.146 C 
HETATM   15  C   UNL     1     -42.107 -47.400  10.547  1.00  0.00     0.303 C 
HETATM   16  C   UNL     1     -43.693 -45.994   9.159  1.00  0.00     0.041 C 
ENDBRANCH   8   9
ENDBRANCH   7   8
ENDBRANCH   1   7
BRANCH   4  17
HETATM   17  C   UNL     1     -43.953 -52.284  13.097  1.00  0.00     0.114 A 
HETATM   18  N   UNL     1     -44.879 -52.592  12.153  1.00  0.00    -0.352 N 
HETATM   19  C   UNL     1     -46.159 -52.227  12.367  1.00  0.00     0.089 A 
ATOM     20  HN  UNL     1     -44.612 -53.088  11.303  1.00  0.00     0.166 HD
HETATM   21  C   UNL     1     -46.583 -51.587  13.509  1.00  0.00     0.018 A 
HETATM   22  C   UNL     1     -45.628 -51.257  14.464  1.00  0.00     0.012 A 
HETATM   23  C   UNL     1     -44.278 -51.580  14.259  1.00  0.00    -0.018 A 
HETATM   24  C   UNL     1     -43.263 -51.199  15.296  1.00  0.00     0.052 C 
ENDBRANCH   4  17
TORSDOF 4
ENDMDL
MODEL 5
REMARK VINA RESULT:      -6.3      1.637      2.510
REMARK  4 active torsions:
REMARK  status: ('A' for Active; 'I' for Inactive)
REMARK    1  A    between atoms: N_4  and  C_5 
REMARK    2  A    between atoms: C_5  and  C_6 
REMARK    3  A    between atoms: C_6  and  N_7 
REMARK       I    between atoms: N_7  and  C_8 
REMARK       I    between atoms: C_8  and  N_10 
REMARK    4  A    between atoms: N_10  and  C_11 
ROOT
HETATM    1  N   UNL     1     -42.354 -50.089  11.921  1.00  0.00    -0.341 N 
HETATM    2  C   UNL     1     -41.085 -49.901  11.486  1.00  0.00     0.321 C 
HETATM    3  O   UNL     1     -40.127 -50.570  11.866  1.00  0.00    -0.247 OA
HETATM    4  N   UNL     1     -40.888 -48.864  10.618  1.00  0.00    -0.294 N 
HETATM    5  H   UNL     1     -43.058 -49.519  11.458  1.00  0.00     0.164 HD
HETATM    6  H   UNL     1     -39.913 -48.718  10.408  1.00  0.00     0.172 HD
ENDROOT
BRANCH   1   7
HETATM    7  C   UNL     1     -42.773 -51.097  12.862  1.00  0.00     0.154 C 
BRANCH   7   8
HETATM    8  C   UNL     1     -42.533 -52.530  12.347  1.00  0.00     0.292 C 
BRANCH   8   9
HETATM    9  N   UNL     1     -43.184 -53.559  13.180  1.00  0.00     0.095 N 
HETATM   10  C   UNL     1     -44.399 -53.064  13.855  1.00  0.00     0.303 C 
HETATM   11  C   UNL     1     -45.068 -54.164  14.705  1.00  0.00     0.146 C 
HETATM   12  C   UNL     1     -45.693 -55.268  13.854  1.00  0.00     0.041 C 
HETATM   13  O   UNL     1     -44.149 -54.695  15.672  1.00  0.00    -0.378 OA
HETATM   14  C   UNL     1     -42.930 -55.168  15.072  1.00  0.00     0.146 C 
HETATM   15  C   UNL     1     -42.257 -54.068  14.217  1.00  0.00     0.303 C 
HETATM   16  C   UNL     1     -42.018 -55.617  16.206  1.00  0.00     0.041 C 
ENDBRANCH   8   9
ENDBRANCH   7   8
ENDBRANCH   1   7
BRANCH   4  17
HETATM   17  C   UNL     1     -41.837 -47.960  10.115  1.00  0.00     0.114 A 
HETATM   18  N   UNL     1     -42.547 -48.325   9.016  1.00  0.00    -0.352 N 
HETATM   19  C   UNL     1     -43.511 -47.495   8.571  1.00  0.00     0.089 A 
ATOM     20  HN  UNL     1     -42.355 -49.206   8.540  1.00  0.00     0.166 HD
HETATM   21  C   UNL     1     -43.837 -46.311   9.192  1.00  0.00     0.018 A 
HETATM   22  C   UNL     1     -43.095 -45.933  10.305  1.00  0.00     0.012 A 
HETATM   23  C   UNL     1     -42.053 -46.748  10.773  1.00  0.00    -0.018 A 
HETATM   24  C   UNL     1     -41.256 -46.311  11.967  1.00  0.00     0.052 C 
ENDBRANCH   4  17
TORSDOF 4
ENDMDL
MODEL 6
REMARK VINA RESULT:      -6.1      2.236      3.512
REMARK  4 active torsions:
REMARK  status: ('A' for Active; 'I' for Inactive)
REMARK    1  A    between atoms: N_4  and  C_5 
REMARK    2  A    between atoms: C_5  and  C_6 
REMARK    3  A    between atoms: C_6  and  N_7 
REMARK       I    between atoms: N_7  and  C_8 
REMARK       I    between atoms: C_8  and  N_10 
REMARK    4  A    between atoms: N_10  and  C_11 
ROOT
HETATM    1  N   UNL     1     -41.157 -51.482  13.608  1.00  0.00    -0.341 N 
HETATM    2  C   UNL     1     -40.427 -52.068  12.631  1.00  0.00     0.321 C 
HETATM    3  O   UNL     1     -40.058 -53.240  12.663  1.00  0.00    -0.247 OA
HETATM    4  N   UNL     1     -40.049 -51.266  11.590  1.00  0.00    -0.294 N 
HETATM    5  H   UNL     1     -41.462 -50.532  13.409  1.00  0.00     0.164 HD
HETATM    6  H   UNL     1     -39.430 -51.736  10.948  1.00  0.00     0.172 HD
ENDROOT
BRANCH   1   7
HETATM    7  C   UNL     1     -41.625 -52.133  14.805  1.00  0.00     0.154 C 
BRANCH   7   8
HETATM    8  C   UNL     1     -42.788 -53.110  14.537  1.00  0.00     0.292 C 
BRANCH   8   9
HETATM    9  N   UNL     1     -44.112 -52.462  14.600  1.00  0.00     0.095 N 
HETATM   10  C   UNL     1     -45.045 -53.157  15.509  1.00  0.00     0.303 C 
HETATM   11  C   UNL     1     -46.415 -52.450  15.569  1.00  0.00     0.146 C 
HETATM   12  C   UNL     1     -46.349 -51.096  16.274  1.00  0.00     0.041 C 
HETATM   13  O   UNL     1     -46.993 -52.339  14.259  1.00  0.00    -0.378 OA
HETATM   14  C   UNL     1     -46.113 -51.695  13.321  1.00  0.00     0.146 C 
HETATM   15  C   UNL     1     -44.737 -52.399  13.260  1.00  0.00     0.303 C 
HETATM   16  C   UNL     1     -46.806 -51.723  11.966  1.00  0.00     0.041 C 
ENDBRANCH   8   9
ENDBRANCH   7   8
ENDBRANCH   1   7
BRANCH   4  17
HETATM   17  C   UNL     1     -40.321 -49.902  11.402  1.00  0.00     0.114 A 
HETATM   18  N   UNL     1     -41.521 -49.559  10.867  1.00  0.00    -0.352 N 
HETATM   19  C   UNL     1     -41.820 -48.249  10.751  1.00  0.00     0.089 A 
ATOM     20  HN  UNL     1     -42.179 -50.274  10.561  1.00  0.00     0.166 HD
HETATM   21  C   UNL     1     -40.986 -47.241  11.178  1.00  0.00     0.018 A 
HETATM   22  C   UNL     1     -39.751 -47.598  11.708  1.00  0.00     0.012 A 
HETATM   23  C   UNL     1     -39.384 -48.949  11.804  1.00  0.00    -0.018 A 
HETATM   24  C   UNL     1     -38.039 -49.308  12.364  1.00  0.00     0.052 C 
ENDBRANCH   4  17
TORSDOF 4
ENDMDL
MODEL 7
REMARK VINA RESULT:      -6.1      2.703      6.758
REMARK  4 active torsions:
REMARK  status: ('A' for Active; 'I' for Inactive)
REMARK    1  A    between atoms: N_4  and  C_5 
REMARK    2  A    between atoms: C_5  and  C_6 
REMARK    3  A    between atoms: C_6  and  N_7 
REMARK       I    between atoms: N_7  and  C_8 
REMARK       I    between atoms: C_8  and  N_10 
REMARK    4  A    between atoms: N_10  and  C_11 
ROOT
HETATM    1  N   UNL     1     -40.554 -51.812  13.938  1.00  0.00    -0.341 N 
HETATM    2  C   UNL     1     -39.944 -52.995  13.692  1.00  0.00     0.321 C 
HETATM    3  O   UNL     1     -38.726 -53.127  13.590  1.00  0.00    -0.247 OA
HETATM    4  N   UNL     1     -40.763 -54.072  13.497  1.00  0.00    -0.294 N 
HETATM    5  H   UNL     1     -41.560 -51.866  14.081  1.00  0.00     0.164 HD
HETATM    6  H   UNL     1     -40.252 -54.898  13.224  1.00  0.00     0.172 HD
ENDROOT
BRANCH   1   7
HETATM    7  C   UNL     1     -39.885 -50.552  14.136  1.00  0.00     0.154 C 
BRANCH   7   8
HETATM    8  C   UNL     1     -39.420 -49.910  12.813  1.00  0.00     0.292 C 
BRANCH   8   9
HETATM    9  N   UNL     1     -40.342 -48.869  12.321  1.00  0.00     0.095 N 
HETATM   10  C   UNL     1     -41.246 -49.360  11.263  1.00  0.00     0.303 C 
HETATM   11  C   UNL     1     -42.210 -48.257  10.779  1.00  0.00     0.146 C 
HETATM   12  C   UNL     1     -43.250 -47.879  11.833  1.00  0.00     0.041 C 
HETATM   13  O   UNL     1     -41.484 -47.109  10.314  1.00  0.00    -0.378 OA
HETATM   14  C   UNL     1     -40.563 -46.603  11.297  1.00  0.00     0.146 C 
HETATM   15  C   UNL     1     -39.597 -47.707  11.787  1.00  0.00     0.303 C 
HETATM   16  C   UNL     1     -39.804 -45.454  10.649  1.00  0.00     0.041 C 
ENDBRANCH   8   9
ENDBRANCH   7   8
ENDBRANCH   1   7
BRANCH   4  17
HETATM   17  C   UNL     1     -42.165 -54.112  13.517  1.00  0.00     0.114 A 
HETATM   18  N   UNL     1     -42.834 -53.615  12.445  1.00  0.00    -0.352 N 
HETATM   19  C   UNL     1     -44.178 -53.716  12.424  1.00  0.00     0.089 A 
ATOM     20  HN  UNL     1     -42.331 -53.176  11.674  1.00  0.00     0.166 HD
HETATM   21  C   UNL     1     -44.906 -54.327  13.419  1.00  0.00     0.018 A 
HETATM   22  C   UNL     1     -44.219 -54.819  14.523  1.00  0.00     0.012 A 
HETATM   23  C   UNL     1     -42.823 -54.693  14.603  1.00  0.00    -0.018 A 
HETATM   24  C   UNL     1     -42.105 -55.215  15.812  1.00  0.00     0.052 C 
ENDBRANCH   4  17
TORSDOF 4
ENDMDL
MODEL 8
REMARK VINA RESULT:      -5.9      3.270      6.496
REMARK  4 active torsions:
REMARK  status: ('A' for Active; 'I' for Inactive)
REMARK    1  A    between atoms: N_4  and  C_5 
REMARK    2  A    between atoms: C_5  and  C_6 
REMARK    3  A    between atoms: C_6  and  N_7 
REMARK       I    between atoms: N_7  and  C_8 
REMARK       I    between atoms: C_8  and  N_10 
REMARK    4  A    between atoms: N_10  and  C_11 
ROOT
HETATM    1  N   UNL     1     -42.628 -53.902  14.611  1.00  0.00    -0.341 N 
HETATM    2  C   UNL     1     -43.468 -54.874  15.038  1.00  0.00     0.321 C 
HETATM    3  O   UNL     1     -43.090 -55.948  15.501  1.00  0.00    -0.247 OA
HETATM    4  N   UNL     1     -44.805 -54.636  14.878  1.00  0.00    -0.294 N 
HETATM    5  H   UNL     1     -43.079 -53.034  14.331  1.00  0.00     0.164 HD
HETATM    6  H   UNL     1     -45.369 -55.434  15.125  1.00  0.00     0.172 HD
ENDROOT
BRANCH   1   7
HETATM    7  C   UNL     1     -41.189 -53.964  14.652  1.00  0.00     0.154 C 
BRANCH   7   8
HETATM    8  C   UNL     1     -40.553 -53.978  13.247  1.00  0.00     0.292 C 
BRANCH   8   9
HETATM    9  N   UNL     1     -39.938 -52.689  12.879  1.00  0.00     0.095 N 
HETATM   10  C   UNL     1     -39.232 -52.050  14.006  1.00  0.00     0.303 C 
HETATM   11  C   UNL     1     -38.584 -50.713  13.590  1.00  0.00     0.146 C 
HETATM   12  C   UNL     1     -37.405 -50.901  12.637  1.00  0.00     0.041 C 
HETATM   13  O   UNL     1     -39.565 -49.815  13.049  1.00  0.00    -0.378 OA
HETATM   14  C   UNL     1     -40.307 -50.397  11.963  1.00  0.00     0.146 C 
HETATM   15  C   UNL     1     -40.956 -51.739  12.376  1.00  0.00     0.303 C 
HETATM   16  C   UNL     1     -41.362 -49.381  11.546  1.00  0.00     0.041 C 
ENDBRANCH   8   9
ENDBRANCH   7   8
ENDBRANCH   1   7
BRANCH   4  17
HETATM   17  C   UNL     1     -45.425 -53.506  14.324  1.00  0.00     0.114 A 
HETATM   18  N   UNL     1     -45.496 -53.415  12.972  1.00  0.00    -0.352 N 
HETATM   19  C   UNL     1     -46.155 -52.369  12.433  1.00  0.00     0.089 A 
ATOM     20  HN  UNL     1     -45.062 -54.121  12.378  1.00  0.00     0.166 HD
HETATM   21  C   UNL     1     -46.788 -51.405  13.184  1.00  0.00     0.018 A 
HETATM   22  C   UNL     1     -46.697 -51.493  14.568  1.00  0.00     0.012 A 
HETATM   23  C   UNL     1     -45.982 -52.541  15.167  1.00  0.00    -0.018 A 
HETATM   24  C   UNL     1     -45.883 -52.605  16.663  1.00  0.00     0.052 C 
ENDBRANCH   4  17
TORSDOF 4
ENDMDL
MODEL 9
REMARK VINA RESULT:      -5.9      2.556      6.521
REMARK  4 active torsions:
REMARK  status: ('A' for Active; 'I' for Inactive)
REMARK    1  A    between atoms: N_4  and  C_5 
REMARK    2  A    between atoms: C_5  and  C_6 
REMARK    3  A    between atoms: C_6  and  N_7 
REMARK       I    between atoms: N_7  and  C_8 
REMARK       I    between atoms: C_8  and  N_10 
REMARK    4  A    between atoms: N_10  and  C_11 
ROOT
HETATM    1  N   UNL     1     -41.798 -51.091  11.906  1.00  0.00    -0.341 N 
HETATM    2  C   UNL     1     -41.661 -52.395  12.242  1.00  0.00     0.321 C 
HETATM    3  O   UNL     1     -40.645 -53.052  12.030  1.00  0.00    -0.247 OA
HETATM    4  N   UNL     1     -42.756 -52.997  12.798  1.00  0.00    -0.294 N 
HETATM    5  H   UNL     1     -42.662 -50.652  12.218  1.00  0.00     0.164 HD
HETATM    6  H   UNL     1     -42.620 -53.987  12.936  1.00  0.00     0.172 HD
ENDROOT
BRANCH   1   7
HETATM    7  C   UNL     1     -40.786 -50.279  11.278  1.00  0.00     0.154 C 
BRANCH   7   8
HETATM    8  C   UNL     1     -40.026 -49.391  12.283  1.00  0.00     0.292 C 
BRANCH   8   9
HETATM    9  N   UNL     1     -40.507 -47.997  12.301  1.00  0.00     0.095 N 
HETATM   10  C   UNL     1     -40.908 -47.514  10.965  1.00  0.00     0.303 C 
HETATM   11  C   UNL     1     -41.421 -46.060  11.015  1.00  0.00     0.146 C 
HETATM   12  C   UNL     1     -42.764 -45.933  11.735  1.00  0.00     0.041 C 
HETATM   13  O   UNL     1     -40.433 -45.185  11.580  1.00  0.00    -0.378 OA
HETATM   14  C   UNL     1     -39.982 -45.625  12.874  1.00  0.00     0.146 C 
HETATM   15  C   UNL     1     -39.468 -47.083  12.827  1.00  0.00     0.303 C 
HETATM   16  C   UNL     1     -38.882 -44.667  13.313  1.00  0.00     0.041 C 
ENDBRANCH   8   9
ENDBRANCH   7   8
ENDBRANCH   1   7
BRANCH   4  17
HETATM   17  C   UNL     1     -44.013 -52.436  13.066  1.00  0.00     0.114 A 
HETATM   18  N   UNL     1     -44.997 -52.604  12.147  1.00  0.00    -0.352 N 
HETATM   19  C   UNL     1     -46.227 -52.131  12.430  1.00  0.00     0.089 A 
ATOM     20  HN  UNL     1     -44.810 -53.076  11.262  1.00  0.00     0.166 HD
HETATM   21  C   UNL     1     -46.547 -51.516  13.619  1.00  0.00     0.018 A 
HETATM   22  C   UNL     1     -45.531 -51.330  14.550  1.00  0.00     0.012 A 
HETATM   23  C   UNL     1     -44.227 -51.768  14.274  1.00  0.00    -0.018 A 
HETATM   24  C   UNL     1     -43.144 -51.541  15.287  1.00  0.00     0.052 C 
ENDBRANCH   4  17
TORSDOF 4
ENDMDL
