MODEL 1
REMARK VINA RESULT:      -5.7      0.000      0.000
REMARK  3 active torsions:
REMARK  status: ('A' for Active; 'I' for Inactive)
REMARK    1  A    between atoms: C_5  and  N_6 
REMARK       I    between atoms: N_6  and  C_7 
REMARK    2  A    between atoms: C_7  and  C_9 
REMARK    3  A    between atoms: C_9  and  C_10 
ROOT
HETATM    1  N   UNL     1     -43.810 -50.197  12.909  1.00  0.00    -0.353 N 
HETATM    2  C   UNL     1     -42.748 -49.333  12.757  1.00  0.00     0.222 C 
HETATM    3  O   UNL     1     -41.586 -49.651  12.992  1.00  0.00    -0.273 OA
HETATM    4  H   UNL     1     -44.749 -49.859  12.741  1.00  0.00     0.163 HD
ENDROOT
BRANCH   1   5
HETATM    5  C   UNL     1     -43.625 -51.557  13.399  1.00  0.00     0.121 C 
HETATM    6  C   UNL     1     -44.629 -52.521  12.782  1.00  0.00     0.065 C 
HETATM    7  C   UNL     1     -45.252 -53.286  13.946  1.00  0.00     0.057 C 
HETATM    8  C   UNL     1     -45.224 -54.798  13.710  1.00  0.00     0.045 C 
HETATM    9  C   UNL     1     -46.701 -52.860  14.200  1.00  0.00     0.045 C 
HETATM   10  O   UNL     1     -44.465 -52.995  15.111  1.00  0.00    -0.369 OA
HETATM   11  C   UNL     1     -43.754 -51.751  14.927  1.00  0.00     0.075 C 
HETATM   12  C   UNL     1     -42.384 -51.896  15.598  1.00  0.00     0.048 C 
HETATM   13  C   UNL     1     -44.531 -50.651  15.662  1.00  0.00     0.048 C 
ENDBRANCH   1   5
BRANCH   2  14
HETATM   14  C   UNL     1     -43.118 -47.954  12.243  1.00  0.00     0.142 C 
BRANCH  14  15
HETATM   15  C   UNL     1     -43.391 -47.884  10.763  1.00  0.00    -0.034 A 
HETATM   16  C   UNL     1     -44.686 -47.616  10.302  1.00  0.00     0.010 A 
HETATM   17  C   UNL     1     -44.927 -47.498   8.933  1.00  0.00     0.018 A 
HETATM   18  C   UNL     1     -43.862 -47.647   8.065  1.00  0.00     0.087 A 
HETATM   19  N   UNL     1     -42.597 -47.892   8.469  1.00  0.00    -0.375 N 
HETATM   20  C   UNL     1     -42.388 -47.990   9.804  1.00  0.00     0.095 A 
ATOM     21  HN  UNL     1     -41.835 -47.997   7.799  1.00  0.00     0.164 HD
ENDBRANCH  14  15
ENDBRANCH   2  14
TORSDOF 3
ENDMDL
MODEL 2
REMARK VINA RESULT:      -5.6      4.156      5.025
REMARK  3 active torsions:
REMARK  status: ('A' for Active; 'I' for Inactive)
REMARK    1  A    between atoms: C_5  and  N_6 
REMARK       I    between atoms: N_6  and  C_7 
REMARK    2  A    between atoms: C_7  and  C_9 
REMARK    3  A    between atoms: C_9  and  C_10 
ROOT
HETATM    1  N   UNL     1     -41.006 -53.443  14.875  1.00  0.00    -0.353 N 
HETATM    2  C   UNL     1     -39.769 -53.521  14.273  1.00  0.00     0.222 C 
HETATM    3  O   UNL     1     -39.426 -54.461  13.562  1.00  0.00    -0.273 OA
HETATM    4  H   UNL     1     -41.210 -52.663  15.486  1.00  0.00     0.163 HD
ENDROOT
BRANCH   1   5
HETATM    5  C   UNL     1     -41.992 -54.506  14.733  1.00  0.00     0.121 C 
HETATM    6  C   UNL     1     -43.154 -54.083  13.845  1.00  0.00     0.065 C 
HETATM    7  C   UNL     1     -44.424 -54.416  14.622  1.00  0.00     0.057 C 
HETATM    8  C   UNL     1     -45.418 -55.209  13.771  1.00  0.00     0.045 C 
HETATM    9  C   UNL     1     -45.125 -53.154  15.139  1.00  0.00     0.045 C 
HETATM   10  O   UNL     1     -44.035 -55.228  15.739  1.00  0.00    -0.369 OA
HETATM   11  C   UNL     1     -42.639 -55.012  16.043  1.00  0.00     0.075 C 
HETATM   12  C   UNL     1     -42.048 -56.354  16.487  1.00  0.00     0.048 C 
HETATM   13  C   UNL     1     -42.559 -54.041  17.228  1.00  0.00     0.048 C 
ENDBRANCH   1   5
BRANCH   2  14
HETATM   14  C   UNL     1     -38.861 -52.332  14.529  1.00  0.00     0.142 C 
BRANCH  14  15
HETATM   15  C   UNL     1     -38.707 -51.392  13.362  1.00  0.00    -0.034 A 
HETATM   16  C   UNL     1     -37.440 -50.906  13.016  1.00  0.00     0.010 A 
HETATM   17  C   UNL     1     -37.292 -50.080  11.902  1.00  0.00     0.018 A 
HETATM   18  C   UNL     1     -38.417 -49.768  11.163  1.00  0.00     0.087 A 
HETATM   19  N   UNL     1     -39.653 -50.226  11.454  1.00  0.00    -0.375 N 
HETATM   20  C   UNL     1     -39.768 -51.037  12.534  1.00  0.00     0.095 A 
ATOM     21  HN  UNL     1     -40.462 -49.974  10.887  1.00  0.00     0.164 HD
ENDBRANCH  14  15
ENDBRANCH   2  14
TORSDOF 3
ENDMDL
MODEL 3
REMARK VINA RESULT:      -5.5      4.195      7.118
REMARK  3 active torsions:
REMARK  status: ('A' for Active; 'I' for Inactive)
REMARK    1  A    between atoms: C_5  and  N_6 
REMARK       I    between atoms: N_6  and  C_7 
REMARK    2  A    between atoms: C_7  and  C_9 
REMARK    3  A    between atoms: C_9  and  C_10 
ROOT
HETATM    1  N   UNL     1     -39.391 -52.030  14.837  1.00  0.00    -0.353 N 
HETATM    2  C   UNL     1     -39.478 -53.284  14.275  1.00  0.00     0.222 C 
HETATM    3  O   UNL     1     -38.640 -53.731  13.497  1.00  0.00    -0.273 OA
HETATM    4  H   UNL     1     -40.139 -51.703  15.436  1.00  0.00     0.163 HD
ENDROOT
BRANCH   1   5
HETATM    5  C   UNL     1     -38.296 -51.123  14.515  1.00  0.00     0.121 C 
HETATM    6  C   UNL     1     -37.901 -50.268  15.711  1.00  0.00     0.065 C 
HETATM    7  C   UNL     1     -37.875 -48.827  15.212  1.00  0.00     0.057 C 
HETATM    8  C   UNL     1     -36.573 -48.118  15.592  1.00  0.00     0.045 C 
HETATM    9  C   UNL     1     -39.051 -48.011  15.760  1.00  0.00     0.045 C 
HETATM   10  O   UNL     1     -37.964 -48.875  13.780  1.00  0.00    -0.369 OA
HETATM   11  C   UNL     1     -38.558 -50.124  13.365  1.00  0.00     0.075 C 
HETATM   12  C   UNL     1     -37.868 -50.558  12.068  1.00  0.00     0.048 C 
HETATM   13  C   UNL     1     -40.038 -49.861  13.052  1.00  0.00     0.048 C 
ENDBRANCH   1   5
BRANCH   2  14
HETATM   14  C   UNL     1     -40.684 -54.095  14.713  1.00  0.00     0.142 C 
BRANCH  14  15
HETATM   15  C   UNL     1     -41.917 -53.898  13.872  1.00  0.00    -0.034 A 
HETATM   16  C   UNL     1     -43.131 -54.480  14.260  1.00  0.00     0.010 A 
HETATM   17  C   UNL     1     -44.284 -54.251  13.510  1.00  0.00     0.018 A 
HETATM   18  C   UNL     1     -44.189 -53.441  12.394  1.00  0.00     0.087 A 
HETATM   19  N   UNL     1     -43.044 -52.850  11.994  1.00  0.00    -0.375 N 
HETATM   20  C   UNL     1     -41.941 -53.079  12.747  1.00  0.00     0.095 A 
ATOM     21  HN  UNL     1     -43.011 -52.259  11.164  1.00  0.00     0.164 HD
ENDBRANCH  14  15
ENDBRANCH   2  14
TORSDOF 3
ENDMDL
MODEL 4
REMARK VINA RESULT:      -5.5      2.902      4.925
REMARK  3 active torsions:
REMARK  status: ('A' for Active; 'I' for Inactive)
REMARK    1  A    between atoms: C_5  and  N_6 
REMARK       I    between atoms: N_6  and  C_7 
REMARK    2  A    between atoms: C_7  and  C_9 
REMARK    3  A    between atoms: C_9  and  C_10 
ROOT
HETATM    1  N   UNL     1     -43.570 -51.196  13.086  1.00  0.00    -0.353 N 
HETATM    2  C   UNL     1     -42.854 -50.102  12.650  1.00  0.00     0.222 C 
HETATM    3  O   UNL     1     -43.332 -48.974  12.572  1.00  0.00    -0.273 OA
HETATM    4  H   UNL     1     -43.130 -52.107  13.084  1.00  0.00     0.163 HD
ENDROOT
BRANCH   1   5
HETATM    5  C   UNL     1     -44.975 -51.090  13.458  1.00  0.00     0.121 C 
HETATM    6  C   UNL     1     -45.153 -50.965  14.964  1.00  0.00     0.065 C 
HETATM    7  C   UNL     1     -46.193 -52.010  15.357  1.00  0.00     0.057 C 
HETATM    8  C   UNL     1     -47.303 -51.409  16.221  1.00  0.00     0.045 C 
HETATM    9  C   UNL     1     -45.565 -53.183  16.117  1.00  0.00     0.045 C 
HETATM   10  O   UNL     1     -46.779 -52.498  14.141  1.00  0.00    -0.369 OA
HETATM   11  C   UNL     1     -45.881 -52.269  13.033  1.00  0.00     0.075 C 
HETATM   12  C   UNL     1     -46.733 -51.918  11.809  1.00  0.00     0.048 C 
HETATM   13  C   UNL     1     -45.146 -53.584  12.741  1.00  0.00     0.048 C 
ENDBRANCH   1   5
BRANCH   2  14
HETATM   14  C   UNL     1     -41.406 -50.390  12.298  1.00  0.00     0.142 C 
BRANCH  14  15
HETATM   15  C   UNL     1     -40.909 -51.745  12.727  1.00  0.00    -0.034 A 
HETATM   16  C   UNL     1     -40.252 -51.894  13.955  1.00  0.00     0.010 A 
HETATM   17  C   UNL     1     -39.841 -53.158  14.376  1.00  0.00     0.018 A 
HETATM   18  C   UNL     1     -40.105 -54.239  13.556  1.00  0.00     0.087 A 
HETATM   19  N   UNL     1     -40.747 -54.141  12.374  1.00  0.00    -0.375 N 
HETATM   20  C   UNL     1     -41.147 -52.903  11.994  1.00  0.00     0.095 A 
ATOM     21  HN  UNL     1     -40.924 -54.961  11.793  1.00  0.00     0.164 HD
ENDBRANCH  14  15
ENDBRANCH   2  14
TORSDOF 3
ENDMDL
MODEL 5
REMARK VINA RESULT:      -5.5      3.577      6.198
REMARK  3 active torsions:
REMARK  status: ('A' for Active; 'I' for Inactive)
REMARK    1  A    between atoms: C_5  and  N_6 
REMARK       I    between atoms: N_6  and  C_7 
REMARK    2  A    between atoms: C_7  and  C_9 
REMARK    3  A    between atoms: C_9  and  C_10 
ROOT
HETATM    1  N   UNL     1     -43.666 -52.371  13.150  1.00  0.00    -0.353 N 
HETATM    2  C   UNL     1     -44.714 -53.190  12.793  1.00  0.00     0.222 C 
HETATM    3  O   UNL     1     -44.562 -54.266  12.222  1.00  0.00    -0.273 OA
HETATM    4  H   UNL     1     -43.862 -51.475  13.578  1.00  0.00     0.163 HD
ENDROOT
BRANCH   1   5
HETATM    5  C   UNL     1     -42.285 -52.718  12.838  1.00  0.00     0.121 C 
HETATM    6  C   UNL     1     -41.806 -53.913  13.649  1.00  0.00     0.065 C 
HETATM    7  C   UNL     1     -40.477 -53.497  14.272  1.00  0.00     0.057 C 
HETATM    8  C   UNL     1     -39.385 -54.541  14.030  1.00  0.00     0.045 C 
HETATM    9  C   UNL     1     -40.601 -53.263  15.782  1.00  0.00     0.045 C 
HETATM   10  O   UNL     1     -40.080 -52.271  13.639  1.00  0.00    -0.369 OA
HETATM   11  C   UNL     1     -41.235 -51.609  13.079  1.00  0.00     0.075 C 
HETATM   12  C   UNL     1     -40.799 -50.945  11.769  1.00  0.00     0.048 C 
HETATM   13  C   UNL     1     -41.664 -50.504  14.054  1.00  0.00     0.048 C 
ENDBRANCH   1   5
BRANCH   2  14
HETATM   14  C   UNL     1     -46.086 -52.676  13.188  1.00  0.00     0.142 C 
BRANCH  14  15
HETATM   15  C   UNL     1     -46.295 -52.508  14.670  1.00  0.00    -0.034 A 
HETATM   16  C   UNL     1     -46.981 -51.390  15.160  1.00  0.00     0.010 A 
HETATM   17  C   UNL     1     -47.220 -51.264  16.528  1.00  0.00     0.018 A 
HETATM   18  C   UNL     1     -46.770 -52.266  17.367  1.00  0.00     0.087 A 
HETATM   19  N   UNL     1     -46.119 -53.366  16.935  1.00  0.00    -0.375 N 
HETATM   20  C   UNL     1     -45.909 -53.470  15.600  1.00  0.00     0.095 A 
ATOM     21  HN  UNL     1     -45.799 -54.086  17.584  1.00  0.00     0.164 HD
ENDBRANCH  14  15
ENDBRANCH   2  14
TORSDOF 3
ENDMDL
MODEL 6
REMARK VINA RESULT:      -5.4      1.802      2.427
REMARK  3 active torsions:
REMARK  status: ('A' for Active; 'I' for Inactive)
REMARK    1  A    between atoms: C_5  and  N_6 
REMARK       I    between atoms: N_6  and  C_7 
REMARK    2  A    between atoms: C_7  and  C_9 
REMARK    3  A    between atoms: C_9  and  C_10 
ROOT
HETATM    1  N   UNL     1     -42.174 -51.360  12.069  1.00  0.00    -0.353 N 
HETATM    2  C   UNL     1     -40.833 -51.088  11.911  1.00  0.00     0.222 C 
HETATM    3  O   UNL     1     -39.948 -51.726  12.474  1.00  0.00    -0.273 OA
HETATM    4  H   UNL     1     -42.856 -50.767  11.612  1.00  0.00     0.163 HD
ENDROOT
BRANCH   1   5
HETATM    5  C   UNL     1     -42.639 -52.419  12.955  1.00  0.00     0.121 C 
HETATM    6  C   UNL     1     -43.757 -53.236  12.321  1.00  0.00     0.065 C 
HETATM    7  C   UNL     1     -44.879 -53.292  13.353  1.00  0.00     0.057 C 
HETATM    8  C   UNL     1     -45.370 -54.723  13.579  1.00  0.00     0.045 C 
HETATM    9  C   UNL     1     -46.075 -52.425  12.945  1.00  0.00     0.045 C 
HETATM   10  O   UNL     1     -44.340 -52.797  14.589  1.00  0.00    -0.369 OA
HETATM   11  C   UNL     1     -43.190 -51.965  14.327  1.00  0.00     0.075 C 
HETATM   12  C   UNL     1     -42.178 -52.204  15.452  1.00  0.00     0.048 C 
HETATM   13  C   UNL     1     -43.642 -50.500  14.396  1.00  0.00     0.048 C 
ENDBRANCH   1   5
BRANCH   2  14
HETATM   14  C   UNL     1     -40.523 -49.949  10.957  1.00  0.00     0.142 C 
BRANCH  14  15
HETATM   15  C   UNL     1     -41.266 -48.669  11.239  1.00  0.00    -0.034 A 
HETATM   16  C   UNL     1     -41.095 -48.015  12.466  1.00  0.00     0.010 A 
HETATM   17  C   UNL     1     -41.741 -46.802  12.704  1.00  0.00     0.018 A 
HETATM   18  C   UNL     1     -42.536 -46.276  11.704  1.00  0.00     0.087 A 
HETATM   19  N   UNL     1     -42.716 -46.866  10.504  1.00  0.00    -0.375 N 
HETATM   20  C   UNL     1     -42.068 -48.038  10.293  1.00  0.00     0.095 A 
ATOM     21  HN  UNL     1     -43.312 -46.450   9.788  1.00  0.00     0.164 HD
ENDBRANCH  14  15
ENDBRANCH   2  14
TORSDOF 3
ENDMDL
MODEL 7
REMARK VINA RESULT:      -5.4      5.402      6.903
REMARK  3 active torsions:
REMARK  status: ('A' for Active; 'I' for Inactive)
REMARK    1  A    between atoms: C_5  and  N_6 
REMARK       I    between atoms: N_6  and  C_7 
REMARK    2  A    between atoms: C_7  and  C_9 
REMARK    3  A    between atoms: C_9  and  C_10 
ROOT
HETATM    1  N   UNL     1     -42.806 -45.077  11.356  1.00  0.00    -0.353 N 
HETATM    2  C   UNL     1     -42.753 -46.074  10.407  1.00  0.00     0.222 C 
HETATM    3  O   UNL     1     -42.131 -47.120  10.566  1.00  0.00    -0.273 OA
HETATM    4  H   UNL     1     -43.299 -44.219  11.145  1.00  0.00     0.163 HD
ENDROOT
BRANCH   1   5
HETATM    5  C   UNL     1     -42.088 -45.187  12.620  1.00  0.00     0.121 C 
HETATM    6  C   UNL     1     -42.856 -44.539  13.763  1.00  0.00     0.065 C 
HETATM    7  C   UNL     1     -41.867 -43.613  14.466  1.00  0.00     0.057 C 
HETATM    8  C   UNL     1     -41.855 -43.840  15.979  1.00  0.00     0.045 C 
HETATM    9  C   UNL     1     -42.176 -42.136  14.198  1.00  0.00     0.045 C 
HETATM   10  O   UNL     1     -40.563 -43.920  13.952  1.00  0.00    -0.369 OA
HETATM   11  C   UNL     1     -40.679 -44.551  12.658  1.00  0.00     0.075 C 
HETATM   12  C   UNL     1     -39.576 -45.609  12.556  1.00  0.00     0.048 C 
HETATM   13  C   UNL     1     -40.415 -43.483  11.587  1.00  0.00     0.048 C 
ENDBRANCH   1   5
BRANCH   2  14
HETATM   14  C   UNL     1     -43.553 -45.796   9.147  1.00  0.00     0.142 C 
BRANCH  14  15
HETATM   15  C   UNL     1     -44.561 -46.856   8.793  1.00  0.00    -0.034 A 
HETATM   16  C   UNL     1     -45.828 -46.847   9.391  1.00  0.00     0.010 A 
HETATM   17  C   UNL     1     -46.779 -47.797   9.021  1.00  0.00     0.018 A 
HETATM   18  C   UNL     1     -46.436 -48.728   8.059  1.00  0.00     0.087 A 
HETATM   19  N   UNL     1     -45.234 -48.763   7.448  1.00  0.00    -0.375 N 
HETATM   20  C   UNL     1     -44.331 -47.821   7.817  1.00  0.00     0.095 A 
ATOM     21  HN  UNL     1     -45.014 -49.466   6.742  1.00  0.00     0.164 HD
ENDBRANCH  14  15
ENDBRANCH   2  14
TORSDOF 3
ENDMDL
MODEL 8
REMARK VINA RESULT:      -5.3      2.420      3.253
REMARK  3 active torsions:
REMARK  status: ('A' for Active; 'I' for Inactive)
REMARK    1  A    between atoms: C_5  and  N_6 
REMARK       I    between atoms: N_6  and  C_7 
REMARK    2  A    between atoms: C_7  and  C_9 
REMARK    3  A    between atoms: C_9  and  C_10 
ROOT
HETATM    1  N   UNL     1     -42.199 -51.103  13.347  1.00  0.00    -0.353 N 
HETATM    2  C   UNL     1     -41.271 -51.462  12.394  1.00  0.00     0.222 C 
HETATM    3  O   UNL     1     -41.441 -52.389  11.608  1.00  0.00    -0.273 OA
HETATM    4  H   UNL     1     -41.979 -50.357  13.995  1.00  0.00     0.163 HD
ENDROOT
BRANCH   1   5
HETATM    5  C   UNL     1     -43.450 -51.833  13.510  1.00  0.00     0.121 C 
HETATM    6  C   UNL     1     -44.623 -50.896  13.760  1.00  0.00     0.065 C 
HETATM    7  C   UNL     1     -45.343 -51.438  14.991  1.00  0.00     0.057 C 
HETATM    8  C   UNL     1     -46.847 -51.578  14.752  1.00  0.00     0.045 C 
HETATM    9  C   UNL     1     -45.125 -50.547  16.219  1.00  0.00     0.045 C 
HETATM   10  O   UNL     1     -44.803 -52.742  15.255  1.00  0.00    -0.369 OA
HETATM   11  C   UNL     1     -43.491 -52.861  14.664  1.00  0.00     0.075 C 
HETATM   12  C   UNL     1     -43.342 -54.297  14.151  1.00  0.00     0.048 C 
HETATM   13  C   UNL     1     -42.452 -52.640  15.772  1.00  0.00     0.048 C 
ENDBRANCH   1   5
BRANCH   2  14
HETATM   14  C   UNL     1     -40.023 -50.600  12.365  1.00  0.00     0.142 C 
BRANCH  14  15
HETATM   15  C   UNL     1     -40.249 -49.177  11.926  1.00  0.00    -0.034 A 
HETATM   16  C   UNL     1     -39.611 -48.126  12.598  1.00  0.00     0.010 A 
HETATM   17  C   UNL     1     -39.778 -46.814  12.156  1.00  0.00     0.018 A 
HETATM   18  C   UNL     1     -40.575 -46.592  11.049  1.00  0.00     0.087 A 
HETATM   19  N   UNL     1     -41.195 -47.576  10.365  1.00  0.00    -0.375 N 
HETATM   20  C   UNL     1     -41.007 -48.843  10.808  1.00  0.00     0.095 A 
ATOM     21  HN  UNL     1     -41.778 -47.375   9.552  1.00  0.00     0.164 HD
ENDBRANCH  14  15
ENDBRANCH   2  14
TORSDOF 3
ENDMDL
MODEL 9
REMARK VINA RESULT:      -5.3      3.835      6.036
REMARK  3 active torsions:
REMARK  status: ('A' for Active; 'I' for Inactive)
REMARK    1  A    between atoms: C_5  and  N_6 
REMARK       I    between atoms: N_6  and  C_7 
REMARK    2  A    between atoms: C_7  and  C_9 
REMARK    3  A    between atoms: C_9  and  C_10 
ROOT
HETATM    1  N   UNL     1     -42.758 -53.748  14.539  1.00  0.00    -0.353 N 
HETATM    2  C   UNL     1     -43.389 -54.933  14.847  1.00  0.00     0.222 C 
HETATM    3  O   UNL     1     -42.895 -55.787  15.577  1.00  0.00    -0.273 OA
HETATM    4  H   UNL     1     -43.201 -53.106  13.894  1.00  0.00     0.163 HD
ENDROOT
BRANCH   1   5
HETATM    5  C   UNL     1     -41.425 -53.440  15.040  1.00  0.00     0.121 C 
HETATM    6  C   UNL     1     -41.389 -52.100  15.762  1.00  0.00     0.065 C 
HETATM    7  C   UNL     1     -40.219 -51.326  15.161  1.00  0.00     0.057 C 
HETATM    8  C   UNL     1     -39.299 -50.758  16.243  1.00  0.00     0.045 C 
HETATM    9  C   UNL     1     -40.694 -50.172  14.271  1.00  0.00     0.045 C 
HETATM   10  O   UNL     1     -39.465 -52.253  14.365  1.00  0.00    -0.369 OA
HETATM   11  C   UNL     1     -40.301 -53.367  13.982  1.00  0.00     0.075 C 
HETATM   12  C   UNL     1     -39.428 -54.627  13.992  1.00  0.00     0.048 C 
HETATM   13  C   UNL     1     -40.775 -53.128  12.542  1.00  0.00     0.048 C 
ENDBRANCH   1   5
BRANCH   2  14
HETATM   14  C   UNL     1     -44.769 -55.096  14.237  1.00  0.00     0.142 C 
BRANCH  14  15
HETATM   15  C   UNL     1     -45.428 -53.810  13.814  1.00  0.00    -0.034 A 
HETATM   16  C   UNL     1     -46.128 -53.039  14.751  1.00  0.00     0.010 A 
HETATM   17  C   UNL     1     -46.691 -51.821  14.371  1.00  0.00     0.018 A 
HETATM   18  C   UNL     1     -46.532 -51.407  13.062  1.00  0.00     0.087 A 
HETATM   19  N   UNL     1     -45.854 -52.112  12.132  1.00  0.00    -0.375 N 
HETATM   20  C   UNL     1     -45.307 -53.286  12.531  1.00  0.00     0.095 A 
ATOM     21  HN  UNL     1     -45.758 -51.776  11.173  1.00  0.00     0.164 HD
ENDBRANCH  14  15
ENDBRANCH   2  14
TORSDOF 3
ENDMDL
