MODEL 1
REMARK VINA RESULT:      -6.5      0.000      0.000
REMARK  3 active torsions:
REMARK  status: ('A' for Active; 'I' for Inactive)
REMARK    1  A    between atoms: C_6  and  N_7 
REMARK       I    between atoms: N_7  and  C_8 
REMARK    2  A    between atoms: C_8  and  C_10 
REMARK    3  A    between atoms: C_10  and  N_11 
ROOT
HETATM    1  N   UNL     1     -40.928 -49.996  11.302  1.00  0.00    -0.355 N 
HETATM    2  C   UNL     1     -41.529 -50.874  12.178  1.00  0.00     0.237 C 
HETATM    3  O   UNL     1     -42.246 -50.514  13.111  1.00  0.00    -0.272 OA
HETATM    4  H   UNL     1     -40.418 -50.350  10.501  1.00  0.00     0.162 HD
ENDROOT
BRANCH   2   5
HETATM    5  C   UNL     1     -41.193 -52.348  11.967  1.00  0.00     0.255 C 
BRANCH   5   6
HETATM    6  N   UNL     1     -42.240 -53.172  12.553  1.00  0.00    -0.246 N 
HETATM    7  N   UNL     1     -43.527 -52.979  12.008  1.00  0.00    -0.261 N 
HETATM    8  C   UNL     1     -44.650 -53.480  12.609  1.00  0.00     0.260 C 
HETATM    9  H   UNL     1     -43.679 -52.150  11.433  1.00  0.00     0.190 HD
HETATM   10  O   UNL     1     -45.786 -53.170  12.273  1.00  0.00    -0.267 OA
HETATM   11  C   UNL     1     -44.428 -54.445  13.700  1.00  0.00     0.081 C 
HETATM   12  C   UNL     1     -43.213 -54.614  14.228  1.00  0.00     0.081 C 
HETATM   13  C   UNL     1     -42.041 -53.868  13.724  1.00  0.00     0.262 C 
HETATM   14  O   UNL     1     -40.975 -53.923  14.327  1.00  0.00    -0.267 OA
ENDBRANCH   5   6
ENDBRANCH   2   5
BRANCH   1  15
HETATM   15  C   UNL     1     -41.117 -48.559  11.437  1.00  0.00     0.088 C 
HETATM   16  C   UNL     1     -41.889 -48.016  10.226  1.00  0.00     0.025 C 
HETATM   17  C   UNL     1     -42.121 -46.513  10.328  1.00  0.00     0.002 C 
HETATM   18  C   UNL     1     -40.815 -45.754  10.551  1.00  0.00     0.005 C 
HETATM   19  C   UNL     1     -40.009 -46.280  11.751  1.00  0.00    -0.013 C 
HETATM   20  C   UNL     1     -40.679 -45.876  13.074  1.00  0.00     0.010 C 
HETATM   21  C   UNL     1     -39.775 -47.808  11.609  1.00  0.00     0.008 C 
HETATM   22  C   UNL     1     -38.942 -48.369  12.766  1.00  0.00     0.012 C 
ENDBRANCH   1  15
TORSDOF 3
ENDMDL
MODEL 2
REMARK VINA RESULT:      -6.2      2.323      6.930
REMARK  3 active torsions:
REMARK  status: ('A' for Active; 'I' for Inactive)
REMARK    1  A    between atoms: C_6  and  N_7 
REMARK       I    between atoms: N_7  and  C_8 
REMARK    2  A    between atoms: C_8  and  C_10 
REMARK    3  A    between atoms: C_10  and  N_11 
ROOT
HETATM    1  N   UNL     1     -43.359 -51.640  12.499  1.00  0.00    -0.355 N 
HETATM    2  C   UNL     1     -42.516 -50.683  13.021  1.00  0.00     0.237 C 
HETATM    3  O   UNL     1     -42.308 -50.550  14.227  1.00  0.00    -0.272 OA
HETATM    4  H   UNL     1     -43.427 -51.761  11.495  1.00  0.00     0.162 HD
ENDROOT
BRANCH   2   5
HETATM    5  C   UNL     1     -41.891 -49.730  12.005  1.00  0.00     0.255 C 
BRANCH   5   6
HETATM    6  N   UNL     1     -40.446 -49.899  12.007  1.00  0.00    -0.246 N 
HETATM    7  N   UNL     1     -39.988 -51.125  12.533  1.00  0.00    -0.261 N 
HETATM    8  C   UNL     1     -38.671 -51.336  12.838  1.00  0.00     0.260 C 
HETATM    9  H   UNL     1     -40.650 -51.688  13.068  1.00  0.00     0.190 HD
HETATM   10  O   UNL     1     -38.276 -52.308  13.469  1.00  0.00    -0.267 OA
HETATM   11  C   UNL     1     -37.721 -50.321  12.350  1.00  0.00     0.081 C 
HETATM   12  C   UNL     1     -38.153 -49.152  11.869  1.00  0.00     0.081 C 
HETATM   13  C   UNL     1     -39.595 -48.841  11.779  1.00  0.00     0.262 C 
HETATM   14  O   UNL     1     -39.959 -47.708  11.486  1.00  0.00    -0.267 OA
ENDBRANCH   5   6
ENDBRANCH   2   5
BRANCH   1  15
HETATM   15  C   UNL     1     -44.067 -52.568  13.369  1.00  0.00     0.088 C 
HETATM   16  C   UNL     1     -43.297 -53.894  13.455  1.00  0.00     0.025 C 
HETATM   17  C   UNL     1     -43.995 -54.897  14.366  1.00  0.00     0.002 C 
HETATM   18  C   UNL     1     -45.451 -55.114  13.958  1.00  0.00     0.005 C 
HETATM   19  C   UNL     1     -46.249 -53.803  13.849  1.00  0.00    -0.013 C 
HETATM   20  C   UNL     1     -46.539 -53.228  15.244  1.00  0.00     0.010 C 
HETATM   21  C   UNL     1     -45.521 -52.811  12.903  1.00  0.00     0.008 C 
HETATM   22  C   UNL     1     -46.302 -51.503  12.736  1.00  0.00     0.012 C 
ENDBRANCH   1  15
TORSDOF 3
ENDMDL
MODEL 3
REMARK VINA RESULT:      -6.0      2.020      6.620
REMARK  3 active torsions:
REMARK  status: ('A' for Active; 'I' for Inactive)
REMARK    1  A    between atoms: C_6  and  N_7 
REMARK       I    between atoms: N_7  and  C_8 
REMARK    2  A    between atoms: C_8  and  C_10 
REMARK    3  A    between atoms: C_10  and  N_11 
ROOT
HETATM    1  N   UNL     1     -43.471 -52.877  12.282  1.00  0.00    -0.355 N 
HETATM    2  C   UNL     1     -42.493 -51.986  12.672  1.00  0.00     0.237 C 
HETATM    3  O   UNL     1     -42.614 -51.230  13.636  1.00  0.00    -0.272 OA
HETATM    4  H   UNL     1     -43.285 -53.535  11.535  1.00  0.00     0.162 HD
ENDROOT
BRANCH   2   5
HETATM    5  C   UNL     1     -41.254 -51.937  11.784  1.00  0.00     0.255 C 
BRANCH   5   6
HETATM    6  N   UNL     1     -40.712 -50.586  11.783  1.00  0.00    -0.246 N 
HETATM    7  N   UNL     1     -41.563 -49.602  11.238  1.00  0.00    -0.261 N 
HETATM    8  C   UNL     1     -41.114 -48.345  10.933  1.00  0.00     0.260 C 
HETATM    9  H   UNL     1     -42.365 -49.918  10.692  1.00  0.00     0.190 HD
HETATM   10  O   UNL     1     -41.769 -47.538  10.286  1.00  0.00    -0.267 OA
HETATM   11  C   UNL     1     -39.776 -47.993  11.439  1.00  0.00     0.081 C 
HETATM   12  C   UNL     1     -38.963 -48.928  11.938  1.00  0.00     0.081 C 
HETATM   13  C   UNL     1     -39.379 -50.343  12.030  1.00  0.00     0.262 C 
HETATM   14  O   UNL     1     -38.562 -51.202  12.341  1.00  0.00    -0.267 OA
ENDBRANCH   5   6
ENDBRANCH   2   5
BRANCH   1  15
HETATM   15  C   UNL     1     -44.728 -52.974  13.009  1.00  0.00     0.088 C 
HETATM   16  C   UNL     1     -45.422 -51.605  13.038  1.00  0.00     0.025 C 
HETATM   17  C   UNL     1     -46.752 -51.659  13.781  1.00  0.00     0.002 C 
HETATM   18  C   UNL     1     -46.593 -52.241  15.183  1.00  0.00     0.005 C 
HETATM   19  C   UNL     1     -45.889 -53.609  15.192  1.00  0.00    -0.013 C 
HETATM   20  C   UNL     1     -46.822 -54.703  14.650  1.00  0.00     0.010 C 
HETATM   21  C   UNL     1     -44.532 -53.517  14.444  1.00  0.00     0.008 C 
HETATM   22  C   UNL     1     -43.778 -54.850  14.461  1.00  0.00     0.012 C 
ENDBRANCH   1  15
TORSDOF 3
ENDMDL
MODEL 4
REMARK VINA RESULT:      -5.9      2.817      6.267
REMARK  3 active torsions:
REMARK  status: ('A' for Active; 'I' for Inactive)
REMARK    1  A    between atoms: C_6  and  N_7 
REMARK       I    between atoms: N_7  and  C_8 
REMARK    2  A    between atoms: C_8  and  C_10 
REMARK    3  A    between atoms: C_10  and  N_11 
ROOT
HETATM    1  N   UNL     1     -43.168 -50.240  12.759  1.00  0.00    -0.355 N 
HETATM    2  C   UNL     1     -42.035 -50.822  12.233  1.00  0.00     0.237 C 
HETATM    3  O   UNL     1     -41.733 -52.002  12.419  1.00  0.00    -0.272 OA
HETATM    4  H   UNL     1     -43.412 -49.290  12.503  1.00  0.00     0.162 HD
ENDROOT
BRANCH   2   5
HETATM    5  C   UNL     1     -41.117 -49.890  11.448  1.00  0.00     0.255 C 
BRANCH   5   6
HETATM    6  N   UNL     1     -39.855 -49.740  12.158  1.00  0.00    -0.246 N 
HETATM    7  N   UNL     1     -38.846 -50.650  11.781  1.00  0.00    -0.261 N 
HETATM    8  C   UNL     1     -37.703 -50.810  12.517  1.00  0.00     0.260 C 
HETATM    9  H   UNL     1     -39.123 -51.465  11.233  1.00  0.00     0.190 HD
HETATM   10  O   UNL     1     -36.905 -51.719  12.328  1.00  0.00    -0.267 OA
HETATM   11  C   UNL     1     -37.462 -49.806  13.568  1.00  0.00     0.081 C 
HETATM   12  C   UNL     1     -38.424 -48.956  13.938  1.00  0.00     0.081 C 
HETATM   13  C   UNL     1     -39.753 -48.967  13.293  1.00  0.00     0.262 C 
HETATM   14  O   UNL     1     -40.663 -48.289  13.756  1.00  0.00    -0.267 OA
ENDBRANCH   5   6
ENDBRANCH   2   5
BRANCH   1  15
HETATM   15  C   UNL     1     -44.091 -51.007  13.581  1.00  0.00     0.088 C 
HETATM   16  C   UNL     1     -45.434 -51.162  12.854  1.00  0.00     0.025 C 
HETATM   17  C   UNL     1     -46.433 -51.971  13.673  1.00  0.00     0.002 C 
HETATM   18  C   UNL     1     -46.613 -51.393  15.075  1.00  0.00     0.005 C 
HETATM   19  C   UNL     1     -45.284 -51.212  15.828  1.00  0.00    -0.013 C 
HETATM   20  C   UNL     1     -44.721 -52.572  16.268  1.00  0.00     0.010 C 
HETATM   21  C   UNL     1     -44.296 -50.371  14.976  1.00  0.00     0.008 C 
HETATM   22  C   UNL     1     -42.970 -50.135  15.705  1.00  0.00     0.012 C 
ENDBRANCH   1  15
TORSDOF 3
ENDMDL
MODEL 5
REMARK VINA RESULT:      -5.9      2.258      6.410
REMARK  3 active torsions:
REMARK  status: ('A' for Active; 'I' for Inactive)
REMARK    1  A    between atoms: C_6  and  N_7 
REMARK       I    between atoms: N_7  and  C_8 
REMARK    2  A    between atoms: C_8  and  C_10 
REMARK    3  A    between atoms: C_10  and  N_11 
ROOT
HETATM    1  N   UNL     1     -43.030 -53.020  13.050  1.00  0.00    -0.355 N 
HETATM    2  C   UNL     1     -41.774 -52.715  13.530  1.00  0.00     0.237 C 
HETATM    3  O   UNL     1     -41.553 -52.418  14.704  1.00  0.00    -0.272 OA
HETATM    4  H   UNL     1     -43.142 -53.341  12.095  1.00  0.00     0.162 HD
ENDROOT
BRANCH   2   5
HETATM    5  C   UNL     1     -40.657 -52.698  12.490  1.00  0.00     0.255 C 
BRANCH   5   6
HETATM    6  N   UNL     1     -40.181 -51.333  12.314  1.00  0.00    -0.246 N 
HETATM    7  N   UNL     1     -41.072 -50.473  11.639  1.00  0.00    -0.261 N 
HETATM    8  C   UNL     1     -40.681 -49.247  11.173  1.00  0.00     0.260 C 
HETATM    9  H   UNL     1     -41.851 -50.897  11.135  1.00  0.00     0.190 HD
HETATM   10  O   UNL     1     -41.366 -48.565  10.421  1.00  0.00    -0.267 OA
HETATM   11  C   UNL     1     -39.368 -48.765  11.636  1.00  0.00     0.081 C 
HETATM   12  C   UNL     1     -38.517 -49.584  12.259  1.00  0.00     0.081 C 
HETATM   13  C   UNL     1     -38.866 -50.994  12.534  1.00  0.00     0.262 C 
HETATM   14  O   UNL     1     -38.012 -51.763  12.961  1.00  0.00    -0.267 OA
ENDBRANCH   5   6
ENDBRANCH   2   5
BRANCH   1  15
HETATM   15  C   UNL     1     -44.190 -53.008  13.929  1.00  0.00     0.088 C 
HETATM   16  C   UNL     1     -44.874 -54.383  13.913  1.00  0.00     0.025 C 
HETATM   17  C   UNL     1     -46.091 -54.422  14.829  1.00  0.00     0.002 C 
HETATM   18  C   UNL     1     -47.075 -53.298  14.510  1.00  0.00     0.005 C 
HETATM   19  C   UNL     1     -46.420 -51.906  14.506  1.00  0.00    -0.013 C 
HETATM   20  C   UNL     1     -46.093 -51.456  15.939  1.00  0.00     0.010 C 
HETATM   21  C   UNL     1     -45.196 -51.894  13.552  1.00  0.00     0.008 C 
HETATM   22  C   UNL     1     -44.533 -50.514  13.488  1.00  0.00     0.012 C 
ENDBRANCH   1  15
TORSDOF 3
ENDMDL
MODEL 6
REMARK VINA RESULT:      -5.8      2.853      7.105
REMARK  3 active torsions:
REMARK  status: ('A' for Active; 'I' for Inactive)
REMARK    1  A    between atoms: C_6  and  N_7 
REMARK       I    between atoms: N_7  and  C_8 
REMARK    2  A    between atoms: C_8  and  C_10 
REMARK    3  A    between atoms: C_10  and  N_11 
ROOT
HETATM    1  N   UNL     1     -42.887 -51.703  15.033  1.00  0.00    -0.355 N 
HETATM    2  C   UNL     1     -41.802 -51.567  14.195  1.00  0.00     0.237 C 
HETATM    3  O   UNL     1     -41.782 -51.995  13.041  1.00  0.00    -0.272 OA
HETATM    4  H   UNL     1     -42.882 -51.256  15.943  1.00  0.00     0.162 HD
ENDROOT
BRANCH   2   5
HETATM    5  C   UNL     1     -40.573 -50.903  14.809  1.00  0.00     0.255 C 
BRANCH   5   6
HETATM    6  N   UNL     1     -39.699 -50.424  13.748  1.00  0.00    -0.246 N 
HETATM    7  N   UNL     1     -38.750 -51.360  13.287  1.00  0.00    -0.261 N 
HETATM    8  C   UNL     1     -37.703 -50.995  12.485  1.00  0.00     0.260 C 
HETATM    9  H   UNL     1     -38.587 -52.190  13.858  1.00  0.00     0.190 HD
HETATM   10  O   UNL     1     -36.764 -51.737  12.230  1.00  0.00    -0.267 OA
HETATM   11  C   UNL     1     -37.763 -49.637  11.917  1.00  0.00     0.081 C 
HETATM   12  C   UNL     1     -38.650 -48.745  12.366  1.00  0.00     0.081 C 
HETATM   13  C   UNL     1     -39.622 -49.088  13.425  1.00  0.00     0.262 C 
HETATM   14  O   UNL     1     -40.314 -48.210  13.928  1.00  0.00    -0.267 OA
ENDBRANCH   5   6
ENDBRANCH   2   5
BRANCH   1  15
HETATM   15  C   UNL     1     -44.098 -52.376  14.587  1.00  0.00     0.088 C 
HETATM   16  C   UNL     1     -45.218 -51.348  14.370  1.00  0.00     0.025 C 
HETATM   17  C   UNL     1     -46.507 -52.007  13.890  1.00  0.00     0.002 C 
HETATM   18  C   UNL     1     -46.947 -53.133  14.822  1.00  0.00     0.005 C 
HETATM   19  C   UNL     1     -45.843 -54.175  15.072  1.00  0.00    -0.013 C 
HETATM   20  C   UNL     1     -45.629 -55.048  13.825  1.00  0.00     0.010 C 
HETATM   21  C   UNL     1     -44.552 -53.476  15.575  1.00  0.00     0.008 C 
HETATM   22  C   UNL     1     -43.435 -54.483  15.873  1.00  0.00     0.012 C 
ENDBRANCH   1  15
TORSDOF 3
ENDMDL
MODEL 7
REMARK VINA RESULT:      -5.8      4.217      6.681
REMARK  3 active torsions:
REMARK  status: ('A' for Active; 'I' for Inactive)
REMARK    1  A    between atoms: C_6  and  N_7 
REMARK       I    between atoms: N_7  and  C_8 
REMARK    2  A    between atoms: C_8  and  C_10 
REMARK    3  A    between atoms: C_10  and  N_11 
ROOT
HETATM    1  N   UNL     1     -39.314 -47.496  12.216  1.00  0.00    -0.355 N 
HETATM    2  C   UNL     1     -40.569 -47.327  11.672  1.00  0.00     0.237 C 
HETATM    3  O   UNL     1     -41.527 -48.051  11.944  1.00  0.00    -0.272 OA
HETATM    4  H   UNL     1     -38.585 -46.820  12.023  1.00  0.00     0.162 HD
ENDROOT
BRANCH   2   5
HETATM    5  C   UNL     1     -40.695 -46.211  10.638  1.00  0.00     0.255 C 
BRANCH   5   6
HETATM    6  N   UNL     1     -42.040 -46.216  10.081  1.00  0.00    -0.246 N 
HETATM    7  N   UNL     1     -42.338 -47.316   9.250  1.00  0.00    -0.261 N 
HETATM    8  C   UNL     1     -43.452 -47.342   8.456  1.00  0.00     0.260 C 
HETATM    9  H   UNL     1     -41.559 -47.886   8.919  1.00  0.00     0.190 HD
HETATM   10  O   UNL     1     -43.637 -48.186   7.588  1.00  0.00    -0.267 OA
HETATM   11  C   UNL     1     -44.452 -46.289   8.704  1.00  0.00     0.081 C 
HETATM   12  C   UNL     1     -44.163 -45.238   9.476  1.00  0.00     0.081 C 
HETATM   13  C   UNL     1     -42.847 -45.102  10.133  1.00  0.00     0.262 C 
HETATM   14  O   UNL     1     -42.552 -44.057  10.703  1.00  0.00    -0.267 OA
ENDBRANCH   5   6
ENDBRANCH   2   5
BRANCH   1  15
HETATM   15  C   UNL     1     -39.049 -48.566  13.166  1.00  0.00     0.088 C 
HETATM   16  C   UNL     1     -38.952 -47.993  14.587  1.00  0.00     0.025 C 
HETATM   17  C   UNL     1     -38.685 -49.081  15.620  1.00  0.00     0.002 C 
HETATM   18  C   UNL     1     -37.455 -49.911  15.262  1.00  0.00     0.005 C 
HETATM   19  C   UNL     1     -37.513 -50.492  13.838  1.00  0.00    -0.013 C 
HETATM   20  C   UNL     1     -38.532 -51.640  13.762  1.00  0.00     0.010 C 
HETATM   21  C   UNL     1     -37.769 -49.358  12.809  1.00  0.00     0.008 C 
HETATM   22  C   UNL     1     -37.797 -49.887  11.371  1.00  0.00     0.012 C 
ENDBRANCH   1  15
TORSDOF 3
ENDMDL
MODEL 8
REMARK VINA RESULT:      -5.8      2.323      3.009
REMARK  3 active torsions:
REMARK  status: ('A' for Active; 'I' for Inactive)
REMARK    1  A    between atoms: C_6  and  N_7 
REMARK       I    between atoms: N_7  and  C_8 
REMARK    2  A    between atoms: C_8  and  C_10 
REMARK    3  A    between atoms: C_10  and  N_11 
ROOT
HETATM    1  N   UNL     1     -39.887 -52.200  13.504  1.00  0.00    -0.355 N 
HETATM    2  C   UNL     1     -40.736 -52.796  12.597  1.00  0.00     0.237 C 
HETATM    3  O   UNL     1     -41.240 -52.197  11.647  1.00  0.00    -0.272 OA
HETATM    4  H   UNL     1     -39.434 -52.760  14.216  1.00  0.00     0.162 HD
ENDROOT
BRANCH   2   5
HETATM    5  C   UNL     1     -41.082 -54.256  12.879  1.00  0.00     0.255 C 
BRANCH   5   6
HETATM    6  N   UNL     1     -42.457 -54.345  13.350  1.00  0.00    -0.246 N 
HETATM    7  N   UNL     1     -43.431 -53.882  12.441  1.00  0.00    -0.261 N 
HETATM    8  C   UNL     1     -44.728 -53.662  12.820  1.00  0.00     0.260 C 
HETATM    9  H   UNL     1     -43.112 -53.323  11.649  1.00  0.00     0.190 HD
HETATM   10  O   UNL     1     -45.543 -53.082  12.115  1.00  0.00    -0.267 OA
HETATM   11  C   UNL     1     -45.114 -54.179  14.144  1.00  0.00     0.081 C 
HETATM   12  C   UNL     1     -44.190 -54.601  15.012  1.00  0.00     0.081 C 
HETATM   13  C   UNL     1     -42.752 -54.595  14.671  1.00  0.00     0.262 C 
HETATM   14  O   UNL     1     -41.917 -54.835  15.536  1.00  0.00    -0.267 OA
ENDBRANCH   5   6
ENDBRANCH   2   5
BRANCH   1  15
HETATM   15  C   UNL     1     -39.531 -50.794  13.382  1.00  0.00     0.088 C 
HETATM   16  C   UNL     1     -38.179 -50.656  12.666  1.00  0.00     0.025 C 
HETATM   17  C   UNL     1     -37.768 -49.197  12.505  1.00  0.00     0.002 C 
HETATM   18  C   UNL     1     -37.778 -48.457  13.841  1.00  0.00     0.005 C 
HETATM   19  C   UNL     1     -39.114 -48.585  14.592  1.00  0.00    -0.013 C 
HETATM   20  C   UNL     1     -40.202 -47.738  13.911  1.00  0.00     0.010 C 
HETATM   21  C   UNL     1     -39.496 -50.080  14.754  1.00  0.00     0.008 C 
HETATM   22  C   UNL     1     -40.805 -50.255  15.531  1.00  0.00     0.012 C 
ENDBRANCH   1  15
TORSDOF 3
ENDMDL
MODEL 9
REMARK VINA RESULT:      -5.7      1.124      2.265
REMARK  3 active torsions:
REMARK  status: ('A' for Active; 'I' for Inactive)
REMARK    1  A    between atoms: C_6  and  N_7 
REMARK       I    between atoms: N_7  and  C_8 
REMARK    2  A    between atoms: C_8  and  C_10 
REMARK    3  A    between atoms: C_10  and  N_11 
ROOT
HETATM    1  N   UNL     1     -41.797 -50.195  11.537  1.00  0.00    -0.355 N 
HETATM    2  C   UNL     1     -42.059 -51.104  12.539  1.00  0.00     0.237 C 
HETATM    3  O   UNL     1     -42.190 -50.786  13.721  1.00  0.00    -0.272 OA
HETATM    4  H   UNL     1     -41.784 -50.499  10.570  1.00  0.00     0.162 HD
ENDROOT
BRANCH   2   5
HETATM    5  C   UNL     1     -42.111 -52.566  12.107  1.00  0.00     0.255 C 
BRANCH   5   6
HETATM    6  N   UNL     1     -42.562 -53.386  13.222  1.00  0.00    -0.246 N 
HETATM    7  N   UNL     1     -41.564 -53.715  14.163  1.00  0.00    -0.261 N 
HETATM    8  C   UNL     1     -41.758 -54.674  15.119  1.00  0.00     0.260 C 
HETATM    9  H   UNL     1     -40.591 -53.565  13.894  1.00  0.00     0.190 HD
HETATM   10  O   UNL     1     -40.857 -55.116  15.819  1.00  0.00    -0.267 OA
HETATM   11  C   UNL     1     -43.141 -55.157  15.282  1.00  0.00     0.081 C 
HETATM   12  C   UNL     1     -44.081 -54.861  14.382  1.00  0.00     0.081 C 
HETATM   13  C   UNL     1     -43.785 -54.017  13.206  1.00  0.00     0.262 C 
HETATM   14  O   UNL     1     -44.619 -53.893  12.316  1.00  0.00    -0.267 OA
ENDBRANCH   5   6
ENDBRANCH   2   5
BRANCH   1  15
HETATM   15  C   UNL     1     -41.659 -48.776  11.830  1.00  0.00     0.088 C 
HETATM   16  C   UNL     1     -42.832 -47.998  11.216  1.00  0.00     0.025 C 
HETATM   17  C   UNL     1     -42.736 -46.505  11.507  1.00  0.00     0.002 C 
HETATM   18  C   UNL     1     -41.389 -45.930  11.075  1.00  0.00     0.005 C 
HETATM   19  C   UNL     1     -40.191 -46.694  11.663  1.00  0.00    -0.013 C 
HETATM   20  C   UNL     1     -40.040 -46.395  13.163  1.00  0.00     0.010 C 
HETATM   21  C   UNL     1     -40.308 -48.207  11.336  1.00  0.00     0.008 C 
HETATM   22  C   UNL     1     -39.114 -49.003  11.872  1.00  0.00     0.012 C 
ENDBRANCH   1  15
TORSDOF 3
ENDMDL
