MODEL 1
REMARK VINA RESULT:      -6.1      0.000      0.000
REMARK  6 active torsions:
REMARK  status: ('A' for Active; 'I' for Inactive)
REMARK    1  A    between atoms: C_2  and  C_4 
REMARK    2  A    between atoms: C_7  and  C_8 
REMARK    3  A    between atoms: C_8  and  C_9 
REMARK    4  A    between atoms: C_9  and  N_10 
REMARK       I    between atoms: N_10  and  C_11 
REMARK    5  A    between atoms: C_11  and  C_13 
REMARK    6  A    between atoms: C_13  and  C_14 
ROOT
HETATM    1  C   UNL     1     -42.208 -49.998  13.045  1.00  0.00     0.128 C 
ENDROOT
BRANCH   1   2
HETATM    2  C   UNL     1     -41.143 -49.562  12.038  1.00  0.00     0.077 C 
BRANCH   2   3
HETATM    3  C   UNL     1     -41.541 -48.353  11.249  1.00  0.00     0.018 A 
HETATM    4  N   UNL     1     -42.536 -48.467  10.287  1.00  0.00    -0.356 N 
HETATM    5  C   UNL     1     -42.751 -47.301   9.711  1.00  0.00     0.054 A 
ATOM      6  HN  UNL     1     -43.030 -49.330  10.059  1.00  0.00     0.166 HD
HETATM    7  S   UNL     1     -41.774 -46.008  10.292  1.00  0.00    -0.086 SA
HETATM    8  C   UNL     1     -41.022 -47.082  11.390  1.00  0.00     0.076 A 
BRANCH   5   9
HETATM    9  C   UNL     1     -43.755 -47.054   8.612  1.00  0.00     0.035 C 
HETATM   10  C   UNL     1     -43.525 -48.019   7.449  1.00  0.00     0.016 C 
HETATM   11  C   UNL     1     -45.184 -47.176   9.140  1.00  0.00     0.016 C 
ENDBRANCH   5   9
ENDBRANCH   2   3
ENDBRANCH   1   2
BRANCH   1  12
HETATM   12  N   UNL     1     -43.077 -51.049  12.539  1.00  0.00    -0.361 N 
HETATM   13  C   UNL     1     -43.370 -52.163  13.285  1.00  0.00     0.218 C 
HETATM   14  O   UNL     1     -42.923 -52.351  14.413  1.00  0.00    -0.274 OA
HETATM   15  H   UNL     1     -43.327 -51.023  11.558  1.00  0.00     0.162 HD
BRANCH  13  16
HETATM   16  C   UNL     1     -44.317 -53.145  12.623  1.00  0.00     0.111 C 
BRANCH  16  17
HETATM   17  C   UNL     1     -45.788 -52.989  13.004  1.00  0.00     0.017 A 
HETATM   18  C   UNL     1     -46.259 -51.532  13.167  1.00  0.00     0.012 A 
HETATM   19  C   UNL     1     -46.828 -51.394  14.581  1.00  0.00     0.027 A 
HETATM   20  C   UNL     1     -46.781 -52.780  15.127  1.00  0.00    -0.030 A 
HETATM   21  C   UNL     1     -46.193 -53.638  14.293  1.00  0.00    -0.026 A 
ENDBRANCH  16  17
ENDBRANCH  13  16
ENDBRANCH   1  12
TORSDOF 6
ENDMDL
MODEL 2
REMARK VINA RESULT:      -5.8      2.793      6.599
REMARK  6 active torsions:
REMARK  status: ('A' for Active; 'I' for Inactive)
REMARK    1  A    between atoms: C_2  and  C_4 
REMARK    2  A    between atoms: C_7  and  C_8 
REMARK    3  A    between atoms: C_8  and  C_9 
REMARK    4  A    between atoms: C_9  and  N_10 
REMARK       I    between atoms: N_10  and  C_11 
REMARK    5  A    between atoms: C_11  and  C_13 
REMARK    6  A    between atoms: C_13  and  C_14 
ROOT
HETATM    1  C   UNL     1     -41.964 -49.470  11.844  1.00  0.00     0.128 C 
ENDROOT
BRANCH   1   2
HETATM    2  C   UNL     1     -41.001 -50.645  11.665  1.00  0.00     0.077 C 
BRANCH   2   3
HETATM    3  C   UNL     1     -41.501 -51.911  12.289  1.00  0.00     0.018 A 
HETATM    4  N   UNL     1     -42.852 -52.221  12.208  1.00  0.00    -0.356 N 
HETATM    5  C   UNL     1     -43.094 -53.372  12.804  1.00  0.00     0.054 A 
ATOM      6  HN  UNL     1     -43.556 -51.641  11.753  1.00  0.00     0.166 HD
HETATM    7  S   UNL     1     -41.716 -54.143  13.491  1.00  0.00    -0.086 SA
HETATM    8  C   UNL     1     -40.734 -52.852  12.946  1.00  0.00     0.076 A 
BRANCH   5   9
HETATM    9  C   UNL     1     -44.454 -54.014  12.920  1.00  0.00     0.035 C 
HETATM   10  C   UNL     1     -44.555 -54.827  14.211  1.00  0.00     0.016 C 
HETATM   11  C   UNL     1     -45.562 -52.965  12.855  1.00  0.00     0.016 C 
ENDBRANCH   5   9
ENDBRANCH   2   3
ENDBRANCH   1   2
BRANCH   1  12
HETATM   12  N   UNL     1     -42.030 -48.602  10.679  1.00  0.00    -0.361 N 
HETATM   13  C   UNL     1     -42.909 -47.550  10.612  1.00  0.00     0.218 C 
HETATM   14  O   UNL     1     -43.692 -47.273  11.516  1.00  0.00    -0.274 OA
HETATM   15  H   UNL     1     -41.532 -48.891   9.846  1.00  0.00     0.162 HD
BRANCH  13  16
HETATM   16  C   UNL     1     -42.826 -46.726   9.342  1.00  0.00     0.111 C 
BRANCH  16  17
HETATM   17  C   UNL     1     -44.072 -46.763   8.459  1.00  0.00     0.017 A 
HETATM   18  C   UNL     1     -45.242 -45.898   8.962  1.00  0.00     0.012 A 
HETATM   19  C   UNL     1     -46.452 -46.821   9.125  1.00  0.00     0.027 A 
HETATM   20  C   UNL     1     -45.979 -48.133   8.600  1.00  0.00    -0.030 A 
HETATM   21  C   UNL     1     -44.688 -48.116   8.268  1.00  0.00    -0.026 A 
ENDBRANCH  16  17
ENDBRANCH  13  16
ENDBRANCH   1  12
TORSDOF 6
ENDMDL
MODEL 3
REMARK VINA RESULT:      -5.7      1.935      2.493
REMARK  6 active torsions:
REMARK  status: ('A' for Active; 'I' for Inactive)
REMARK    1  A    between atoms: C_2  and  C_4 
REMARK    2  A    between atoms: C_7  and  C_8 
REMARK    3  A    between atoms: C_8  and  C_9 
REMARK    4  A    between atoms: C_9  and  N_10 
REMARK       I    between atoms: N_10  and  C_11 
REMARK    5  A    between atoms: C_11  and  C_13 
REMARK    6  A    between atoms: C_13  and  C_14 
ROOT
HETATM    1  C   UNL     1     -40.476 -50.257  12.530  1.00  0.00     0.128 C 
ENDROOT
BRANCH   1   2
HETATM    2  C   UNL     1     -40.316 -49.740  11.099  1.00  0.00     0.077 C 
BRANCH   2   3
HETATM    3  C   UNL     1     -41.091 -48.485  10.840  1.00  0.00     0.018 A 
HETATM    4  N   UNL     1     -42.199 -48.531  10.005  1.00  0.00    -0.356 N 
HETATM    5  C   UNL     1     -42.750 -47.338   9.908  1.00  0.00     0.054 A 
ATOM      6  HN  UNL     1     -42.538 -49.370   9.532  1.00  0.00     0.166 HD
HETATM    7  S   UNL     1     -41.970 -46.099  10.815  1.00  0.00    -0.086 SA
HETATM    8  C   UNL     1     -40.828 -47.241  11.375  1.00  0.00     0.076 A 
BRANCH   5   9
HETATM    9  C   UNL     1     -43.966 -47.013   9.076  1.00  0.00     0.035 C 
HETATM   10  C   UNL     1     -45.218 -47.642   9.688  1.00  0.00     0.016 C 
HETATM   11  C   UNL     1     -44.139 -45.502   8.928  1.00  0.00     0.016 C 
ENDBRANCH   5   9
ENDBRANCH   2   3
ENDBRANCH   1   2
BRANCH   1  12
HETATM   12  N   UNL     1     -41.234 -51.496  12.609  1.00  0.00    -0.361 N 
HETATM   13  C   UNL     1     -40.626 -52.699  12.865  1.00  0.00     0.218 C 
HETATM   14  O   UNL     1     -39.416 -52.814  13.040  1.00  0.00    -0.274 OA
HETATM   15  H   UNL     1     -42.200 -51.478  12.302  1.00  0.00     0.162 HD
BRANCH  13  16
HETATM   16  C   UNL     1     -41.565 -53.887  12.946  1.00  0.00     0.111 C 
BRANCH  16  17
HETATM   17  C   UNL     1     -42.917 -53.605  13.600  1.00  0.00     0.017 A 
HETATM   18  C   UNL     1     -43.307 -54.587  14.718  1.00  0.00     0.012 A 
HETATM   19  C   UNL     1     -44.656 -55.201  14.333  1.00  0.00     0.027 A 
HETATM   20  C   UNL     1     -45.045 -54.470  13.094  1.00  0.00    -0.030 A 
HETATM   21  C   UNL     1     -44.098 -53.630  12.677  1.00  0.00    -0.026 A 
ENDBRANCH  16  17
ENDBRANCH  13  16
ENDBRANCH   1  12
TORSDOF 6
ENDMDL
MODEL 4
REMARK VINA RESULT:      -5.7      1.473      2.258
REMARK  6 active torsions:
REMARK  status: ('A' for Active; 'I' for Inactive)
REMARK    1  A    between atoms: C_2  and  C_4 
REMARK    2  A    between atoms: C_7  and  C_8 
REMARK    3  A    between atoms: C_8  and  C_9 
REMARK    4  A    between atoms: C_9  and  N_10 
REMARK       I    between atoms: N_10  and  C_11 
REMARK    5  A    between atoms: C_11  and  C_13 
REMARK    6  A    between atoms: C_13  and  C_14 
ROOT
HETATM    1  C   UNL     1     -43.243 -49.457  13.459  1.00  0.00     0.128 C 
ENDROOT
BRANCH   1   2
HETATM    2  C   UNL     1     -42.007 -48.907  12.746  1.00  0.00     0.077 C 
BRANCH   2   3
HETATM    3  C   UNL     1     -42.336 -47.861  11.726  1.00  0.00     0.018 A 
HETATM    4  N   UNL     1     -43.159 -48.190  10.657  1.00  0.00    -0.356 N 
HETATM    5  C   UNL     1     -43.338 -47.142   9.878  1.00  0.00     0.054 A 
ATOM      6  HN  UNL     1     -43.566 -49.111  10.498  1.00  0.00     0.166 HD
HETATM    7  S   UNL     1     -42.531 -45.708  10.386  1.00  0.00    -0.086 SA
HETATM    8  C   UNL     1     -41.911 -46.548  11.739  1.00  0.00     0.076 A 
BRANCH   5   9
HETATM    9  C   UNL     1     -44.167 -47.135   8.617  1.00  0.00     0.035 C 
HETATM   10  C   UNL     1     -43.510 -47.998   7.539  1.00  0.00     0.016 C 
HETATM   11  C   UNL     1     -45.591 -47.613   8.896  1.00  0.00     0.016 C 
ENDBRANCH   5   9
ENDBRANCH   2   3
ENDBRANCH   1   2
BRANCH   1  12
HETATM   12  N   UNL     1     -43.767 -50.666  12.843  1.00  0.00    -0.361 N 
HETATM   13  C   UNL     1     -44.472 -51.596  13.566  1.00  0.00     0.218 C 
HETATM   14  O   UNL     1     -44.704 -51.476  14.766  1.00  0.00    -0.274 OA
HETATM   15  H   UNL     1     -43.456 -50.892  11.906  1.00  0.00     0.162 HD
BRANCH  13  16
HETATM   16  C   UNL     1     -44.975 -52.781  12.765  1.00  0.00     0.111 C 
BRANCH  16  17
HETATM   17  C   UNL     1     -44.180 -54.073  12.945  1.00  0.00     0.017 A 
HETATM   18  C   UNL     1     -44.640 -54.953  14.122  1.00  0.00     0.012 A 
HETATM   19  C   UNL     1     -43.428 -55.162  15.033  1.00  0.00     0.027 A 
HETATM   20  C   UNL     1     -42.306 -54.514  14.298  1.00  0.00    -0.030 A 
HETATM   21  C   UNL     1     -42.711 -53.899  13.186  1.00  0.00    -0.026 A 
ENDBRANCH  16  17
ENDBRANCH  13  16
ENDBRANCH   1  12
TORSDOF 6
ENDMDL
MODEL 5
REMARK VINA RESULT:      -5.7      3.583      7.007
REMARK  6 active torsions:
REMARK  status: ('A' for Active; 'I' for Inactive)
REMARK    1  A    between atoms: C_2  and  C_4 
REMARK    2  A    between atoms: C_7  and  C_8 
REMARK    3  A    between atoms: C_8  and  C_9 
REMARK    4  A    between atoms: C_9  and  N_10 
REMARK       I    between atoms: N_10  and  C_11 
REMARK    5  A    between atoms: C_11  and  C_13 
REMARK    6  A    between atoms: C_13  and  C_14 
ROOT
HETATM    1  C   UNL     1     -41.612 -52.674  11.819  1.00  0.00     0.128 C 
ENDROOT
BRANCH   1   2
HETATM    2  C   UNL     1     -41.499 -53.034  13.300  1.00  0.00     0.077 C 
BRANCH   2   3
HETATM    3  C   UNL     1     -42.829 -53.240  13.957  1.00  0.00     0.018 A 
HETATM    4  N   UNL     1     -43.941 -52.573  13.462  1.00  0.00    -0.356 N 
HETATM    5  C   UNL     1     -45.013 -52.888  14.161  1.00  0.00     0.054 A 
ATOM      6  HN  UNL     1     -43.930 -51.930  12.670  1.00  0.00     0.166 HD
HETATM    7  S   UNL     1     -44.744 -54.002  15.447  1.00  0.00    -0.086 SA
HETATM    8  C   UNL     1     -43.087 -54.068  15.031  1.00  0.00     0.076 A 
BRANCH   5   9
HETATM    9  C   UNL     1     -46.397 -52.343  13.912  1.00  0.00     0.035 C 
HETATM   10  C   UNL     1     -46.807 -51.388  15.034  1.00  0.00     0.016 C 
HETATM   11  C   UNL     1     -46.474 -51.645  12.555  1.00  0.00     0.016 C 
ENDBRANCH   5   9
ENDBRANCH   2   3
ENDBRANCH   1   2
BRANCH   1  12
HETATM   12  N   UNL     1     -40.831 -51.502  11.454  1.00  0.00    -0.361 N 
HETATM   13  C   UNL     1     -41.203 -50.238  11.840  1.00  0.00     0.218 C 
HETATM   14  O   UNL     1     -42.208 -50.011  12.509  1.00  0.00    -0.274 OA
HETATM   15  H   UNL     1     -40.099 -51.619  10.764  1.00  0.00     0.162 HD
BRANCH  13  16
HETATM   16  C   UNL     1     -40.262 -49.133  11.404  1.00  0.00     0.111 C 
BRANCH  16  17
HETATM   17  C   UNL     1     -38.921 -49.092  12.136  1.00  0.00     0.017 A 
HETATM   18  C   UNL     1     -37.786 -49.867  11.442  1.00  0.00     0.012 A 
HETATM   19  C   UNL     1     -37.260 -50.896  12.445  1.00  0.00     0.027 A 
HETATM   20  C   UNL     1     -38.010 -50.598  13.697  1.00  0.00    -0.030 A 
HETATM   21  C   UNL     1     -38.929 -49.646  13.528  1.00  0.00    -0.026 A 
ENDBRANCH  16  17
ENDBRANCH  13  16
ENDBRANCH   1  12
TORSDOF 6
ENDMDL
MODEL 6
REMARK VINA RESULT:      -5.7      1.730      2.919
REMARK  6 active torsions:
REMARK  status: ('A' for Active; 'I' for Inactive)
REMARK    1  A    between atoms: C_2  and  C_4 
REMARK    2  A    between atoms: C_7  and  C_8 
REMARK    3  A    between atoms: C_8  and  C_9 
REMARK    4  A    between atoms: C_9  and  N_10 
REMARK       I    between atoms: N_10  and  C_11 
REMARK    5  A    between atoms: C_11  and  C_13 
REMARK    6  A    between atoms: C_13  and  C_14 
ROOT
HETATM    1  C   UNL     1     -41.043 -50.231  12.241  1.00  0.00     0.128 C 
ENDROOT
BRANCH   1   2
HETATM    2  C   UNL     1     -40.741 -49.688  10.843  1.00  0.00     0.077 C 
BRANCH   2   3
HETATM    3  C   UNL     1     -41.190 -48.272  10.656  1.00  0.00     0.018 A 
HETATM    4  N   UNL     1     -40.268 -47.243  10.793  1.00  0.00    -0.356 N 
HETATM    5  C   UNL     1     -40.847 -46.078  10.583  1.00  0.00     0.054 A 
ATOM      6  HN  UNL     1     -39.282 -47.372  11.024  1.00  0.00     0.166 HD
HETATM    7  S   UNL     1     -42.526 -46.153  10.209  1.00  0.00    -0.086 SA
HETATM    8  C   UNL     1     -42.466 -47.858  10.330  1.00  0.00     0.076 A 
BRANCH   5   9
HETATM    9  C   UNL     1     -40.150 -44.742  10.660  1.00  0.00     0.035 C 
HETATM   10  C   UNL     1     -39.477 -44.566  12.022  1.00  0.00     0.016 C 
HETATM   11  C   UNL     1     -39.132 -44.590   9.531  1.00  0.00     0.016 C 
ENDBRANCH   5   9
ENDBRANCH   2   3
ENDBRANCH   1   2
BRANCH   1  12
HETATM   12  N   UNL     1     -42.406 -50.717  12.384  1.00  0.00    -0.361 N 
HETATM   13  C   UNL     1     -42.676 -51.979  12.851  1.00  0.00     0.218 C 
HETATM   14  O   UNL     1     -41.799 -52.776  13.173  1.00  0.00    -0.274 OA
HETATM   15  H   UNL     1     -43.149 -50.166  11.971  1.00  0.00     0.162 HD
BRANCH  13  16
HETATM   16  C   UNL     1     -44.150 -52.315  12.970  1.00  0.00     0.111 C 
BRANCH  16  17
HETATM   17  C   UNL     1     -45.018 -51.226  13.598  1.00  0.00     0.017 A 
HETATM   18  C   UNL     1     -44.650 -50.869  15.050  1.00  0.00     0.012 A 
HETATM   19  C   UNL     1     -45.906 -51.077  15.900  1.00  0.00     0.027 A 
HETATM   20  C   UNL     1     -46.963 -51.418  14.907  1.00  0.00    -0.030 A 
HETATM   21  C   UNL     1     -46.484 -51.530  13.668  1.00  0.00    -0.026 A 
ENDBRANCH  16  17
ENDBRANCH  13  16
ENDBRANCH   1  12
TORSDOF 6
ENDMDL
MODEL 7
REMARK VINA RESULT:      -5.6      3.588      4.491
REMARK  6 active torsions:
REMARK  status: ('A' for Active; 'I' for Inactive)
REMARK    1  A    between atoms: C_2  and  C_4 
REMARK    2  A    between atoms: C_7  and  C_8 
REMARK    3  A    between atoms: C_8  and  C_9 
REMARK    4  A    between atoms: C_9  and  N_10 
REMARK       I    between atoms: N_10  and  C_11 
REMARK    5  A    between atoms: C_11  and  C_13 
REMARK    6  A    between atoms: C_13  and  C_14 
ROOT
HETATM    1  C   UNL     1     -42.429 -54.265  13.535  1.00  0.00     0.128 C 
ENDROOT
BRANCH   1   2
HETATM    2  C   UNL     1     -41.058 -54.075  12.887  1.00  0.00     0.077 C 
BRANCH   2   3
HETATM    3  C   UNL     1     -40.465 -52.726  13.155  1.00  0.00     0.018 A 
HETATM    4  N   UNL     1     -40.077 -51.930  12.086  1.00  0.00    -0.356 N 
HETATM    5  C   UNL     1     -39.590 -50.785  12.521  1.00  0.00     0.054 A 
ATOM      6  HN  UNL     1     -40.157 -52.194  11.104  1.00  0.00     0.166 HD
HETATM    7  S   UNL     1     -39.573 -50.602  14.233  1.00  0.00    -0.086 SA
HETATM    8  C   UNL     1     -40.270 -52.155  14.396  1.00  0.00     0.076 A 
BRANCH   5   9
HETATM    9  C   UNL     1     -39.062 -49.681  11.639  1.00  0.00     0.035 C 
HETATM   10  C   UNL     1     -39.313 -48.315  12.279  1.00  0.00     0.016 C 
HETATM   11  C   UNL     1     -37.574 -49.875  11.351  1.00  0.00     0.016 C 
ENDBRANCH   5   9
ENDBRANCH   2   3
ENDBRANCH   1   2
BRANCH   1  12
HETATM   12  N   UNL     1     -43.446 -53.377  12.994  1.00  0.00    -0.361 N 
HETATM   13  C   UNL     1     -44.784 -53.667  13.093  1.00  0.00     0.218 C 
HETATM   14  O   UNL     1     -45.211 -54.682  13.635  1.00  0.00    -0.274 OA
HETATM   15  H   UNL     1     -43.141 -52.622  12.391  1.00  0.00     0.162 HD
BRANCH  13  16
HETATM   16  C   UNL     1     -45.711 -52.620  12.506  1.00  0.00     0.111 C 
BRANCH  16  17
HETATM   17  C   UNL     1     -45.969 -51.405  13.396  1.00  0.00     0.017 A 
HETATM   18  C   UNL     1     -44.709 -50.803  14.043  1.00  0.00     0.012 A 
HETATM   19  C   UNL     1     -44.929 -50.809  15.558  1.00  0.00     0.027 A 
HETATM   20  C   UNL     1     -46.330 -51.288  15.718  1.00  0.00    -0.030 A 
HETATM   21  C   UNL     1     -46.886 -51.640  14.558  1.00  0.00    -0.026 A 
ENDBRANCH  16  17
ENDBRANCH  13  16
ENDBRANCH   1  12
TORSDOF 6
ENDMDL
MODEL 8
REMARK VINA RESULT:      -5.4      2.122      2.932
REMARK  6 active torsions:
REMARK  status: ('A' for Active; 'I' for Inactive)
REMARK    1  A    between atoms: C_2  and  C_4 
REMARK    2  A    between atoms: C_7  and  C_8 
REMARK    3  A    between atoms: C_8  and  C_9 
REMARK    4  A    between atoms: C_9  and  N_10 
REMARK       I    between atoms: N_10  and  C_11 
REMARK    5  A    between atoms: C_11  and  C_13 
REMARK    6  A    between atoms: C_13  and  C_14 
ROOT
HETATM    1  C   UNL     1     -41.928 -53.017  13.668  1.00  0.00     0.128 C 
ENDROOT
BRANCH   1   2
HETATM    2  C   UNL     1     -41.073 -52.863  12.409  1.00  0.00     0.077 C 
BRANCH   2   3
HETATM    3  C   UNL     1     -40.671 -51.445  12.145  1.00  0.00     0.018 A 
HETATM    4  N   UNL     1     -41.564 -50.592  11.511  1.00  0.00    -0.356 N 
HETATM    5  C   UNL     1     -41.034 -49.392  11.376  1.00  0.00     0.054 A 
ATOM      6  HN  UNL     1     -42.497 -50.857  11.194  1.00  0.00     0.166 HD
HETATM    7  S   UNL     1     -39.440 -49.224  12.004  1.00  0.00    -0.086 SA
HETATM    8  C   UNL     1     -39.468 -50.862  12.492  1.00  0.00     0.076 A 
BRANCH   5   9
HETATM    9  C   UNL     1     -41.717 -48.217  10.723  1.00  0.00     0.035 C 
HETATM   10  C   UNL     1     -43.151 -48.077  11.234  1.00  0.00     0.016 C 
HETATM   11  C   UNL     1     -40.932 -46.927  10.961  1.00  0.00     0.016 C 
ENDBRANCH   5   9
ENDBRANCH   2   3
ENDBRANCH   1   2
BRANCH   1  12
HETATM   12  N   UNL     1     -43.259 -53.536  13.395  1.00  0.00    -0.361 N 
HETATM   13  C   UNL     1     -43.916 -54.343  14.290  1.00  0.00     0.218 C 
HETATM   14  O   UNL     1     -43.433 -54.681  15.367  1.00  0.00    -0.274 OA
HETATM   15  H   UNL     1     -43.624 -53.429  12.456  1.00  0.00     0.162 HD
BRANCH  13  16
HETATM   16  C   UNL     1     -45.308 -54.770  13.865  1.00  0.00     0.111 C 
BRANCH  16  17
HETATM   17  C   UNL     1     -46.406 -53.732  14.095  1.00  0.00     0.017 A 
HETATM   18  C   UNL     1     -46.446 -52.597  13.055  1.00  0.00     0.012 A 
HETATM   19  C   UNL     1     -46.312 -51.277  13.819  1.00  0.00     0.027 A 
HETATM   20  C   UNL     1     -46.327 -51.685  15.251  1.00  0.00    -0.030 A 
HETATM   21  C   UNL     1     -46.347 -53.009  15.406  1.00  0.00    -0.026 A 
ENDBRANCH  16  17
ENDBRANCH  13  16
ENDBRANCH   1  12
TORSDOF 6
ENDMDL
MODEL 9
REMARK VINA RESULT:      -5.4      3.645      4.706
REMARK  6 active torsions:
REMARK  status: ('A' for Active; 'I' for Inactive)
REMARK    1  A    between atoms: C_2  and  C_4 
REMARK    2  A    between atoms: C_7  and  C_8 
REMARK    3  A    between atoms: C_8  and  C_9 
REMARK    4  A    between atoms: C_9  and  N_10 
REMARK       I    between atoms: N_10  and  C_11 
REMARK    5  A    between atoms: C_11  and  C_13 
REMARK    6  A    between atoms: C_13  and  C_14 
ROOT
HETATM    1  C   UNL     1     -41.414 -54.376  14.780  1.00  0.00     0.128 C 
ENDROOT
BRANCH   1   2
HETATM    2  C   UNL     1     -41.295 -54.226  13.262  1.00  0.00     0.077 C 
BRANCH   2   3
HETATM    3  C   UNL     1     -41.025 -52.817  12.832  1.00  0.00     0.018 A 
HETATM    4  N   UNL     1     -39.789 -52.248  13.107  1.00  0.00    -0.356 N 
HETATM    5  C   UNL     1     -39.740 -51.014  12.645  1.00  0.00     0.054 A 
ATOM      6  HN  UNL     1     -39.028 -52.718  13.597  1.00  0.00     0.166 HD
HETATM    7  S   UNL     1     -41.172 -50.473  11.857  1.00  0.00    -0.086 SA
HETATM    8  C   UNL     1     -41.897 -51.994  12.149  1.00  0.00     0.076 A 
BRANCH   5   9
HETATM    9  C   UNL     1     -38.554 -50.091  12.774  1.00  0.00     0.035 C 
HETATM   10  C   UNL     1     -37.280 -50.785  12.292  1.00  0.00     0.016 C 
HETATM   11  C   UNL     1     -38.786 -48.792  12.003  1.00  0.00     0.016 C 
ENDBRANCH   5   9
ENDBRANCH   2   3
ENDBRANCH   1   2
BRANCH   1  12
HETATM   12  N   UNL     1     -42.654 -53.833  15.312  1.00  0.00    -0.361 N 
HETATM   13  C   UNL     1     -43.802 -54.583  15.373  1.00  0.00     0.218 C 
HETATM   14  O   UNL     1     -43.864 -55.747  14.985  1.00  0.00    -0.274 OA
HETATM   15  H   UNL     1     -42.699 -52.836  15.481  1.00  0.00     0.162 HD
BRANCH  13  16
HETATM   16  C   UNL     1     -44.996 -53.877  15.985  1.00  0.00     0.111 C 
BRANCH  16  17
HETATM   17  C   UNL     1     -46.088 -53.468  14.998  1.00  0.00     0.017 A 
HETATM   18  C   UNL     1     -45.581 -53.124  13.586  1.00  0.00     0.012 A 
HETATM   19  C   UNL     1     -46.044 -51.699  13.272  1.00  0.00     0.027 A 
HETATM   20  C   UNL     1     -46.890 -51.328  14.441  1.00  0.00    -0.030 A 
HETATM   21  C   UNL     1     -46.893 -52.266  15.388  1.00  0.00    -0.026 A 
ENDBRANCH  16  17
ENDBRANCH  13  16
ENDBRANCH   1  12
TORSDOF 6
ENDMDL
