MODEL 1
REMARK VINA RESULT:      -7.0      0.000      0.000
REMARK  6 active torsions:
REMARK  status: ('A' for Active; 'I' for Inactive)
REMARK    1  A    between atoms: N_11  and  C_12 
REMARK    2  A    between atoms: C_12  and  C_13 
REMARK    3  A    between atoms: C_13  and  O_14 
REMARK    4  A    between atoms: C_13  and  C_15 
REMARK    5  A    between atoms: C_18  and  O_19 
REMARK    6  A    between atoms: O_19  and  C_20 
ROOT
HETATM    1  C   UNL     1     -41.233 -52.510  12.004  1.00  0.00     0.169 C 
ENDROOT
BRANCH   1   2
HETATM    2  C   UNL     1     -40.367 -51.592  12.884  1.00  0.00     0.167 C 
BRANCH   2   3
HETATM    3  N   UNL     1     -40.146 -50.274  12.311  1.00  0.00    -0.332 N 
HETATM    4  C   UNL     1     -38.948 -49.785  11.830  1.00  0.00     0.080 A 
HETATM    5  C   UNL     1     -37.652 -50.508  11.918  1.00  0.00     0.089 C 
HETATM    6  N   UNL     1     -39.114 -48.601  11.277  1.00  0.00    -0.344 N 
HETATM    7  C   UNL     1     -40.448 -48.310  11.402  1.00  0.00     0.060 A 
ATOM      8  HN  UNL     1     -38.397 -48.020  10.844  1.00  0.00     0.167 HD
HETATM    9  C   UNL     1     -41.155 -47.178  10.970  1.00  0.00     0.032 A 
HETATM   10  C   UNL     1     -41.124 -49.336  12.053  1.00  0.00     0.062 A 
HETATM   11  C   UNL     1     -42.531 -47.106  11.214  1.00  0.00     0.002 A 
HETATM   12  C   UNL     1     -43.190 -48.142  11.877  1.00  0.00     0.002 A 
HETATM   13  C   UNL     1     -42.502 -49.281  12.310  1.00  0.00     0.032 A 
ENDBRANCH   2   3
ENDBRANCH   1   2
BRANCH   1  14
HETATM   14  O   UNL     1     -40.433 -53.499  11.356  1.00  0.00    -0.389 OA
HETATM   15  H   UNL     1     -39.723 -53.762  11.962  1.00  0.00     0.210 HD
ENDBRANCH   1  14
BRANCH   1  16
HETATM   16  C   UNL     1     -42.344 -53.236  12.749  1.00  0.00    -0.028 A 
HETATM   17  C   UNL     1     -43.658 -53.126  12.266  1.00  0.00     0.012 A 
HETATM   18  C   UNL     1     -44.719 -53.759  12.919  1.00  0.00     0.037 A 
HETATM   19  C   UNL     1     -44.491 -54.542  14.050  1.00  0.00     0.074 A 
HETATM   20  C   UNL     1     -43.190 -54.669  14.538  1.00  0.00     0.037 A 
HETATM   21  C   UNL     1     -42.125 -54.029  13.883  1.00  0.00     0.012 A 
BRANCH  19  22
HETATM   22  O   UNL     1     -45.609 -55.099  14.605  1.00  0.00    -0.290 OA
BRANCH  22  23
HETATM   23  C   UNL     1     -46.378 -54.246  15.435  1.00  0.00     0.505 C 
HETATM   24  F   UNL     1     -45.580 -53.261  15.917  1.00  0.00    -0.184 F 
HETATM   25  F   UNL     1     -47.307 -53.646  14.647  1.00  0.00    -0.184 F 
ENDBRANCH  22  23
ENDBRANCH  19  22
ENDBRANCH   1  16
TORSDOF 6
ENDMDL
MODEL 2
REMARK VINA RESULT:      -6.5      3.601      6.519
REMARK  6 active torsions:
REMARK  status: ('A' for Active; 'I' for Inactive)
REMARK    1  A    between atoms: N_11  and  C_12 
REMARK    2  A    between atoms: C_12  and  C_13 
REMARK    3  A    between atoms: C_13  and  O_14 
REMARK    4  A    between atoms: C_13  and  C_15 
REMARK    5  A    between atoms: C_18  and  O_19 
REMARK    6  A    between atoms: O_19  and  C_20 
ROOT
HETATM    1  C   UNL     1     -40.431 -51.395  12.383  1.00  0.00     0.169 C 
ENDROOT
BRANCH   1   2
HETATM    2  C   UNL     1     -40.975 -52.744  11.880  1.00  0.00     0.167 C 
BRANCH   2   3
HETATM    3  N   UNL     1     -41.594 -53.547  12.922  1.00  0.00    -0.332 N 
HETATM    4  C   UNL     1     -40.936 -54.210  13.939  1.00  0.00     0.080 A 
HETATM    5  C   UNL     1     -39.457 -54.287  14.069  1.00  0.00     0.089 C 
HETATM    6  N   UNL     1     -41.796 -54.751  14.777  1.00  0.00    -0.344 N 
HETATM    7  C   UNL     1     -43.040 -54.438  14.295  1.00  0.00     0.060 A 
ATOM      8  HN  UNL     1     -41.580 -55.292  15.614  1.00  0.00     0.167 HD
HETATM    9  C   UNL     1     -44.302 -54.760  14.818  1.00  0.00     0.032 A 
HETATM   10  C   UNL     1     -42.950 -53.689  13.127  1.00  0.00     0.062 A 
HETATM   11  C   UNL     1     -45.446 -54.322  14.141  1.00  0.00     0.002 A 
HETATM   12  C   UNL     1     -45.335 -53.579  12.965  1.00  0.00     0.002 A 
HETATM   13  C   UNL     1     -44.084 -53.244  12.433  1.00  0.00     0.032 A 
ENDBRANCH   2   3
ENDBRANCH   1   2
BRANCH   1  14
HETATM   14  O   UNL     1     -39.100 -51.175  11.917  1.00  0.00    -0.389 OA
HETATM   15  H   UNL     1     -39.082 -50.336  11.429  1.00  0.00     0.210 HD
ENDBRANCH   1  14
BRANCH   1  16
HETATM   16  C   UNL     1     -41.264 -50.187  11.977  1.00  0.00    -0.028 A 
HETATM   17  C   UNL     1     -40.804 -49.378  10.926  1.00  0.00     0.012 A 
HETATM   18  C   UNL     1     -41.521 -48.248  10.522  1.00  0.00     0.037 A 
HETATM   19  C   UNL     1     -42.730 -47.918  11.133  1.00  0.00     0.074 A 
HETATM   20  C   UNL     1     -43.206 -48.718  12.172  1.00  0.00     0.037 A 
HETATM   21  C   UNL     1     -42.483 -49.850  12.581  1.00  0.00     0.012 A 
BRANCH  19  22
HETATM   22  O   UNL     1     -43.331 -46.787  10.657  1.00  0.00    -0.290 OA
BRANCH  22  23
HETATM   23  C   UNL     1     -43.756 -46.834   9.305  1.00  0.00     0.505 C 
HETATM   24  F   UNL     1     -44.567 -47.906   9.134  1.00  0.00    -0.184 F 
HETATM   25  F   UNL     1     -44.515 -45.731   9.082  1.00  0.00    -0.184 F 
ENDBRANCH  22  23
ENDBRANCH  19  22
ENDBRANCH   1  16
TORSDOF 6
ENDMDL
MODEL 3
REMARK VINA RESULT:      -6.3      2.850      4.251
REMARK  6 active torsions:
REMARK  status: ('A' for Active; 'I' for Inactive)
REMARK    1  A    between atoms: N_11  and  C_12 
REMARK    2  A    between atoms: C_12  and  C_13 
REMARK    3  A    between atoms: C_13  and  O_14 
REMARK    4  A    between atoms: C_13  and  C_15 
REMARK    5  A    between atoms: C_18  and  O_19 
REMARK    6  A    between atoms: O_19  and  C_20 
ROOT
HETATM    1  C   UNL     1     -43.181 -50.479  13.181  1.00  0.00     0.169 C 
ENDROOT
BRANCH   1   2
HETATM    2  C   UNL     1     -42.407 -51.692  12.632  1.00  0.00     0.167 C 
BRANCH   2   3
HETATM    3  N   UNL     1     -41.038 -51.776  13.114  1.00  0.00    -0.332 N 
HETATM    4  C   UNL     1     -40.556 -52.671  14.047  1.00  0.00     0.080 A 
HETATM    5  C   UNL     1     -41.402 -53.641  14.792  1.00  0.00     0.089 C 
HETATM    6  N   UNL     1     -39.250 -52.555  14.177  1.00  0.00    -0.344 N 
HETATM    7  C   UNL     1     -38.873 -51.560  13.313  1.00  0.00     0.060 A 
ATOM      8  HN  UNL     1     -38.644 -53.094  14.795  1.00  0.00     0.167 HD
HETATM    9  C   UNL     1     -37.593 -51.049  13.050  1.00  0.00     0.032 A 
HETATM   10  C   UNL     1     -39.972 -51.044  12.634  1.00  0.00     0.062 A 
HETATM   11  C   UNL     1     -37.454 -50.021  12.111  1.00  0.00     0.002 A 
HETATM   12  C   UNL     1     -38.570 -49.510  11.447  1.00  0.00     0.002 A 
HETATM   13  C   UNL     1     -39.854 -50.012  11.692  1.00  0.00     0.032 A 
ENDBRANCH   2   3
ENDBRANCH   1   2
BRANCH   1  14
HETATM   14  O   UNL     1     -43.524 -49.576  12.131  1.00  0.00    -0.389 OA
HETATM   15  H   UNL     1     -43.835 -48.748  12.530  1.00  0.00     0.210 HD
ENDBRANCH   1  14
BRANCH   1  16
HETATM   16  C   UNL     1     -44.463 -50.831  13.921  1.00  0.00    -0.028 A 
HETATM   17  C   UNL     1     -44.487 -50.699  15.319  1.00  0.00     0.012 A 
HETATM   18  C   UNL     1     -45.633 -51.022  16.051  1.00  0.00     0.037 A 
HETATM   19  C   UNL     1     -46.792 -51.451  15.405  1.00  0.00     0.074 A 
HETATM   20  C   UNL     1     -46.787 -51.578  14.016  1.00  0.00     0.037 A 
HETATM   21  C   UNL     1     -45.635 -51.258  13.281  1.00  0.00     0.012 A 
BRANCH  19  22
HETATM   22  O   UNL     1     -47.840 -51.746  16.230  1.00  0.00    -0.290 OA
BRANCH  22  23
HETATM   23  C   UNL     1     -47.842 -51.091  17.487  1.00  0.00     0.505 C 
HETATM   24  F   UNL     1     -48.605 -49.974  17.403  1.00  0.00    -0.184 F 
HETATM   25  F   UNL     1     -48.457 -51.918  18.372  1.00  0.00    -0.184 F 
ENDBRANCH  22  23
ENDBRANCH  19  22
ENDBRANCH   1  16
TORSDOF 6
ENDMDL
MODEL 4
REMARK VINA RESULT:      -6.2      3.631      5.039
REMARK  6 active torsions:
REMARK  status: ('A' for Active; 'I' for Inactive)
REMARK    1  A    between atoms: N_11  and  C_12 
REMARK    2  A    between atoms: C_12  and  C_13 
REMARK    3  A    between atoms: C_13  and  O_14 
REMARK    4  A    between atoms: C_13  and  C_15 
REMARK    5  A    between atoms: C_18  and  O_19 
REMARK    6  A    between atoms: O_19  and  C_20 
ROOT
HETATM    1  C   UNL     1     -42.021 -52.519  12.247  1.00  0.00     0.169 C 
ENDROOT
BRANCH   1   2
HETATM    2  C   UNL     1     -42.340 -51.071  12.660  1.00  0.00     0.167 C 
BRANCH   2   3
HETATM    3  N   UNL     1     -43.050 -50.969  13.925  1.00  0.00    -0.332 N 
HETATM    4  C   UNL     1     -42.520 -50.534  15.123  1.00  0.00     0.080 A 
HETATM    5  C   UNL     1     -41.088 -50.194  15.331  1.00  0.00     0.089 C 
HETATM    6  N   UNL     1     -43.456 -50.455  16.047  1.00  0.00    -0.344 N 
HETATM    7  C   UNL     1     -44.620 -50.849  15.440  1.00  0.00     0.060 A 
ATOM      8  HN  UNL     1     -43.338 -50.161  17.016  1.00  0.00     0.167 HD
HETATM    9  C   UNL     1     -45.915 -50.935  15.972  1.00  0.00     0.032 A 
HETATM   10  C   UNL     1     -44.400 -51.185  14.108  1.00  0.00     0.062 A 
HETATM   11  C   UNL     1     -46.958 -51.367  15.147  1.00  0.00     0.002 A 
HETATM   12  C   UNL     1     -46.716 -51.709  13.816  1.00  0.00     0.002 A 
HETATM   13  C   UNL     1     -45.431 -51.623  13.266  1.00  0.00     0.032 A 
ENDBRANCH   2   3
ENDBRANCH   1   2
BRANCH   1  14
HETATM   14  O   UNL     1     -41.187 -52.548  11.089  1.00  0.00    -0.389 OA
HETATM   15  H   UNL     1     -41.219 -53.442  10.712  1.00  0.00     0.210 HD
ENDBRANCH   1  14
BRANCH   1  16
HETATM   16  C   UNL     1     -41.337 -53.347  13.326  1.00  0.00    -0.028 A 
HETATM   17  C   UNL     1     -42.124 -54.207  14.110  1.00  0.00     0.012 A 
HETATM   18  C   UNL     1     -41.551 -54.979  15.124  1.00  0.00     0.037 A 
HETATM   19  C   UNL     1     -40.177 -54.938  15.359  1.00  0.00     0.074 A 
HETATM   20  C   UNL     1     -39.381 -54.096  14.583  1.00  0.00     0.037 A 
HETATM   21  C   UNL     1     -39.957 -53.316  13.567  1.00  0.00     0.012 A 
BRANCH  19  22
HETATM   22  O   UNL     1     -39.740 -55.729  16.383  1.00  0.00    -0.290 OA
BRANCH  22  23
HETATM   23  C   UNL     1     -40.694 -56.629  16.921  1.00  0.00     0.505 C 
HETATM   24  F   UNL     1     -40.159 -57.874  16.951  1.00  0.00    -0.184 F 
HETATM   25  F   UNL     1     -40.909 -56.266  18.211  1.00  0.00    -0.184 F 
ENDBRANCH  22  23
ENDBRANCH  19  22
ENDBRANCH   1  16
TORSDOF 6
ENDMDL
MODEL 5
REMARK VINA RESULT:      -6.2      4.223      7.118
REMARK  6 active torsions:
REMARK  status: ('A' for Active; 'I' for Inactive)
REMARK    1  A    between atoms: N_11  and  C_12 
REMARK    2  A    between atoms: C_12  and  C_13 
REMARK    3  A    between atoms: C_13  and  O_14 
REMARK    4  A    between atoms: C_13  and  C_15 
REMARK    5  A    between atoms: C_18  and  O_19 
REMARK    6  A    between atoms: O_19  and  C_20 
ROOT
HETATM    1  C   UNL     1     -41.763 -50.395  13.166  1.00  0.00     0.169 C 
ENDROOT
BRANCH   1   2
HETATM    2  C   UNL     1     -42.316 -51.680  12.525  1.00  0.00     0.167 C 
BRANCH   2   3
HETATM    3  N   UNL     1     -43.097 -52.498  13.439  1.00  0.00    -0.332 N 
HETATM    4  C   UNL     1     -42.633 -53.573  14.169  1.00  0.00     0.080 A 
HETATM    5  C   UNL     1     -41.261 -54.133  14.055  1.00  0.00     0.089 C 
HETATM    6  N   UNL     1     -43.566 -54.024  14.983  1.00  0.00    -0.344 N 
HETATM    7  C   UNL     1     -44.663 -53.228  14.777  1.00  0.00     0.060 A 
ATOM      8  HN  UNL     1     -43.488 -54.805  15.633  1.00  0.00     0.167 HD
HETATM    9  C   UNL     1     -45.921 -53.271  15.396  1.00  0.00     0.032 A 
HETATM   10  C   UNL     1     -44.405 -52.263  13.808  1.00  0.00     0.062 A 
HETATM   11  C   UNL     1     -46.894 -52.340  15.016  1.00  0.00     0.002 A 
HETATM   12  C   UNL     1     -46.620 -51.386  14.035  1.00  0.00     0.002 A 
HETATM   13  C   UNL     1     -45.368 -51.325  13.411  1.00  0.00     0.032 A 
ENDBRANCH   2   3
ENDBRANCH   1   2
BRANCH   1  14
HETATM   14  O   UNL     1     -40.388 -50.549  13.514  1.00  0.00    -0.389 OA
HETATM   15  H   UNL     1     -40.265 -51.435  13.887  1.00  0.00     0.210 HD
ENDBRANCH   1  14
BRANCH   1  16
HETATM   16  C   UNL     1     -41.880 -49.153  12.293  1.00  0.00    -0.028 A 
HETATM   17  C   UNL     1     -43.161 -48.698  11.943  1.00  0.00     0.012 A 
HETATM   18  C   UNL     1     -43.327 -47.572  11.132  1.00  0.00     0.037 A 
HETATM   19  C   UNL     1     -42.221 -46.854  10.678  1.00  0.00     0.074 A 
HETATM   20  C   UNL     1     -40.941 -47.287  11.026  1.00  0.00     0.037 A 
HETATM   21  C   UNL     1     -40.775 -48.422  11.837  1.00  0.00     0.012 A 
BRANCH  19  22
HETATM   22  O   UNL     1     -42.511 -45.780   9.886  1.00  0.00    -0.290 OA
BRANCH  22  23
HETATM   23  C   UNL     1     -43.660 -45.909   9.066  1.00  0.00     0.505 C 
HETATM   24  F   UNL     1     -44.302 -44.716   9.012  1.00  0.00    -0.184 F 
HETATM   25  F   UNL     1     -43.230 -46.178   7.806  1.00  0.00    -0.184 F 
ENDBRANCH  22  23
ENDBRANCH  19  22
ENDBRANCH   1  16
TORSDOF 6
ENDMDL
MODEL 6
REMARK VINA RESULT:      -6.1      2.952      4.750
REMARK  6 active torsions:
REMARK  status: ('A' for Active; 'I' for Inactive)
REMARK    1  A    between atoms: N_11  and  C_12 
REMARK    2  A    between atoms: C_12  and  C_13 
REMARK    3  A    between atoms: C_13  and  O_14 
REMARK    4  A    between atoms: C_13  and  C_15 
REMARK    5  A    between atoms: C_18  and  O_19 
REMARK    6  A    between atoms: O_19  and  C_20 
ROOT
HETATM    1  C   UNL     1     -41.324 -52.449  12.276  1.00  0.00     0.169 C 
ENDROOT
BRANCH   1   2
HETATM    2  C   UNL     1     -40.610 -53.565  13.061  1.00  0.00     0.167 C 
BRANCH   2   3
HETATM    3  N   UNL     1     -40.530 -53.312  14.490  1.00  0.00    -0.332 N 
HETATM    4  C   UNL     1     -41.256 -53.954  15.474  1.00  0.00     0.080 A 
HETATM    5  C   UNL     1     -42.326 -54.951  15.208  1.00  0.00     0.089 C 
HETATM    6  N   UNL     1     -40.864 -53.569  16.671  1.00  0.00    -0.344 N 
HETATM    7  C   UNL     1     -39.864 -52.656  16.465  1.00  0.00     0.060 A 
ATOM      8  HN  UNL     1     -41.231 -53.887  17.568  1.00  0.00     0.167 HD
HETATM    9  C   UNL     1     -39.098 -51.950  17.405  1.00  0.00     0.032 A 
HETATM   10  C   UNL     1     -39.632 -52.465  15.107  1.00  0.00     0.062 A 
HETATM   11  C   UNL     1     -38.119 -51.060  16.949  1.00  0.00     0.002 A 
HETATM   12  C   UNL     1     -37.908 -50.875  15.582  1.00  0.00     0.002 A 
HETATM   13  C   UNL     1     -38.659 -51.576  14.630  1.00  0.00     0.032 A 
ENDBRANCH   2   3
ENDBRANCH   1   2
BRANCH   1  14
HETATM   14  O   UNL     1     -41.318 -52.725  10.876  1.00  0.00    -0.389 OA
HETATM   15  H   UNL     1     -41.300 -53.688  10.755  1.00  0.00     0.210 HD
ENDBRANCH   1  14
BRANCH   1  16
HETATM   16  C   UNL     1     -42.768 -52.211  12.691  1.00  0.00    -0.028 A 
HETATM   17  C   UNL     1     -43.071 -51.057  13.431  1.00  0.00     0.012 A 
HETATM   18  C   UNL     1     -44.379 -50.795  13.851  1.00  0.00     0.037 A 
HETATM   19  C   UNL     1     -45.420 -51.659  13.515  1.00  0.00     0.074 A 
HETATM   20  C   UNL     1     -45.137 -52.805  12.771  1.00  0.00     0.037 A 
HETATM   21  C   UNL     1     -43.823 -53.070  12.353  1.00  0.00     0.012 A 
BRANCH  19  22
HETATM   22  O   UNL     1     -46.649 -51.301  13.991  1.00  0.00    -0.290 OA
BRANCH  22  23
HETATM   23  C   UNL     1     -46.974 -51.781  15.285  1.00  0.00     0.505 C 
HETATM   24  F   UNL     1     -47.922 -50.979  15.828  1.00  0.00    -0.184 F 
HETATM   25  F   UNL     1     -47.542 -53.005  15.129  1.00  0.00    -0.184 F 
ENDBRANCH  22  23
ENDBRANCH  19  22
ENDBRANCH   1  16
TORSDOF 6
ENDMDL
MODEL 7
REMARK VINA RESULT:      -6.0      4.154      7.189
REMARK  6 active torsions:
REMARK  status: ('A' for Active; 'I' for Inactive)
REMARK    1  A    between atoms: N_11  and  C_12 
REMARK    2  A    between atoms: C_12  and  C_13 
REMARK    3  A    between atoms: C_13  and  O_14 
REMARK    4  A    between atoms: C_13  and  C_15 
REMARK    5  A    between atoms: C_18  and  O_19 
REMARK    6  A    between atoms: O_19  and  C_20 
ROOT
HETATM    1  C   UNL     1     -40.043 -51.557  12.972  1.00  0.00     0.169 C 
ENDROOT
BRANCH   1   2
HETATM    2  C   UNL     1     -40.674 -52.782  12.285  1.00  0.00     0.167 C 
BRANCH   2   3
HETATM    3  N   UNL     1     -41.512 -53.578  13.168  1.00  0.00    -0.332 N 
HETATM    4  C   UNL     1     -41.075 -54.368  14.212  1.00  0.00     0.080 A 
HETATM    5  C   UNL     1     -39.645 -54.612  14.537  1.00  0.00     0.089 C 
HETATM    6  N   UNL     1     -42.095 -54.865  14.881  1.00  0.00    -0.344 N 
HETATM    7  C   UNL     1     -43.221 -54.392  14.260  1.00  0.00     0.060 A 
ATOM      8  HN  UNL     1     -42.055 -55.478  15.696  1.00  0.00     0.167 HD
HETATM    9  C   UNL     1     -44.570 -54.608  14.579  1.00  0.00     0.032 A 
HETATM   10  C   UNL     1     -42.891 -53.585  13.175  1.00  0.00     0.062 A 
HETATM   11  C   UNL     1     -45.556 -54.009  13.788  1.00  0.00     0.002 A 
HETATM   12  C   UNL     1     -45.206 -53.210  12.698  1.00  0.00     0.002 A 
HETATM   13  C   UNL     1     -43.865 -52.979  12.369  1.00  0.00     0.032 A 
ENDBRANCH   2   3
ENDBRANCH   1   2
BRANCH   1  14
HETATM   14  O   UNL     1     -38.621 -51.665  13.001  1.00  0.00    -0.389 OA
HETATM   15  H   UNL     1     -38.244 -50.792  12.805  1.00  0.00     0.210 HD
ENDBRANCH   1  14
BRANCH   1  16
HETATM   16  C   UNL     1     -40.389 -50.223  12.325  1.00  0.00    -0.028 A 
HETATM   17  C   UNL     1     -39.363 -49.284  12.137  1.00  0.00     0.012 A 
HETATM   18  C   UNL     1     -39.626 -48.037  11.563  1.00  0.00     0.037 A 
HETATM   19  C   UNL     1     -40.911 -47.711  11.132  1.00  0.00     0.074 A 
HETATM   20  C   UNL     1     -41.940 -48.637  11.302  1.00  0.00     0.037 A 
HETATM   21  C   UNL     1     -41.676 -49.887  11.884  1.00  0.00     0.012 A 
BRANCH  19  22
HETATM   22  O   UNL     1     -41.044 -46.461  10.597  1.00  0.00    -0.290 OA
BRANCH  22  23
HETATM   23  C   UNL     1     -39.934 -45.595  10.764  1.00  0.00     0.505 C 
HETATM   24  F   UNL     1     -39.759 -44.875   9.629  1.00  0.00    -0.184 F 
HETATM   25  F   UNL     1     -40.256 -44.710  11.742  1.00  0.00    -0.184 F 
ENDBRANCH  22  23
ENDBRANCH  19  22
ENDBRANCH   1  16
TORSDOF 6
ENDMDL
MODEL 8
REMARK VINA RESULT:      -6.0      3.819      7.034
REMARK  6 active torsions:
REMARK  status: ('A' for Active; 'I' for Inactive)
REMARK    1  A    between atoms: N_11  and  C_12 
REMARK    2  A    between atoms: C_12  and  C_13 
REMARK    3  A    between atoms: C_13  and  O_14 
REMARK    4  A    between atoms: C_13  and  C_15 
REMARK    5  A    between atoms: C_18  and  O_19 
REMARK    6  A    between atoms: O_19  and  C_20 
ROOT
HETATM    1  C   UNL     1     -40.489 -51.446  12.436  1.00  0.00     0.169 C 
ENDROOT
BRANCH   1   2
HETATM    2  C   UNL     1     -41.197 -52.749  12.021  1.00  0.00     0.167 C 
BRANCH   2   3
HETATM    3  N   UNL     1     -41.813 -53.456  13.132  1.00  0.00    -0.332 N 
HETATM    4  C   UNL     1     -43.163 -53.695  13.297  1.00  0.00     0.080 A 
HETATM    5  C   UNL     1     -44.223 -53.169  12.397  1.00  0.00     0.089 C 
HETATM    6  N   UNL     1     -43.377 -54.458  14.350  1.00  0.00    -0.344 N 
HETATM    7  C   UNL     1     -42.143 -54.719  14.885  1.00  0.00     0.060 A 
ATOM      8  HN  UNL     1     -44.279 -54.787  14.696  1.00  0.00     0.167 HD
HETATM    9  C   UNL     1     -41.805 -55.492  16.005  1.00  0.00     0.032 A 
HETATM   10  C   UNL     1     -41.138 -54.099  14.149  1.00  0.00     0.062 A 
HETATM   11  C   UNL     1     -40.458 -55.615  16.361  1.00  0.00     0.002 A 
HETATM   12  C   UNL     1     -39.465 -54.978  15.616  1.00  0.00     0.002 A 
HETATM   13  C   UNL     1     -39.783 -54.207  14.491  1.00  0.00     0.032 A 
ENDBRANCH   2   3
ENDBRANCH   1   2
BRANCH   1  14
HETATM   14  O   UNL     1     -39.150 -51.414  11.942  1.00  0.00    -0.389 OA
HETATM   15  H   UNL     1     -38.899 -50.487  11.800  1.00  0.00     0.210 HD
ENDBRANCH   1  14
BRANCH   1  16
HETATM   16  C   UNL     1     -41.181 -50.175  11.967  1.00  0.00    -0.028 A 
HETATM   17  C   UNL     1     -42.432 -49.852  12.517  1.00  0.00     0.012 A 
HETATM   18  C   UNL     1     -43.120 -48.704  12.113  1.00  0.00     0.037 A 
HETATM   19  C   UNL     1     -42.563 -47.834  11.176  1.00  0.00     0.074 A 
HETATM   20  C   UNL     1     -41.316 -48.136  10.628  1.00  0.00     0.037 A 
HETATM   21  C   UNL     1     -40.627 -49.291  11.031  1.00  0.00     0.012 A 
BRANCH  19  22
HETATM   22  O   UNL     1     -43.335 -46.754  10.856  1.00  0.00    -0.290 OA
BRANCH  22  23
HETATM   23  C   UNL     1     -43.846 -46.730   9.534  1.00  0.00     0.505 C 
HETATM   24  F   UNL     1     -42.945 -46.121   8.723  1.00  0.00    -0.184 F 
HETATM   25  F   UNL     1     -43.940 -48.018   9.114  1.00  0.00    -0.184 F 
ENDBRANCH  22  23
ENDBRANCH  19  22
ENDBRANCH   1  16
TORSDOF 6
ENDMDL
MODEL 9
REMARK VINA RESULT:      -6.0      2.888      4.908
REMARK  6 active torsions:
REMARK  status: ('A' for Active; 'I' for Inactive)
REMARK    1  A    between atoms: N_11  and  C_12 
REMARK    2  A    between atoms: C_12  and  C_13 
REMARK    3  A    between atoms: C_13  and  O_14 
REMARK    4  A    between atoms: C_13  and  C_15 
REMARK    5  A    between atoms: C_18  and  O_19 
REMARK    6  A    between atoms: O_19  and  C_20 
ROOT
HETATM    1  C   UNL     1     -41.217 -52.487  12.242  1.00  0.00     0.169 C 
ENDROOT
BRANCH   1   2
HETATM    2  C   UNL     1     -40.493 -53.628  12.978  1.00  0.00     0.167 C 
BRANCH   2   3
HETATM    3  N   UNL     1     -40.368 -53.411  14.411  1.00  0.00    -0.332 N 
HETATM    4  C   UNL     1     -39.551 -52.483  15.026  1.00  0.00     0.080 A 
HETATM    5  C   UNL     1     -38.581 -51.616  14.309  1.00  0.00     0.089 C 
HETATM    6  N   UNL     1     -39.758 -52.468  16.327  1.00  0.00    -0.344 N 
HETATM    7  C   UNL     1     -40.728 -53.407  16.565  1.00  0.00     0.060 A 
ATOM      8  HN  UNL     1     -39.292 -51.877  17.015  1.00  0.00     0.167 HD
HETATM    9  C   UNL     1     -41.323 -53.781  17.780  1.00  0.00     0.032 A 
HETATM   10  C   UNL     1     -41.128 -54.023  15.385  1.00  0.00     0.062 A 
HETATM   11  C   UNL     1     -42.306 -54.777  17.773  1.00  0.00     0.002 A 
HETATM   12  C   UNL     1     -42.687 -55.390  16.579  1.00  0.00     0.002 A 
HETATM   13  C   UNL     1     -42.108 -55.025  15.358  1.00  0.00     0.032 A 
ENDBRANCH   2   3
ENDBRANCH   1   2
BRANCH   1  14
HETATM   14  O   UNL     1     -41.213 -52.705  10.832  1.00  0.00    -0.389 OA
HETATM   15  H   UNL     1     -41.188 -53.662  10.671  1.00  0.00     0.210 HD
ENDBRANCH   1  14
BRANCH   1  16
HETATM   16  C   UNL     1     -42.662 -52.277  12.669  1.00  0.00    -0.028 A 
HETATM   17  C   UNL     1     -43.006 -51.070  13.299  1.00  0.00     0.012 A 
HETATM   18  C   UNL     1     -44.316 -50.829  13.726  1.00  0.00     0.037 A 
HETATM   19  C   UNL     1     -45.319 -51.772  13.505  1.00  0.00     0.074 A 
HETATM   20  C   UNL     1     -44.996 -52.972  12.872  1.00  0.00     0.037 A 
HETATM   21  C   UNL     1     -43.679 -53.215  12.448  1.00  0.00     0.012 A 
BRANCH  19  22
HETATM   22  O   UNL     1     -46.554 -51.426  13.977  1.00  0.00    -0.290 OA
BRANCH  22  23
HETATM   23  C   UNL     1     -46.771 -51.646  15.360  1.00  0.00     0.505 C 
HETATM   24  F   UNL     1     -47.783 -50.848  15.781  1.00  0.00    -0.184 F 
HETATM   25  F   UNL     1     -47.200 -52.927  15.502  1.00  0.00    -0.184 F 
ENDBRANCH  22  23
ENDBRANCH  19  22
ENDBRANCH   1  16
TORSDOF 6
ENDMDL
