MODEL 1
REMARK VINA RESULT:      -7.0      0.000      0.000
REMARK  4 active torsions:
REMARK  status: ('A' for Active; 'I' for Inactive)
REMARK    1  A    between atoms: N_2  and  C_4 
REMARK    2  A    between atoms: N_9  and  C_10 
REMARK    3  A    between atoms: C_10  and  C_11 
REMARK       I    between atoms: C_11  and  N_13 
REMARK    4  A    between atoms: N_13  and  C_14 
ROOT
HETATM    1  C   UNL     1     -41.937 -50.135  12.383  1.00  0.00     0.236 C 
HETATM    2  O   UNL     1     -42.106 -49.435  13.381  1.00  0.00    -0.272 OA
HETATM    3  N   UNL     1     -42.602 -51.325  12.152  1.00  0.00    -0.350 N 
HETATM    4  H   UNL     1     -42.556 -51.699  11.207  1.00  0.00     0.163 HD
ENDROOT
BRANCH   1   5
HETATM    5  C   UNL     1     -41.017 -49.672  11.252  1.00  0.00     0.234 C 
BRANCH   5   6
HETATM    6  N   UNL     1     -41.183 -48.238  11.006  1.00  0.00    -0.314 N 
HETATM    7  C   UNL     1     -40.197 -47.377  11.480  1.00  0.00     0.247 A 
HETATM    8  C   UNL     1     -40.392 -45.928  11.189  1.00  0.00     0.077 A 
HETATM    9  O   UNL     1     -39.195 -47.744  12.092  1.00  0.00    -0.268 OA
HETATM   10  C   UNL     1     -41.415 -45.522  10.421  1.00  0.00     0.043 A 
HETATM   11  C   UNL     1     -42.352 -46.491   9.899  1.00  0.00     0.118 A 
HETATM   12  C   UNL     1     -42.239 -47.792  10.211  1.00  0.00     0.130 A 
BRANCH  11  13
HETATM   13  N   UNL     1     -43.426 -46.089   8.998  1.00  0.00    -0.114 N 
HETATM   14  O   UNL     1     -43.979 -46.967   8.322  1.00  0.00    -0.532 OA
HETATM   15  O   UNL     1     -43.725 -44.888   8.984  1.00  0.00    -0.532 OA
ENDBRANCH  11  13
ENDBRANCH   5   6
ENDBRANCH   1   5
BRANCH   3  16
HETATM   16  C   UNL     1     -43.590 -51.913  13.074  1.00  0.00     0.034 C 
HETATM   17  C   UNL     1     -44.754 -50.928  13.356  1.00  0.00     0.035 C 
HETATM   18  C   UNL     1     -45.795 -51.562  14.292  1.00  0.00    -0.012 C 
HETATM   19  C   UNL     1     -45.117 -51.950  15.617  1.00  0.00     0.009 C 
HETATM   20  C   UNL     1     -46.373 -52.819  13.625  1.00  0.00     0.009 C 
HETATM   21  C   UNL     1     -43.993 -52.966  15.358  1.00  0.00    -0.012 C 
HETATM   22  C   UNL     1     -44.591 -54.216  14.693  1.00  0.00     0.009 C 
HETATM   23  C   UNL     1     -42.944 -52.336  14.421  1.00  0.00     0.035 C 
HETATM   24  C   UNL     1     -45.249 -53.833  13.359  1.00  0.00    -0.012 C 
HETATM   25  C   UNL     1     -44.194 -53.195  12.434  1.00  0.00     0.035 C 
ENDBRANCH   3  16
TORSDOF 4
ENDMDL
MODEL 2
REMARK VINA RESULT:      -6.7      1.956      2.560
REMARK  4 active torsions:
REMARK  status: ('A' for Active; 'I' for Inactive)
REMARK    1  A    between atoms: N_2  and  C_4 
REMARK    2  A    between atoms: N_9  and  C_10 
REMARK    3  A    between atoms: C_10  and  C_11 
REMARK       I    between atoms: C_11  and  N_13 
REMARK    4  A    between atoms: N_13  and  C_14 
ROOT
HETATM    1  C   UNL     1     -41.885 -52.260  12.954  1.00  0.00     0.236 C 
HETATM    2  O   UNL     1     -41.455 -52.389  14.099  1.00  0.00    -0.272 OA
HETATM    3  N   UNL     1     -43.229 -52.231  12.631  1.00  0.00    -0.350 N 
HETATM    4  H   UNL     1     -43.470 -51.897  11.701  1.00  0.00     0.163 HD
ENDROOT
BRANCH   1   5
HETATM    5  C   UNL     1     -40.929 -52.026  11.783  1.00  0.00     0.234 C 
BRANCH   5   6
HETATM    6  N   UNL     1     -40.345 -50.684  11.855  1.00  0.00    -0.314 N 
HETATM    7  C   UNL     1     -39.039 -50.566  12.322  1.00  0.00     0.247 A 
HETATM    8  C   UNL     1     -38.476 -49.186  12.358  1.00  0.00     0.077 A 
HETATM    9  O   UNL     1     -38.344 -51.516  12.678  1.00  0.00    -0.268 OA
HETATM   10  C   UNL     1     -39.175 -48.154  11.862  1.00  0.00     0.043 A 
HETATM   11  C   UNL     1     -40.496 -48.374  11.319  1.00  0.00     0.118 A 
HETATM   12  C   UNL     1     -41.054 -49.595  11.346  1.00  0.00     0.130 A 
BRANCH  11  13
HETATM   13  N   UNL     1     -41.248 -47.287  10.703  1.00  0.00    -0.114 N 
HETATM   14  O   UNL     1     -42.412 -47.513  10.344  1.00  0.00    -0.532 OA
HETATM   15  O   UNL     1     -40.669 -46.198  10.593  1.00  0.00    -0.532 OA
ENDBRANCH  11  13
ENDBRANCH   5   6
ENDBRANCH   1   5
BRANCH   3  16
HETATM   16  C   UNL     1     -44.320 -52.359  13.616  1.00  0.00     0.034 C 
HETATM   17  C   UNL     1     -44.389 -51.118  14.543  1.00  0.00     0.035 C 
HETATM   18  C   UNL     1     -45.549 -51.246  15.545  1.00  0.00    -0.012 C 
HETATM   19  C   UNL     1     -45.348 -52.513  16.393  1.00  0.00     0.009 C 
HETATM   20  C   UNL     1     -46.872 -51.351  14.772  1.00  0.00     0.009 C 
HETATM   21  C   UNL     1     -45.327 -53.757  15.490  1.00  0.00    -0.012 C 
HETATM   22  C   UNL     1     -46.660 -53.845  14.729  1.00  0.00     0.009 C 
HETATM   23  C   UNL     1     -44.166 -53.636  14.484  1.00  0.00     0.035 C 
HETATM   24  C   UNL     1     -46.850 -52.591  13.863  1.00  0.00    -0.012 C 
HETATM   25  C   UNL     1     -45.679 -52.474  12.869  1.00  0.00     0.035 C 
ENDBRANCH   3  16
TORSDOF 4
ENDMDL
MODEL 3
REMARK VINA RESULT:      -6.7      2.964      7.057
REMARK  4 active torsions:
REMARK  status: ('A' for Active; 'I' for Inactive)
REMARK    1  A    between atoms: N_2  and  C_4 
REMARK    2  A    between atoms: N_9  and  C_10 
REMARK    3  A    between atoms: C_10  and  C_11 
REMARK       I    between atoms: C_11  and  N_13 
REMARK    4  A    between atoms: N_13  and  C_14 
ROOT
HETATM    1  C   UNL     1     -41.033 -51.130  12.325  1.00  0.00     0.236 C 
HETATM    2  O   UNL     1     -40.476 -50.837  13.382  1.00  0.00    -0.272 OA
HETATM    3  N   UNL     1     -41.502 -50.201  11.415  1.00  0.00    -0.350 N 
HETATM    4  H   UNL     1     -41.737 -50.547  10.487  1.00  0.00     0.163 HD
ENDROOT
BRANCH   1   5
HETATM    5  C   UNL     1     -41.168 -52.592  11.894  1.00  0.00     0.234 C 
BRANCH   5   6
HETATM    6  N   UNL     1     -42.175 -53.279  12.706  1.00  0.00    -0.314 N 
HETATM    7  C   UNL     1     -41.730 -54.105  13.735  1.00  0.00     0.247 A 
HETATM    8  C   UNL     1     -42.787 -54.767  14.550  1.00  0.00     0.077 A 
HETATM    9  O   UNL     1     -40.545 -54.293  14.005  1.00  0.00    -0.268 OA
HETATM   10  C   UNL     1     -44.081 -54.480  14.347  1.00  0.00     0.043 A 
HETATM   11  C   UNL     1     -44.457 -53.547  13.309  1.00  0.00     0.118 A 
HETATM   12  C   UNL     1     -43.528 -52.996  12.512  1.00  0.00     0.130 A 
BRANCH  11  13
HETATM   13  N   UNL     1     -45.849 -53.155  13.117  1.00  0.00    -0.114 N 
HETATM   14  O   UNL     1     -46.193 -52.758  11.995  1.00  0.00    -0.532 OA
HETATM   15  O   UNL     1     -46.601 -53.264  14.094  1.00  0.00    -0.532 OA
ENDBRANCH  11  13
ENDBRANCH   5   6
ENDBRANCH   1   5
BRANCH   3  16
HETATM   16  C   UNL     1     -41.402 -48.741  11.596  1.00  0.00     0.034 C 
HETATM   17  C   UNL     1     -39.940 -48.307  11.876  1.00  0.00     0.035 C 
HETATM   18  C   UNL     1     -39.841 -46.781  12.031  1.00  0.00    -0.012 C 
HETATM   19  C   UNL     1     -40.743 -46.330  13.191  1.00  0.00     0.009 C 
HETATM   20  C   UNL     1     -40.306 -46.112  10.729  1.00  0.00     0.009 C 
HETATM   21  C   UNL     1     -42.205 -46.709  12.903  1.00  0.00    -0.012 C 
HETATM   22  C   UNL     1     -42.652 -46.028  11.600  1.00  0.00     0.009 C 
HETATM   23  C   UNL     1     -42.312 -48.239  12.748  1.00  0.00     0.035 C 
HETATM   24  C   UNL     1     -41.765 -46.496  10.436  1.00  0.00    -0.012 C 
HETATM   25  C   UNL     1     -41.872 -48.027  10.297  1.00  0.00     0.035 C 
ENDBRANCH   3  16
TORSDOF 4
ENDMDL
MODEL 4
REMARK VINA RESULT:      -6.5      4.072      4.813
REMARK  4 active torsions:
REMARK  status: ('A' for Active; 'I' for Inactive)
REMARK    1  A    between atoms: N_2  and  C_4 
REMARK    2  A    between atoms: N_9  and  C_10 
REMARK    3  A    between atoms: C_10  and  C_11 
REMARK       I    between atoms: C_11  and  N_13 
REMARK    4  A    between atoms: N_13  and  C_14 
ROOT
HETATM    1  C   UNL     1     -41.326 -52.448  15.125  1.00  0.00     0.236 C 
HETATM    2  O   UNL     1     -41.279 -53.616  14.741  1.00  0.00    -0.272 OA
HETATM    3  N   UNL     1     -42.476 -51.680  15.124  1.00  0.00    -0.350 N 
HETATM    4  H   UNL     1     -42.451 -50.819  15.665  1.00  0.00     0.163 HD
ENDROOT
BRANCH   1   5
HETATM    5  C   UNL     1     -40.094 -51.777  15.734  1.00  0.00     0.234 C 
BRANCH   5   6
HETATM    6  N   UNL     1     -39.541 -50.781  14.813  1.00  0.00    -0.314 N 
HETATM    7  C   UNL     1     -39.706 -49.436  15.134  1.00  0.00     0.247 A 
HETATM    8  C   UNL     1     -39.111 -48.455  14.183  1.00  0.00     0.077 A 
HETATM    9  O   UNL     1     -40.285 -49.032  16.141  1.00  0.00    -0.268 OA
HETATM   10  C   UNL     1     -38.374 -48.878  13.145  1.00  0.00     0.043 A 
HETATM   11  C   UNL     1     -38.182 -50.293  12.927  1.00  0.00     0.118 A 
HETATM   12  C   UNL     1     -38.772 -51.197  13.726  1.00  0.00     0.130 A 
BRANCH  11  13
HETATM   13  N   UNL     1     -37.323 -50.781  11.854  1.00  0.00    -0.114 N 
HETATM   14  O   UNL     1     -37.152 -50.053  10.867  1.00  0.00    -0.532 OA
HETATM   15  O   UNL     1     -36.805 -51.894  12.014  1.00  0.00    -0.532 OA
ENDBRANCH  11  13
ENDBRANCH   5   6
ENDBRANCH   1   5
BRANCH   3  16
HETATM   16  C   UNL     1     -43.790 -52.157  14.656  1.00  0.00     0.034 C 
HETATM   17  C   UNL     1     -44.345 -53.274  15.577  1.00  0.00     0.035 C 
HETATM   18  C   UNL     1     -45.729 -53.742  15.098  1.00  0.00    -0.012 C 
HETATM   19  C   UNL     1     -45.616 -54.271  13.659  1.00  0.00     0.009 C 
HETATM   20  C   UNL     1     -46.702 -52.554  15.134  1.00  0.00     0.009 C 
HETATM   21  C   UNL     1     -45.114 -53.157  12.725  1.00  0.00    -0.012 C 
HETATM   22  C   UNL     1     -46.102 -51.980  12.772  1.00  0.00     0.009 C 
HETATM   23  C   UNL     1     -43.725 -52.684  13.197  1.00  0.00     0.035 C 
HETATM   24  C   UNL     1     -46.198 -51.438  14.205  1.00  0.00    -0.012 C 
HETATM   25  C   UNL     1     -44.803 -50.977  14.672  1.00  0.00     0.035 C 
ENDBRANCH   3  16
TORSDOF 4
ENDMDL
MODEL 5
REMARK VINA RESULT:      -6.3      2.213      3.436
REMARK  4 active torsions:
REMARK  status: ('A' for Active; 'I' for Inactive)
REMARK    1  A    between atoms: N_2  and  C_4 
REMARK    2  A    between atoms: N_9  and  C_10 
REMARK    3  A    between atoms: C_10  and  C_11 
REMARK       I    between atoms: C_11  and  N_13 
REMARK    4  A    between atoms: N_13  and  C_14 
ROOT
HETATM    1  C   UNL     1     -42.340 -52.650  12.718  1.00  0.00     0.236 C 
HETATM    2  O   UNL     1     -43.207 -52.950  11.898  1.00  0.00    -0.272 OA
HETATM    3  N   UNL     1     -42.595 -52.377  14.049  1.00  0.00    -0.350 N 
HETATM    4  H   UNL     1     -41.794 -52.365  14.676  1.00  0.00     0.163 HD
ENDROOT
BRANCH   1   5
HETATM    5  C   UNL     1     -40.861 -52.650  12.324  1.00  0.00     0.234 C 
BRANCH   5   6
HETATM    6  N   UNL     1     -40.327 -51.286  12.326  1.00  0.00    -0.314 N 
HETATM    7  C   UNL     1     -39.029 -51.096  12.794  1.00  0.00     0.247 A 
HETATM    8  C   UNL     1     -38.516 -49.697  12.759  1.00  0.00     0.077 A 
HETATM    9  O   UNL     1     -38.304 -52.000  13.205  1.00  0.00    -0.268 OA
HETATM   10  C   UNL     1     -39.248 -48.719  12.204  1.00  0.00     0.043 A 
HETATM   11  C   UNL     1     -40.556 -49.016  11.666  1.00  0.00     0.118 A 
HETATM   12  C   UNL     1     -41.071 -50.253  11.756  1.00  0.00     0.130 A 
BRANCH  11  13
HETATM   13  N   UNL     1     -41.341 -47.992  10.987  1.00  0.00    -0.114 N 
HETATM   14  O   UNL     1     -40.771 -46.943  10.656  1.00  0.00    -0.532 OA
HETATM   15  O   UNL     1     -42.533 -48.251  10.773  1.00  0.00    -0.532 OA
ENDBRANCH  11  13
ENDBRANCH   5   6
ENDBRANCH   1   5
BRANCH   3  16
HETATM   16  C   UNL     1     -43.939 -52.400  14.655  1.00  0.00     0.034 C 
HETATM   17  C   UNL     1     -44.556 -53.822  14.605  1.00  0.00     0.035 C 
HETATM   18  C   UNL     1     -45.943 -53.842  15.268  1.00  0.00    -0.012 C 
HETATM   19  C   UNL     1     -46.868 -52.854  14.539  1.00  0.00     0.009 C 
HETATM   20  C   UNL     1     -45.803 -53.424  16.739  1.00  0.00     0.009 C 
HETATM   21  C   UNL     1     -46.293 -51.430  14.624  1.00  0.00    -0.012 C 
HETATM   22  C   UNL     1     -46.165 -51.029  16.102  1.00  0.00     0.009 C 
HETATM   23  C   UNL     1     -44.903 -51.402  13.959  1.00  0.00     0.035 C 
HETATM   24  C   UNL     1     -45.223 -52.003  16.826  1.00  0.00    -0.012 C 
HETATM   25  C   UNL     1     -43.839 -51.975  16.148  1.00  0.00     0.035 C 
ENDBRANCH   3  16
TORSDOF 4
ENDMDL
MODEL 6
REMARK VINA RESULT:      -6.3      2.403      4.289
REMARK  4 active torsions:
REMARK  status: ('A' for Active; 'I' for Inactive)
REMARK    1  A    between atoms: N_2  and  C_4 
REMARK    2  A    between atoms: N_9  and  C_10 
REMARK    3  A    between atoms: C_10  and  C_11 
REMARK       I    between atoms: C_11  and  N_13 
REMARK    4  A    between atoms: N_13  and  C_14 
ROOT
HETATM    1  C   UNL     1     -42.884 -49.815  12.880  1.00  0.00     0.236 C 
HETATM    2  O   UNL     1     -43.284 -49.206  13.872  1.00  0.00    -0.272 OA
HETATM    3  N   UNL     1     -43.245 -51.114  12.574  1.00  0.00    -0.350 N 
HETATM    4  H   UNL     1     -43.042 -51.435  11.630  1.00  0.00     0.163 HD
ENDROOT
BRANCH   1   5
HETATM    5  C   UNL     1     -42.005 -49.119  11.839  1.00  0.00     0.234 C 
BRANCH   5   6
HETATM    6  N   UNL     1     -40.612 -49.070  12.290  1.00  0.00    -0.314 N 
HETATM    7  C   UNL     1     -40.136 -47.866  12.803  1.00  0.00     0.247 A 
HETATM    8  C   UNL     1     -38.721 -47.864  13.270  1.00  0.00     0.077 A 
HETATM    9  O   UNL     1     -40.810 -46.843  12.901  1.00  0.00    -0.268 OA
HETATM   10  C   UNL     1     -38.008 -49.001  13.282  1.00  0.00     0.043 A 
HETATM   11  C   UNL     1     -38.604 -50.229  12.807  1.00  0.00     0.118 A 
HETATM   12  C   UNL     1     -39.852 -50.239  12.310  1.00  0.00     0.130 A 
BRANCH  11  13
HETATM   13  N   UNL     1     -37.883 -51.494  12.880  1.00  0.00    -0.114 N 
HETATM   14  O   UNL     1     -36.799 -51.583  12.287  1.00  0.00    -0.532 OA
HETATM   15  O   UNL     1     -38.401 -52.396  13.551  1.00  0.00    -0.532 OA
ENDBRANCH  11  13
ENDBRANCH   5   6
ENDBRANCH   1   5
BRANCH   3  16
HETATM   16  C   UNL     1     -44.146 -51.939  13.399  1.00  0.00     0.034 C 
HETATM   17  C   UNL     1     -44.477 -53.283  12.701  1.00  0.00     0.035 C 
HETATM   18  C   UNL     1     -45.390 -54.150  13.583  1.00  0.00    -0.012 C 
HETATM   19  C   UNL     1     -46.693 -53.385  13.869  1.00  0.00     0.009 C 
HETATM   20  C   UNL     1     -44.672 -54.453  14.906  1.00  0.00     0.009 C 
HETATM   21  C   UNL     1     -46.383 -52.072  14.607  1.00  0.00    -0.012 C 
HETATM   22  C   UNL     1     -45.668 -52.397  15.929  1.00  0.00     0.009 C 
HETATM   23  C   UNL     1     -45.469 -51.197  13.728  1.00  0.00     0.035 C 
HETATM   24  C   UNL     1     -44.356 -53.141  15.642  1.00  0.00    -0.012 C 
HETATM   25  C   UNL     1     -43.454 -52.262  14.754  1.00  0.00     0.035 C 
ENDBRANCH   3  16
TORSDOF 4
ENDMDL
MODEL 7
REMARK VINA RESULT:      -6.2      1.578      2.521
REMARK  4 active torsions:
REMARK  status: ('A' for Active; 'I' for Inactive)
REMARK    1  A    between atoms: N_2  and  C_4 
REMARK    2  A    between atoms: N_9  and  C_10 
REMARK    3  A    between atoms: C_10  and  C_11 
REMARK       I    between atoms: C_11  and  N_13 
REMARK    4  A    between atoms: N_13  and  C_14 
ROOT
HETATM    1  C   UNL     1     -41.991 -50.732  12.390  1.00  0.00     0.236 C 
HETATM    2  O   UNL     1     -42.938 -49.976  12.601  1.00  0.00    -0.272 OA
HETATM    3  N   UNL     1     -41.972 -52.067  12.751  1.00  0.00    -0.350 N 
HETATM    4  H   UNL     1     -41.246 -52.644  12.333  1.00  0.00     0.163 HD
ENDROOT
BRANCH   1   5
HETATM    5  C   UNL     1     -40.768 -50.251  11.607  1.00  0.00     0.234 C 
BRANCH   5   6
HETATM    6  N   UNL     1     -40.475 -48.850  11.918  1.00  0.00    -0.314 N 
HETATM    7  C   UNL     1     -39.674 -48.582  13.025  1.00  0.00     0.247 A 
HETATM    8  C   UNL     1     -39.382 -47.145  13.294  1.00  0.00     0.077 A 
HETATM    9  O   UNL     1     -39.198 -49.447  13.758  1.00  0.00    -0.268 OA
HETATM   10  C   UNL     1     -39.793 -46.197  12.438  1.00  0.00     0.043 A 
HETATM   11  C   UNL     1     -40.553 -46.567  11.265  1.00  0.00     0.118 A 
HETATM   12  C   UNL     1     -40.893 -47.847  11.043  1.00  0.00     0.130 A 
BRANCH  11  13
HETATM   13  N   UNL     1     -40.945 -45.569  10.277  1.00  0.00    -0.114 N 
HETATM   14  O   UNL     1     -42.120 -45.566   9.886  1.00  0.00    -0.532 OA
HETATM   15  O   UNL     1     -40.070 -44.775   9.906  1.00  0.00    -0.532 OA
ENDBRANCH  11  13
ENDBRANCH   5   6
ENDBRANCH   1   5
BRANCH   3  16
HETATM   16  C   UNL     1     -43.079 -52.753  13.442  1.00  0.00     0.034 C 
HETATM   17  C   UNL     1     -42.670 -54.184  13.878  1.00  0.00     0.035 C 
HETATM   18  C   UNL     1     -43.819 -54.879  14.626  1.00  0.00    -0.012 C 
HETATM   19  C   UNL     1     -45.050 -54.953  13.708  1.00  0.00     0.009 C 
HETATM   20  C   UNL     1     -44.165 -54.068  15.883  1.00  0.00     0.009 C 
HETATM   21  C   UNL     1     -45.497 -53.537  13.308  1.00  0.00    -0.012 C 
HETATM   22  C   UNL     1     -45.842 -52.743  14.579  1.00  0.00     0.009 C 
HETATM   23  C   UNL     1     -44.350 -52.835  12.556  1.00  0.00     0.035 C 
HETATM   24  C   UNL     1     -44.605 -52.650  15.486  1.00  0.00    -0.012 C 
HETATM   25  C   UNL     1     -43.462 -51.955  14.721  1.00  0.00     0.035 C 
ENDBRANCH   3  16
TORSDOF 4
ENDMDL
MODEL 8
REMARK VINA RESULT:      -6.1      4.463      7.703
REMARK  4 active torsions:
REMARK  status: ('A' for Active; 'I' for Inactive)
REMARK    1  A    between atoms: N_2  and  C_4 
REMARK    2  A    between atoms: N_9  and  C_10 
REMARK    3  A    between atoms: C_10  and  C_11 
REMARK       I    between atoms: C_11  and  N_13 
REMARK    4  A    between atoms: N_13  and  C_14 
ROOT
HETATM    1  C   UNL     1     -39.782 -53.501  14.430  1.00  0.00     0.236 C 
HETATM    2  O   UNL     1     -39.123 -53.874  13.460  1.00  0.00    -0.272 OA
HETATM    3  N   UNL     1     -40.092 -52.179  14.692  1.00  0.00    -0.350 N 
HETATM    4  H   UNL     1     -40.820 -52.007  15.381  1.00  0.00     0.163 HD
ENDROOT
BRANCH   1   5
HETATM    5  C   UNL     1     -40.400 -54.518  15.391  1.00  0.00     0.234 C 
BRANCH   5   6
HETATM    6  N   UNL     1     -41.834 -54.267  15.556  1.00  0.00    -0.314 N 
HETATM    7  C   UNL     1     -42.239 -53.488  16.637  1.00  0.00     0.247 A 
HETATM    8  C   UNL     1     -43.703 -53.239  16.755  1.00  0.00     0.077 A 
HETATM    9  O   UNL     1     -41.470 -52.997  17.460  1.00  0.00    -0.268 OA
HETATM   10  C   UNL     1     -44.544 -53.666  15.801  1.00  0.00     0.043 A 
HETATM   11  C   UNL     1     -44.032 -54.400  14.666  1.00  0.00     0.118 A 
HETATM   12  C   UNL     1     -42.727 -54.702  14.576  1.00  0.00     0.130 A 
BRANCH  11  13
HETATM   13  N   UNL     1     -44.910 -54.808  13.575  1.00  0.00    -0.114 N 
HETATM   14  O   UNL     1     -44.781 -54.243  12.481  1.00  0.00    -0.532 OA
HETATM   15  O   UNL     1     -45.720 -55.713  13.817  1.00  0.00    -0.532 OA
ENDBRANCH  11  13
ENDBRANCH   5   6
ENDBRANCH   1   5
BRANCH   3  16
HETATM   16  C   UNL     1     -39.665 -51.046  13.849  1.00  0.00     0.034 C 
HETATM   17  C   UNL     1     -40.167 -49.696  14.424  1.00  0.00     0.035 C 
HETATM   18  C   UNL     1     -39.689 -48.520  13.557  1.00  0.00    -0.012 C 
HETATM   19  C   UNL     1     -40.219 -48.698  12.124  1.00  0.00     0.009 C 
HETATM   20  C   UNL     1     -38.154 -48.499  13.537  1.00  0.00     0.009 C 
HETATM   21  C   UNL     1     -39.687 -50.010  11.523  1.00  0.00    -0.012 C 
HETATM   22  C   UNL     1     -38.151 -49.969  11.510  1.00  0.00     0.009 C 
HETATM   23  C   UNL     1     -40.164 -51.195  12.387  1.00  0.00     0.035 C 
HETATM   24  C   UNL     1     -37.621 -49.813  12.943  1.00  0.00    -0.012 C 
HETATM   25  C   UNL     1     -38.111 -50.997  13.800  1.00  0.00     0.035 C 
ENDBRANCH   3  16
TORSDOF 4
ENDMDL
MODEL 9
REMARK VINA RESULT:      -6.1      1.548      2.972
REMARK  4 active torsions:
REMARK  status: ('A' for Active; 'I' for Inactive)
REMARK    1  A    between atoms: N_2  and  C_4 
REMARK    2  A    between atoms: N_9  and  C_10 
REMARK    3  A    between atoms: C_10  and  C_11 
REMARK       I    between atoms: C_11  and  N_13 
REMARK    4  A    between atoms: N_13  and  C_14 
ROOT
HETATM    1  C   UNL     1     -41.396 -50.354  12.565  1.00  0.00     0.236 C 
HETATM    2  O   UNL     1     -41.296 -49.956  13.724  1.00  0.00    -0.272 OA
HETATM    3  N   UNL     1     -42.352 -51.257  12.137  1.00  0.00    -0.350 N 
HETATM    4  H   UNL     1     -42.486 -51.341  11.132  1.00  0.00     0.163 HD
ENDROOT
BRANCH   1   5
HETATM    5  C   UNL     1     -40.496 -49.788  11.465  1.00  0.00     0.234 C 
BRANCH   5   6
HETATM    6  N   UNL     1     -40.479 -48.324  11.515  1.00  0.00    -0.314 N 
HETATM    7  C   UNL     1     -41.377 -47.634  10.706  1.00  0.00     0.247 A 
HETATM    8  C   UNL     1     -41.342 -46.147  10.803  1.00  0.00     0.077 A 
HETATM    9  O   UNL     1     -42.184 -48.175   9.952  1.00  0.00    -0.268 OA
HETATM   10  C   UNL     1     -40.553 -45.544  11.706  1.00  0.00     0.043 A 
HETATM   11  C   UNL     1     -39.707 -46.339  12.567  1.00  0.00     0.118 A 
HETATM   12  C   UNL     1     -39.666 -47.675  12.445  1.00  0.00     0.130 A 
BRANCH  11  13
HETATM   13  N   UNL     1     -38.899 -45.718  13.609  1.00  0.00    -0.114 N 
HETATM   14  O   UNL     1     -38.893 -44.481  13.684  1.00  0.00    -0.532 OA
HETATM   15  O   UNL     1     -38.280 -46.478  14.366  1.00  0.00    -0.532 OA
ENDBRANCH  11  13
ENDBRANCH   5   6
ENDBRANCH   1   5
BRANCH   3  16
HETATM   16  C   UNL     1     -43.367 -51.866  13.016  1.00  0.00     0.034 C 
HETATM   17  C   UNL     1     -44.498 -50.859  13.351  1.00  0.00     0.035 C 
HETATM   18  C   UNL     1     -45.568 -51.512  14.241  1.00  0.00    -0.012 C 
HETATM   19  C   UNL     1     -44.913 -52.004  15.543  1.00  0.00     0.009 C 
HETATM   20  C   UNL     1     -46.184 -52.705  13.496  1.00  0.00     0.009 C 
HETATM   21  C   UNL     1     -43.823 -53.041  15.228  1.00  0.00    -0.012 C 
HETATM   22  C   UNL     1     -44.459 -54.227  14.485  1.00  0.00     0.009 C 
HETATM   23  C   UNL     1     -42.746 -52.392  14.337  1.00  0.00     0.035 C 
HETATM   24  C   UNL     1     -45.094 -53.740  13.174  1.00  0.00    -0.012 C 
HETATM   25  C   UNL     1     -44.011 -53.084  12.295  1.00  0.00     0.035 C 
ENDBRANCH   3  16
TORSDOF 4
ENDMDL
