MODEL 1
REMARK VINA RESULT:      -5.7      0.000      0.000
REMARK  5 active torsions:
REMARK  status: ('A' for Active; 'I' for Inactive)
REMARK    1  A    between atoms: C_2  and  N_4 
REMARK    2  A    between atoms: C_8  and  N_10 
REMARK    3  A    between atoms: N_10  and  S_11 
REMARK    4  A    between atoms: S_11  and  C_14 
REMARK    5  A    between atoms: C_14  and  C_15 
ROOT
HETATM    1  N   UNL     1     -39.363 -51.905  12.436  1.00  0.00    -0.213 NA
HETATM    2  H   UNL     1     -39.791 -51.566  11.566  1.00  0.00     0.140 HD
ENDROOT
BRANCH   1   3
HETATM    3  C   UNL     1     -40.363 -52.037  13.529  1.00  0.00     0.105 C 
HETATM    4  C   UNL     1     -40.529 -53.492  13.993  1.00  0.00     0.030 C 
HETATM    5  C   UNL     1     -41.740 -54.037  13.232  1.00  0.00     0.279 C 
HETATM    6  C   UNL     1     -39.335 -54.432  13.911  1.00  0.00     0.013 C 
HETATM    7  N   UNL     1     -42.347 -52.911  12.514  1.00  0.00     0.094 N 
HETATM    8  C   UNL     1     -41.795 -51.683  13.110  1.00  0.00     0.293 C 
BRANCH   7   9
HETATM    9  C   UNL     1     -43.826 -52.944  12.532  1.00  0.00     0.215 C 
HETATM   10  C   UNL     1     -44.374 -54.235  13.156  1.00  0.00     0.042 C 
HETATM   11  C   UNL     1     -44.406 -51.753  13.312  1.00  0.00     0.042 C 
ENDBRANCH   7   9
ENDBRANCH   1   3
BRANCH   1  12
HETATM   12  S   UNL     1     -37.934 -51.030  12.709  1.00  0.00     0.215 S 
HETATM   13  O   UNL     1     -38.032 -50.567  14.077  1.00  0.00    -0.211 OA
HETATM   14  O   UNL     1     -36.829 -51.873  12.311  1.00  0.00    -0.211 OA
BRANCH  12  15
HETATM   15  C   UNL     1     -38.044 -49.608  11.612  1.00  0.00     0.216 C 
BRANCH  15  16
HETATM   16  C   UNL     1     -39.446 -49.125  11.494  1.00  0.00     0.049 A 
HETATM   17  C   UNL     1     -40.130 -48.156  12.266  1.00  0.00     0.054 A 
HETATM   18  C   UNL     1     -41.378 -48.094  11.706  1.00  0.00     0.169 A 
HETATM   19  O   UNL     1     -41.462 -48.982  10.687  1.00  0.00    -0.250 OA
HETATM   20  N   UNL     1     -40.255 -49.648  10.559  1.00  0.00    -0.265 N 
ATOM     21  HN  UNL     1     -40.027 -50.384   9.891  1.00  0.00     0.194 HD
ENDBRANCH  15  16
ENDBRANCH  12  15
ENDBRANCH   1  12
TORSDOF 5
ENDMDL
MODEL 2
REMARK VINA RESULT:      -5.5      1.918      2.524
REMARK  5 active torsions:
REMARK  status: ('A' for Active; 'I' for Inactive)
REMARK    1  A    between atoms: C_2  and  N_4 
REMARK    2  A    between atoms: C_8  and  N_10 
REMARK    3  A    between atoms: N_10  and  S_11 
REMARK    4  A    between atoms: S_11  and  C_14 
REMARK    5  A    between atoms: C_14  and  C_15 
ROOT
HETATM    1  N   UNL     1     -41.834 -51.542  12.316  1.00  0.00    -0.213 NA
HETATM    2  H   UNL     1     -42.370 -51.127  11.545  1.00  0.00     0.140 HD
ENDROOT
BRANCH   1   3
HETATM    3  C   UNL     1     -42.686 -51.799  13.507  1.00  0.00     0.105 C 
HETATM    4  C   UNL     1     -42.906 -53.300  13.753  1.00  0.00     0.030 C 
HETATM    5  C   UNL     1     -44.247 -53.638  13.098  1.00  0.00     0.279 C 
HETATM    6  C   UNL     1     -41.812 -54.279  13.351  1.00  0.00     0.013 C 
HETATM    7  N   UNL     1     -44.852 -52.374  12.664  1.00  0.00     0.094 N 
HETATM    8  C   UNL     1     -44.128 -51.298  13.362  1.00  0.00     0.293 C 
BRANCH   7   9
HETATM    9  C   UNL     1     -46.312 -52.325  12.890  1.00  0.00     0.215 C 
HETATM   10  C   UNL     1     -46.687 -51.476  14.113  1.00  0.00     0.042 C 
HETATM   11  C   UNL     1     -47.052 -51.757  11.668  1.00  0.00     0.042 C 
ENDBRANCH   7   9
ENDBRANCH   1   3
BRANCH   1  12
HETATM   12  S   UNL     1     -40.387 -50.672  12.494  1.00  0.00     0.215 S 
HETATM   13  O   UNL     1     -40.614 -49.789  13.618  1.00  0.00    -0.211 OA
HETATM   14  O   UNL     1     -39.308 -51.635  12.539  1.00  0.00    -0.211 OA
BRANCH  12  15
HETATM   15  C   UNL     1     -40.256 -49.678  11.000  1.00  0.00     0.216 C 
BRANCH  15  16
HETATM   16  C   UNL     1     -41.283 -48.602  10.978  1.00  0.00     0.049 A 
HETATM   17  C   UNL     1     -41.120 -47.207  10.800  1.00  0.00     0.054 A 
HETATM   18  C   UNL     1     -42.393 -46.708  10.843  1.00  0.00     0.169 A 
HETATM   19  O   UNL     1     -43.269 -47.717  11.064  1.00  0.00    -0.250 OA
HETATM   20  N   UNL     1     -42.576 -48.910  11.167  1.00  0.00    -0.265 N 
ATOM     21  HN  UNL     1     -42.967 -49.834  11.349  1.00  0.00     0.194 HD
ENDBRANCH  15  16
ENDBRANCH  12  15
ENDBRANCH   1  12
TORSDOF 5
ENDMDL
MODEL 3
REMARK VINA RESULT:      -5.4      3.015      3.734
REMARK  5 active torsions:
REMARK  status: ('A' for Active; 'I' for Inactive)
REMARK    1  A    between atoms: C_2  and  N_4 
REMARK    2  A    between atoms: C_8  and  N_10 
REMARK    3  A    between atoms: N_10  and  S_11 
REMARK    4  A    between atoms: S_11  and  C_14 
REMARK    5  A    between atoms: C_14  and  C_15 
ROOT
HETATM    1  N   UNL     1     -42.674 -49.862  11.917  1.00  0.00    -0.213 NA
HETATM    2  H   UNL     1     -43.570 -49.609  11.486  1.00  0.00     0.140 HD
ENDROOT
BRANCH   1   3
HETATM    3  C   UNL     1     -42.861 -50.685  13.141  1.00  0.00     0.105 C 
HETATM    4  C   UNL     1     -42.482 -52.158  12.916  1.00  0.00     0.030 C 
HETATM    5  C   UNL     1     -43.793 -52.880  12.596  1.00  0.00     0.279 C 
HETATM    6  C   UNL     1     -41.388 -52.491  11.911  1.00  0.00     0.013 C 
HETATM    7  N   UNL     1     -44.883 -51.922  12.808  1.00  0.00     0.094 N 
HETATM    8  C   UNL     1     -44.321 -50.809  13.592  1.00  0.00     0.293 C 
BRANCH   7   9
HETATM    9  C   UNL     1     -46.071 -52.530  13.444  1.00  0.00     0.215 C 
HETATM   10  C   UNL     1     -45.738 -53.837  14.178  1.00  0.00     0.042 C 
HETATM   11  C   UNL     1     -46.724 -51.570  14.452  1.00  0.00     0.042 C 
ENDBRANCH   7   9
ENDBRANCH   1   3
BRANCH   1  12
HETATM   12  S   UNL     1     -41.699 -48.473  11.983  1.00  0.00     0.215 S 
HETATM   13  O   UNL     1     -41.419 -48.276  13.389  1.00  0.00    -0.211 OA
HETATM   14  O   UNL     1     -40.610 -48.665  11.050  1.00  0.00    -0.211 OA
BRANCH  12  15
HETATM   15  C   UNL     1     -42.760 -47.134  11.416  1.00  0.00     0.216 C 
BRANCH  15  16
HETATM   16  C   UNL     1     -43.348 -47.440  10.085  1.00  0.00     0.049 A 
HETATM   17  C   UNL     1     -44.693 -47.344   9.654  1.00  0.00     0.054 A 
HETATM   18  C   UNL     1     -44.656 -47.724   8.339  1.00  0.00     0.169 A 
HETATM   19  O   UNL     1     -43.389 -48.060   8.000  1.00  0.00    -0.250 OA
HETATM   20  N   UNL     1     -42.563 -47.900   9.098  1.00  0.00    -0.265 N 
ATOM     21  HN  UNL     1     -41.562 -48.092   9.148  1.00  0.00     0.194 HD
ENDBRANCH  15  16
ENDBRANCH  12  15
ENDBRANCH   1  12
TORSDOF 5
ENDMDL
MODEL 4
REMARK VINA RESULT:      -5.2      3.362      4.739
REMARK  5 active torsions:
REMARK  status: ('A' for Active; 'I' for Inactive)
REMARK    1  A    between atoms: C_2  and  N_4 
REMARK    2  A    between atoms: C_8  and  N_10 
REMARK    3  A    between atoms: N_10  and  S_11 
REMARK    4  A    between atoms: S_11  and  C_14 
REMARK    5  A    between atoms: C_14  and  C_15 
ROOT
HETATM    1  N   UNL     1     -42.127 -49.029  11.033  1.00  0.00    -0.213 NA
HETATM    2  H   UNL     1     -42.933 -49.507  10.614  1.00  0.00     0.140 HD
ENDROOT
BRANCH   1   3
HETATM    3  C   UNL     1     -41.832 -49.538  12.399  1.00  0.00     0.105 C 
HETATM    4  C   UNL     1     -40.491 -50.286  12.465  1.00  0.00     0.030 C 
HETATM    5  C   UNL     1     -40.834 -51.770  12.315  1.00  0.00     0.279 C 
HETATM    6  C   UNL     1     -39.367 -49.864  11.529  1.00  0.00     0.013 C 
HETATM    7  N   UNL     1     -42.296 -51.886  12.350  1.00  0.00     0.094 N 
HETATM    8  C   UNL     1     -42.809 -50.614  12.888  1.00  0.00     0.293 C 
BRANCH   7   9
HETATM    9  C   UNL     1     -42.765 -53.063  13.112  1.00  0.00     0.215 C 
HETATM   10  C   UNL     1     -44.024 -53.693  12.500  1.00  0.00     0.042 C 
HETATM   11  C   UNL     1     -41.679 -54.149  13.193  1.00  0.00     0.042 C 
ENDBRANCH   7   9
ENDBRANCH   1   3
BRANCH   1  12
HETATM   12  S   UNL     1     -42.301 -47.359  10.782  1.00  0.00     0.215 S 
HETATM   13  O   UNL     1     -43.294 -46.935  11.746  1.00  0.00    -0.211 OA
HETATM   14  O   UNL     1     -40.977 -46.779  10.806  1.00  0.00    -0.211 OA
BRANCH  12  15
HETATM   15  C   UNL     1     -43.003 -47.209   9.131  1.00  0.00     0.216 C 
BRANCH  15  16
HETATM   16  C   UNL     1     -44.489 -47.167   9.180  1.00  0.00     0.049 A 
HETATM   17  C   UNL     1     -45.372 -46.129   8.797  1.00  0.00     0.054 A 
HETATM   18  C   UNL     1     -46.620 -46.639   9.032  1.00  0.00     0.169 A 
HETATM   19  O   UNL     1     -46.510 -47.885   9.552  1.00  0.00    -0.250 OA
HETATM   20  N   UNL     1     -45.171 -48.218   9.664  1.00  0.00    -0.265 N 
ATOM     21  HN  UNL     1     -44.782 -49.084  10.037  1.00  0.00     0.194 HD
ENDBRANCH  15  16
ENDBRANCH  12  15
ENDBRANCH   1  12
TORSDOF 5
ENDMDL
MODEL 5
REMARK VINA RESULT:      -5.1      4.252      6.454
REMARK  5 active torsions:
REMARK  status: ('A' for Active; 'I' for Inactive)
REMARK    1  A    between atoms: C_2  and  N_4 
REMARK    2  A    between atoms: C_8  and  N_10 
REMARK    3  A    between atoms: N_10  and  S_11 
REMARK    4  A    between atoms: S_11  and  C_14 
REMARK    5  A    between atoms: C_14  and  C_15 
ROOT
HETATM    1  N   UNL     1     -41.876 -47.165   9.895  1.00  0.00    -0.213 NA
HETATM    2  H   UNL     1     -41.889 -47.967   9.255  1.00  0.00     0.140 HD
ENDROOT
BRANCH   1   3
HETATM    3  C   UNL     1     -41.765 -47.591  11.315  1.00  0.00     0.105 C 
HETATM    4  C   UNL     1     -40.434 -47.161  11.950  1.00  0.00     0.030 C 
HETATM    5  C   UNL     1     -39.505 -48.371  11.831  1.00  0.00     0.279 C 
HETATM    6  C   UNL     1     -39.767 -45.881  11.466  1.00  0.00     0.013 C 
HETATM    7  N   UNL     1     -40.309 -49.491  11.329  1.00  0.00     0.094 N 
HETATM    8  C   UNL     1     -41.721 -49.112  11.508  1.00  0.00     0.293 C 
BRANCH   7   9
HETATM    9  C   UNL     1     -39.973 -50.778  11.973  1.00  0.00     0.215 C 
HETATM   10  C   UNL     1     -39.395 -50.594  13.383  1.00  0.00     0.042 C 
HETATM   11  C   UNL     1     -41.204 -51.694  12.077  1.00  0.00     0.042 C 
ENDBRANCH   7   9
ENDBRANCH   1   3
BRANCH   1  12
HETATM   12  S   UNL     1     -43.110 -46.092   9.436  1.00  0.00     0.215 S 
HETATM   13  O   UNL     1     -42.890 -44.903  10.231  1.00  0.00    -0.211 OA
HETATM   14  O   UNL     1     -43.094 -46.008   7.993  1.00  0.00    -0.211 OA
BRANCH  12  15
HETATM   15  C   UNL     1     -44.634 -46.876   9.986  1.00  0.00     0.216 C 
BRANCH  15  16
HETATM   16  C   UNL     1     -45.210 -47.738   8.920  1.00  0.00     0.049 A 
HETATM   17  C   UNL     1     -46.520 -48.260   8.798  1.00  0.00     0.054 A 
HETATM   18  C   UNL     1     -46.499 -48.958   7.620  1.00  0.00     0.169 A 
HETATM   19  O   UNL     1     -45.259 -48.896   7.078  1.00  0.00    -0.250 OA
HETATM   20  N   UNL     1     -44.438 -48.144   7.899  1.00  0.00    -0.265 N 
ATOM     21  HN  UNL     1     -43.449 -47.939   7.759  1.00  0.00     0.194 HD
ENDBRANCH  15  16
ENDBRANCH  12  15
ENDBRANCH   1  12
TORSDOF 5
ENDMDL
MODEL 6
REMARK VINA RESULT:      -5.0      4.631      6.494
REMARK  5 active torsions:
REMARK  status: ('A' for Active; 'I' for Inactive)
REMARK    1  A    between atoms: C_2  and  N_4 
REMARK    2  A    between atoms: C_8  and  N_10 
REMARK    3  A    between atoms: N_10  and  S_11 
REMARK    4  A    between atoms: S_11  and  C_14 
REMARK    5  A    between atoms: C_14  and  C_15 
ROOT
HETATM    1  N   UNL     1     -44.739 -53.241  14.931  1.00  0.00    -0.213 NA
HETATM    2  H   UNL     1     -44.047 -53.089  15.674  1.00  0.00     0.140 HD
ENDROOT
BRANCH   1   3
HETATM    3  C   UNL     1     -46.125 -53.291  15.468  1.00  0.00     0.105 C 
HETATM    4  C   UNL     1     -46.976 -52.102  14.998  1.00  0.00     0.030 C 
HETATM    5  C   UNL     1     -46.902 -51.067  16.122  1.00  0.00     0.279 C 
HETATM    6  C   UNL     1     -46.689 -51.485  13.636  1.00  0.00     0.013 C 
HETATM    7  N   UNL     1     -46.207 -51.696  17.250  1.00  0.00     0.094 N 
HETATM    8  C   UNL     1     -46.208 -53.146  16.992  1.00  0.00     0.293 C 
BRANCH   7   9
HETATM    9  C   UNL     1     -46.795 -51.344  18.561  1.00  0.00     0.215 C 
HETATM   10  C   UNL     1     -47.883 -50.268  18.443  1.00  0.00     0.042 C 
HETATM   11  C   UNL     1     -47.412 -52.573  19.248  1.00  0.00     0.042 C 
ENDBRANCH   7   9
ENDBRANCH   1   3
BRANCH   1  12
HETATM   12  S   UNL     1     -44.184 -54.492  13.927  1.00  0.00     0.215 S 
HETATM   13  O   UNL     1     -44.890 -55.674  14.373  1.00  0.00    -0.211 OA
HETATM   14  O   UNL     1     -44.323 -54.042  12.559  1.00  0.00    -0.211 OA
BRANCH  12  15
HETATM   15  C   UNL     1     -42.441 -54.676  14.335  1.00  0.00     0.216 C 
BRANCH  15  16
HETATM   16  C   UNL     1     -41.605 -53.709  13.574  1.00  0.00     0.049 A 
HETATM   17  C   UNL     1     -41.243 -52.381  13.904  1.00  0.00     0.054 A 
HETATM   18  C   UNL     1     -40.449 -51.977  12.864  1.00  0.00     0.169 A 
HETATM   19  O   UNL     1     -40.359 -52.972  11.949  1.00  0.00    -0.250 OA
HETATM   20  N   UNL     1     -41.097 -54.059  12.381  1.00  0.00    -0.265 N 
ATOM     21  HN  UNL     1     -41.230 -54.946  11.894  1.00  0.00     0.194 HD
ENDBRANCH  15  16
ENDBRANCH  12  15
ENDBRANCH   1  12
TORSDOF 5
ENDMDL
MODEL 7
REMARK VINA RESULT:      -5.0      2.045      3.446
REMARK  5 active torsions:
REMARK  status: ('A' for Active; 'I' for Inactive)
REMARK    1  A    between atoms: C_2  and  N_4 
REMARK    2  A    between atoms: C_8  and  N_10 
REMARK    3  A    between atoms: N_10  and  S_11 
REMARK    4  A    between atoms: S_11  and  C_14 
REMARK    5  A    between atoms: C_14  and  C_15 
ROOT
HETATM    1  N   UNL     1     -42.313 -50.166  11.904  1.00  0.00    -0.213 NA
HETATM    2  H   UNL     1     -42.895 -50.476  11.117  1.00  0.00     0.140 HD
ENDROOT
BRANCH   1   3
HETATM    3  C   UNL     1     -42.678 -50.860  13.168  1.00  0.00     0.105 C 
HETATM    4  C   UNL     1     -42.345 -52.360  13.126  1.00  0.00     0.030 C 
HETATM    5  C   UNL     1     -43.642 -53.063  12.721  1.00  0.00     0.279 C 
HETATM    6  C   UNL     1     -41.159 -52.827  12.294  1.00  0.00     0.013 C 
HETATM    7  N   UNL     1     -44.704 -52.051  12.713  1.00  0.00     0.094 N 
HETATM    8  C   UNL     1     -44.184 -50.888  13.451  1.00  0.00     0.293 C 
BRANCH   7   9
HETATM    9  C   UNL     1     -45.984 -52.553  13.256  1.00  0.00     0.215 C 
HETATM   10  C   UNL     1     -45.820 -53.880  14.009  1.00  0.00     0.042 C 
HETATM   11  C   UNL     1     -46.626 -51.535  14.214  1.00  0.00     0.042 C 
ENDBRANCH   7   9
ENDBRANCH   1   3
BRANCH   1  12
HETATM   12  S   UNL     1     -42.226 -48.471  11.875  1.00  0.00     0.215 S 
HETATM   13  O   UNL     1     -43.137 -48.065  10.825  1.00  0.00    -0.211 OA
HETATM   14  O   UNL     1     -42.432 -48.005  13.228  1.00  0.00    -0.211 OA
BRANCH  12  15
HETATM   15  C   UNL     1     -40.545 -48.101  11.350  1.00  0.00     0.216 C 
BRANCH  15  16
HETATM   16  C   UNL     1     -39.585 -49.114  11.864  1.00  0.00     0.049 A 
HETATM   17  C   UNL     1     -39.005 -49.231  13.150  1.00  0.00     0.054 A 
HETATM   18  C   UNL     1     -38.225 -50.353  13.070  1.00  0.00     0.169 A 
HETATM   19  O   UNL     1     -38.295 -50.866  11.819  1.00  0.00    -0.250 OA
HETATM   20  N   UNL     1     -39.136 -50.082  11.049  1.00  0.00    -0.265 N 
ATOM     21  HN  UNL     1     -39.368 -50.213  10.064  1.00  0.00     0.194 HD
ENDBRANCH  15  16
ENDBRANCH  12  15
ENDBRANCH   1  12
TORSDOF 5
ENDMDL
MODEL 8
REMARK VINA RESULT:      -5.0      2.056      3.006
REMARK  5 active torsions:
REMARK  status: ('A' for Active; 'I' for Inactive)
REMARK    1  A    between atoms: C_2  and  N_4 
REMARK    2  A    between atoms: C_8  and  N_10 
REMARK    3  A    between atoms: N_10  and  S_11 
REMARK    4  A    between atoms: S_11  and  C_14 
REMARK    5  A    between atoms: C_14  and  C_15 
ROOT
HETATM    1  N   UNL     1     -41.477 -51.437  13.644  1.00  0.00    -0.213 NA
HETATM    2  H   UNL     1     -41.530 -51.677  14.641  1.00  0.00     0.140 HD
ENDROOT
BRANCH   1   3
HETATM    3  C   UNL     1     -42.795 -51.579  12.971  1.00  0.00     0.105 C 
HETATM    4  C   UNL     1     -43.769 -50.455  13.354  1.00  0.00     0.030 C 
HETATM    5  C   UNL     1     -44.630 -51.018  14.488  1.00  0.00     0.279 C 
HETATM    6  C   UNL     1     -43.210 -49.080  13.691  1.00  0.00     0.013 C 
HETATM    7  N   UNL     1     -44.298 -52.440  14.622  1.00  0.00     0.094 N 
HETATM    8  C   UNL     1     -43.581 -52.825  13.395  1.00  0.00     0.293 C 
BRANCH   7   9
HETATM    9  C   UNL     1     -45.481 -53.286  14.887  1.00  0.00     0.215 C 
HETATM   10  C   UNL     1     -46.800 -52.517  14.721  1.00  0.00     0.042 C 
HETATM   11  C   UNL     1     -45.520 -54.507  13.954  1.00  0.00     0.042 C 
ENDBRANCH   7   9
ENDBRANCH   1   3
BRANCH   1  12
HETATM   12  S   UNL     1     -40.111 -52.197  12.981  1.00  0.00     0.215 S 
HETATM   13  O   UNL     1     -39.501 -52.907  14.085  1.00  0.00    -0.211 OA
HETATM   14  O   UNL     1     -40.549 -52.924  11.810  1.00  0.00    -0.211 OA
BRANCH  12  15
HETATM   15  C   UNL     1     -39.022 -50.850  12.493  1.00  0.00     0.216 C 
BRANCH  15  16
HETATM   16  C   UNL     1     -39.785 -49.745  11.854  1.00  0.00     0.049 A 
HETATM   17  C   UNL     1     -39.866 -48.380  12.221  1.00  0.00     0.054 A 
HETATM   18  C   UNL     1     -40.684 -47.822  11.275  1.00  0.00     0.169 A 
HETATM   19  O   UNL     1     -41.100 -48.780  10.413  1.00  0.00    -0.250 OA
HETATM   20  N   UNL     1     -40.553 -49.996  10.781  1.00  0.00    -0.265 N 
ATOM     21  HN  UNL     1     -40.701 -50.899  10.330  1.00  0.00     0.194 HD
ENDBRANCH  15  16
ENDBRANCH  12  15
ENDBRANCH   1  12
TORSDOF 5
ENDMDL
MODEL 9
REMARK VINA RESULT:      -4.9      2.430      3.013
REMARK  5 active torsions:
REMARK  status: ('A' for Active; 'I' for Inactive)
REMARK    1  A    between atoms: C_2  and  N_4 
REMARK    2  A    between atoms: C_8  and  N_10 
REMARK    3  A    between atoms: N_10  and  S_11 
REMARK    4  A    between atoms: S_11  and  C_14 
REMARK    5  A    between atoms: C_14  and  C_15 
ROOT
HETATM    1  N   UNL     1     -42.227 -50.573  11.820  1.00  0.00    -0.213 NA
HETATM    2  H   UNL     1     -43.047 -50.290  11.270  1.00  0.00     0.140 HD
ENDROOT
BRANCH   1   3
HETATM    3  C   UNL     1     -42.614 -51.144  13.137  1.00  0.00     0.105 C 
HETATM    4  C   UNL     1     -42.250 -52.632  13.256  1.00  0.00     0.030 C 
HETATM    5  C   UNL     1     -43.520 -53.402  12.891  1.00  0.00     0.279 C 
HETATM    6  C   UNL     1     -41.031 -53.153  12.507  1.00  0.00     0.013 C 
HETATM    7  N   UNL     1     -44.601 -52.421  12.752  1.00  0.00     0.094 N 
HETATM    8  C   UNL     1     -44.127 -51.177  13.382  1.00  0.00     0.293 C 
BRANCH   7   9
HETATM    9  C   UNL     1     -45.887 -52.894  13.309  1.00  0.00     0.215 C 
HETATM   10  C   UNL     1     -45.751 -54.245  14.026  1.00  0.00     0.042 C 
HETATM   11  C   UNL     1     -46.475 -51.882  14.304  1.00  0.00     0.042 C 
ENDBRANCH   7   9
ENDBRANCH   1   3
BRANCH   1  12
HETATM   12  S   UNL     1     -41.079 -49.324  11.753  1.00  0.00     0.215 S 
HETATM   13  O   UNL     1     -41.158 -48.670  13.042  1.00  0.00    -0.211 OA
HETATM   14  O   UNL     1     -39.831 -49.908  11.315  1.00  0.00    -0.211 OA
BRANCH  12  15
HETATM   15  C   UNL     1     -41.697 -48.192  10.497  1.00  0.00     0.216 C 
BRANCH  15  16
HETATM   16  C   UNL     1     -41.225 -46.803  10.745  1.00  0.00     0.049 A 
HETATM   17  C   UNL     1     -41.934 -45.690  11.253  1.00  0.00     0.054 A 
HETATM   18  C   UNL     1     -41.006 -44.684  11.293  1.00  0.00     0.169 A 
HETATM   19  O   UNL     1     -39.824 -45.139  10.814  1.00  0.00    -0.250 OA
HETATM   20  N   UNL     1     -39.958 -46.467  10.450  1.00  0.00    -0.265 N 
ATOM     21  HN  UNL     1     -39.242 -47.069  10.043  1.00  0.00     0.194 HD
ENDBRANCH  15  16
ENDBRANCH  12  15
ENDBRANCH   1  12
TORSDOF 5
ENDMDL
