MODEL 1
REMARK VINA RESULT:      -5.9      0.000      0.000
REMARK  2 active torsions:
REMARK  status: ('A' for Active; 'I' for Inactive)
REMARK    1  A    between atoms: C_6  and  N_7 
REMARK       I    between atoms: N_7  and  C_8 
REMARK       I    between atoms: C_8  and  N_10 
REMARK    2  A    between atoms: N_10  and  C_11 
ROOT
HETATM    1  N   UNL     1     -41.893 -49.550  11.335  1.00  0.00    -0.300 N 
HETATM    2  C   UNL     1     -42.746 -49.874  12.367  1.00  0.00     0.321 C 
HETATM    3  O   UNL     1     -43.393 -49.074  13.023  1.00  0.00    -0.247 OA
HETATM    4  N   UNL     1     -42.775 -51.224  12.628  1.00  0.00    -0.334 N 
HETATM    5  H   UNL     1     -41.369 -50.288  10.888  1.00  0.00     0.171 HD
HETATM    6  H   UNL     1     -42.502 -51.809  11.855  1.00  0.00     0.165 HD
ENDROOT
BRANCH   1   7
HETATM    7  C   UNL     1     -41.613 -48.252  10.917  1.00  0.00     0.118 A 
HETATM    8  S   UNL     1     -42.600 -47.390   9.824  1.00  0.00     0.006 SA
HETATM    9  N   UNL     1     -41.722 -45.993   9.825  1.00  0.00    -0.327 N 
HETATM   10  C   UNL     1     -40.671 -46.145  10.631  1.00  0.00     0.036 A 
ATOM     11  HN  UNL     1     -41.946 -45.151   9.296  1.00  0.00     0.174 HD
HETATM   12  C   UNL     1     -39.745 -44.988  10.769  1.00  0.00     0.070 C 
HETATM   13  C   UNL     1     -40.561 -47.428  11.275  1.00  0.00     0.091 A 
HETATM   14 CL   UNL     1     -39.290 -47.852  12.342  1.00  0.00    -0.079 Cl
ENDBRANCH   1   7
BRANCH   4  15
HETATM   15  C   UNL     1     -43.598 -51.911  13.667  1.00  0.00     0.035 C 
HETATM   16  C   UNL     1     -43.037 -51.381  15.011  1.00  0.00     0.039 C 
HETATM   17  C   UNL     1     -43.376 -53.438  13.619  1.00  0.00     0.057 C 
HETATM   18  C   UNL     1     -44.312 -54.136  12.646  1.00  0.00     0.170 C 
HETATM   19  O   UNL     1     -45.660 -53.878  13.031  1.00  0.00    -0.391 OA
HETATM   20  C   UNL     1     -46.000 -52.510  12.821  1.00  0.00     0.170 C 
HETATM   21  C   UNL     1     -45.116 -51.575  13.649  1.00  0.00     0.057 C 
ENDBRANCH   4  15
TORSDOF 2
ENDMDL
MODEL 2
REMARK VINA RESULT:      -5.8      3.088      3.667
REMARK  2 active torsions:
REMARK  status: ('A' for Active; 'I' for Inactive)
REMARK    1  A    between atoms: C_6  and  N_7 
REMARK       I    between atoms: N_7  and  C_8 
REMARK       I    between atoms: C_8  and  N_10 
REMARK    2  A    between atoms: N_10  and  C_11 
ROOT
HETATM    1  N   UNL     1     -42.333 -50.594  13.227  1.00  0.00    -0.300 N 
HETATM    2  C   UNL     1     -43.221 -51.615  12.967  1.00  0.00     0.321 C 
HETATM    3  O   UNL     1     -43.007 -52.563  12.229  1.00  0.00    -0.247 OA
HETATM    4  N   UNL     1     -44.427 -51.445  13.604  1.00  0.00    -0.334 N 
HETATM    5  H   UNL     1     -42.629 -49.832  13.819  1.00  0.00     0.171 HD
HETATM    6  H   UNL     1     -44.393 -50.859  14.423  1.00  0.00     0.165 HD
ENDROOT
BRANCH   1   7
HETATM    7  C   UNL     1     -41.072 -50.476  12.651  1.00  0.00     0.118 A 
HETATM    8  S   UNL     1     -40.779 -49.608  11.212  1.00  0.00     0.006 SA
HETATM    9  N   UNL     1     -39.150 -49.855  11.159  1.00  0.00    -0.327 N 
HETATM   10  C   UNL     1     -38.792 -50.597  12.208  1.00  0.00     0.036 A 
ATOM     11  HN  UNL     1     -38.518 -49.498  10.443  1.00  0.00     0.174 HD
HETATM   12  C   UNL     1     -37.348 -50.935  12.343  1.00  0.00     0.070 C 
HETATM   13  C   UNL     1     -39.862 -50.985  13.089  1.00  0.00     0.091 A 
HETATM   14 CL   UNL     1     -39.640 -51.945  14.490  1.00  0.00    -0.079 Cl
ENDBRANCH   1   7
BRANCH   4  15
HETATM   15  C   UNL     1     -45.601 -52.366  13.546  1.00  0.00     0.035 C 
HETATM   16  C   UNL     1     -46.512 -51.759  12.451  1.00  0.00     0.039 C 
HETATM   17  C   UNL     1     -46.374 -52.350  14.883  1.00  0.00     0.057 C 
HETATM   18  C   UNL     1     -45.834 -53.358  15.884  1.00  0.00     0.170 C 
HETATM   19  O   UNL     1     -45.915 -54.664  15.320  1.00  0.00    -0.391 OA
HETATM   20  C   UNL     1     -44.996 -54.816  14.242  1.00  0.00     0.170 C 
HETATM   21  C   UNL     1     -45.285 -53.826  13.111  1.00  0.00     0.057 C 
ENDBRANCH   4  15
TORSDOF 2
ENDMDL
MODEL 3
REMARK VINA RESULT:      -5.6      2.026      2.372
REMARK  2 active torsions:
REMARK  status: ('A' for Active; 'I' for Inactive)
REMARK    1  A    between atoms: C_6  and  N_7 
REMARK       I    between atoms: N_7  and  C_8 
REMARK       I    between atoms: C_8  and  N_10 
REMARK    2  A    between atoms: N_10  and  C_11 
ROOT
HETATM    1  N   UNL     1     -42.354 -50.491  11.812  1.00  0.00    -0.300 N 
HETATM    2  C   UNL     1     -43.150 -50.687  12.920  1.00  0.00     0.321 C 
HETATM    3  O   UNL     1     -43.233 -49.927  13.871  1.00  0.00    -0.247 OA
HETATM    4  N   UNL     1     -43.837 -51.877  12.875  1.00  0.00    -0.334 N 
HETATM    5  H   UNL     1     -42.325 -51.207  11.102  1.00  0.00     0.171 HD
HETATM    6  H   UNL     1     -43.975 -52.250  11.950  1.00  0.00     0.165 HD
ENDROOT
BRANCH   1   7
HETATM    7  C   UNL     1     -41.495 -49.410  11.636  1.00  0.00     0.118 A 
HETATM    8  S   UNL     1     -39.806 -49.512  11.859  1.00  0.00     0.006 SA
HETATM    9  N   UNL     1     -39.460 -47.949  11.461  1.00  0.00    -0.327 N 
HETATM   10  C   UNL     1     -40.596 -47.317  11.165  1.00  0.00     0.036 A 
ATOM     11  HN  UNL     1     -38.529 -47.534  11.445  1.00  0.00     0.174 HD
HETATM   12  C   UNL     1     -40.497 -45.883  10.778  1.00  0.00     0.070 C 
HETATM   13  C   UNL     1     -41.793 -48.113  11.258  1.00  0.00     0.091 A 
HETATM   14 CL   UNL     1     -43.362 -47.510  10.935  1.00  0.00    -0.079 Cl
ENDBRANCH   1   7
BRANCH   4  15
HETATM   15  C   UNL     1     -44.790 -52.392  13.903  1.00  0.00     0.035 C 
HETATM   16  C   UNL     1     -45.804 -51.236  14.097  1.00  0.00     0.039 C 
HETATM   17  C   UNL     1     -44.068 -52.633  15.246  1.00  0.00     0.057 C 
HETATM   18  C   UNL     1     -43.462 -54.024  15.343  1.00  0.00     0.170 C 
HETATM   19  O   UNL     1     -44.495 -54.994  15.195  1.00  0.00    -0.391 OA
HETATM   20  C   UNL     1     -45.006 -55.000  13.865  1.00  0.00     0.170 C 
HETATM   21  C   UNL     1     -45.611 -53.645  13.487  1.00  0.00     0.057 C 
ENDBRANCH   4  15
TORSDOF 2
ENDMDL
MODEL 4
REMARK VINA RESULT:      -5.3      3.140      6.868
REMARK  2 active torsions:
REMARK  status: ('A' for Active; 'I' for Inactive)
REMARK    1  A    between atoms: C_6  and  N_7 
REMARK       I    between atoms: N_7  and  C_8 
REMARK       I    between atoms: C_8  and  N_10 
REMARK    2  A    between atoms: N_10  and  C_11 
ROOT
HETATM    1  N   UNL     1     -41.962 -51.133  11.938  1.00  0.00    -0.300 N 
HETATM    2  C   UNL     1     -42.400 -49.858  12.226  1.00  0.00     0.321 C 
HETATM    3  O   UNL     1     -42.825 -49.488  13.308  1.00  0.00    -0.247 OA
HETATM    4  N   UNL     1     -42.351 -49.022  11.136  1.00  0.00    -0.334 N 
HETATM    5  H   UNL     1     -41.674 -51.345  10.995  1.00  0.00     0.171 HD
HETATM    6  H   UNL     1     -41.694 -49.295  10.424  1.00  0.00     0.165 HD
ENDROOT
BRANCH   1   7
HETATM    7  C   UNL     1     -41.980 -52.198  12.834  1.00  0.00     0.118 A 
HETATM    8  S   UNL     1     -40.655 -52.604  13.829  1.00  0.00     0.006 SA
HETATM    9  N   UNL     1     -41.372 -53.870  14.606  1.00  0.00    -0.327 N 
HETATM   10  C   UNL     1     -42.610 -54.021  14.133  1.00  0.00     0.036 A 
ATOM     11  HN  UNL     1     -40.940 -54.443  15.331  1.00  0.00     0.174 HD
HETATM   12  C   UNL     1     -43.430 -55.121  14.710  1.00  0.00     0.070 C 
HETATM   13  C   UNL     1     -43.002 -53.089  13.109  1.00  0.00     0.091 A 
HETATM   14 CL   UNL     1     -44.537 -53.100  12.350  1.00  0.00    -0.079 Cl
ENDBRANCH   1   7
BRANCH   4  15
HETATM   15  C   UNL     1     -42.739 -47.580  11.105  1.00  0.00     0.035 C 
HETATM   16  C   UNL     1     -44.131 -47.573  10.424  1.00  0.00     0.039 C 
HETATM   17  C   UNL     1     -41.764 -46.771  10.223  1.00  0.00     0.057 C 
HETATM   18  C   UNL     1     -40.557 -46.264  10.996  1.00  0.00     0.170 C 
HETATM   19  O   UNL     1     -41.004 -45.437  12.067  1.00  0.00    -0.391 OA
HETATM   20  C   UNL     1     -41.676 -46.205  13.061  1.00  0.00     0.170 C 
HETATM   21  C   UNL     1     -42.914 -46.903  12.494  1.00  0.00     0.057 C 
ENDBRANCH   4  15
TORSDOF 2
ENDMDL
MODEL 5
REMARK VINA RESULT:      -5.1      3.365      7.084
REMARK  2 active torsions:
REMARK  status: ('A' for Active; 'I' for Inactive)
REMARK    1  A    between atoms: C_6  and  N_7 
REMARK       I    between atoms: N_7  and  C_8 
REMARK       I    between atoms: C_8  and  N_10 
REMARK    2  A    between atoms: N_10  and  C_11 
ROOT
HETATM    1  N   UNL     1     -44.243 -50.675  12.621  1.00  0.00    -0.300 N 
HETATM    2  C   UNL     1     -43.215 -49.925  13.150  1.00  0.00     0.321 C 
HETATM    3  O   UNL     1     -42.454 -50.294  14.029  1.00  0.00    -0.247 OA
HETATM    4  N   UNL     1     -43.146 -48.663  12.608  1.00  0.00    -0.334 N 
HETATM    5  H   UNL     1     -44.843 -50.255  11.928  1.00  0.00     0.171 HD
HETATM    6  H   UNL     1     -43.560 -48.573  11.695  1.00  0.00     0.165 HD
ENDROOT
BRANCH   1   7
HETATM    7  C   UNL     1     -44.587 -51.955  13.045  1.00  0.00     0.118 A 
HETATM    8  S   UNL     1     -43.692 -53.348  12.634  1.00  0.00     0.006 SA
HETATM    9  N   UNL     1     -44.614 -54.430  13.471  1.00  0.00    -0.327 N 
HETATM   10  C   UNL     1     -45.614 -53.776  14.065  1.00  0.00     0.036 A 
ATOM     11  HN  UNL     1     -44.448 -55.434  13.525  1.00  0.00     0.174 HD
HETATM   12  C   UNL     1     -46.568 -54.581  14.875  1.00  0.00     0.070 C 
HETATM   13  C   UNL     1     -45.645 -52.354  13.843  1.00  0.00     0.091 A 
HETATM   14 CL   UNL     1     -46.839 -51.316  14.496  1.00  0.00    -0.079 Cl
ENDBRANCH   1   7
BRANCH   4  15
HETATM   15  C   UNL     1     -42.149 -47.604  12.947  1.00  0.00     0.035 C 
HETATM   16  C   UNL     1     -42.601 -47.083  14.334  1.00  0.00     0.039 C 
HETATM   17  C   UNL     1     -42.230 -46.436  11.941  1.00  0.00     0.057 C 
HETATM   18  C   UNL     1     -41.349 -46.651  10.721  1.00  0.00     0.170 C 
HETATM   19  O   UNL     1     -39.996 -46.801  11.145  1.00  0.00    -0.391 OA
HETATM   20  C   UNL     1     -39.812 -48.027  11.848  1.00  0.00     0.170 C 
HETATM   21  C   UNL     1     -40.681 -48.092  13.106  1.00  0.00     0.057 C 
ENDBRANCH   4  15
TORSDOF 2
ENDMDL
MODEL 6
REMARK VINA RESULT:      -4.9      2.163      2.521
REMARK  2 active torsions:
REMARK  status: ('A' for Active; 'I' for Inactive)
REMARK    1  A    between atoms: C_6  and  N_7 
REMARK       I    between atoms: N_7  and  C_8 
REMARK       I    between atoms: C_8  and  N_10 
REMARK    2  A    between atoms: N_10  and  C_11 
ROOT
HETATM    1  N   UNL     1     -41.559 -50.055  13.370  1.00  0.00    -0.300 N 
HETATM    2  C   UNL     1     -41.881 -51.318  12.921  1.00  0.00     0.321 C 
HETATM    3  O   UNL     1     -41.679 -51.737  11.793  1.00  0.00    -0.247 OA
HETATM    4  N   UNL     1     -42.509 -52.078  13.880  1.00  0.00    -0.334 N 
HETATM    5  H   UNL     1     -41.813 -49.795  14.311  1.00  0.00     0.171 HD
HETATM    6  H   UNL     1     -42.324 -51.795  14.829  1.00  0.00     0.165 HD
ENDROOT
BRANCH   1   7
HETATM    7  C   UNL     1     -40.991 -49.057  12.584  1.00  0.00     0.118 A 
HETATM    8  S   UNL     1     -39.367 -49.089  12.063  1.00  0.00     0.006 SA
HETATM    9  N   UNL     1     -39.410 -47.687  11.194  1.00  0.00    -0.327 N 
HETATM   10  C   UNL     1     -40.633 -47.163  11.282  1.00  0.00     0.036 A 
ATOM     11  HN  UNL     1     -38.630 -47.287  10.673  1.00  0.00     0.174 HD
HETATM   12  C   UNL     1     -40.880 -45.883  10.562  1.00  0.00     0.070 C 
HETATM   13  C   UNL     1     -41.574 -47.909  12.076  1.00  0.00     0.091 A 
HETATM   14 CL   UNL     1     -43.195 -47.422  12.338  1.00  0.00    -0.079 Cl
ENDBRANCH   1   7
BRANCH   4  15
HETATM   15  C   UNL     1     -42.978 -53.487  13.729  1.00  0.00     0.035 C 
HETATM   16  C   UNL     1     -41.696 -54.282  13.379  1.00  0.00     0.039 C 
HETATM   17  C   UNL     1     -43.964 -53.611  12.547  1.00  0.00     0.057 C 
HETATM   18  C   UNL     1     -45.404 -53.343  12.954  1.00  0.00     0.170 C 
HETATM   19  O   UNL     1     -45.781 -54.271  13.968  1.00  0.00    -0.391 OA
HETATM   20  C   UNL     1     -45.089 -54.010  15.186  1.00  0.00     0.170 C 
HETATM   21  C   UNL     1     -43.573 -54.135  15.012  1.00  0.00     0.057 C 
ENDBRANCH   4  15
TORSDOF 2
ENDMDL
MODEL 7
REMARK VINA RESULT:      -4.9      2.096      2.821
REMARK  2 active torsions:
REMARK  status: ('A' for Active; 'I' for Inactive)
REMARK    1  A    between atoms: C_6  and  N_7 
REMARK       I    between atoms: N_7  and  C_8 
REMARK       I    between atoms: C_8  and  N_10 
REMARK    2  A    between atoms: N_10  and  C_11 
ROOT
HETATM    1  N   UNL     1     -42.234 -49.232  12.528  1.00  0.00    -0.300 N 
HETATM    2  C   UNL     1     -41.907 -50.560  12.356  1.00  0.00     0.321 C 
HETATM    3  O   UNL     1     -41.186 -50.998  11.475  1.00  0.00    -0.247 OA
HETATM    4  N   UNL     1     -42.519 -51.380  13.274  1.00  0.00    -0.334 N 
HETATM    5  H   UNL     1     -42.877 -48.982  13.264  1.00  0.00     0.171 HD
HETATM    6  H   UNL     1     -42.794 -50.925  14.130  1.00  0.00     0.165 HD
ENDROOT
BRANCH   1   7
HETATM    7  C   UNL     1     -41.818 -48.200  11.692  1.00  0.00     0.118 A 
HETATM    8  S   UNL     1     -42.677 -47.722  10.298  1.00  0.00     0.006 SA
HETATM    9  N   UNL     1     -41.672 -46.491   9.858  1.00  0.00    -0.327 N 
HETATM   10  C   UNL     1     -40.671 -46.417  10.736  1.00  0.00     0.036 A 
ATOM     11  HN  UNL     1     -41.796 -45.884   9.048  1.00  0.00     0.174 HD
HETATM   12  C   UNL     1     -39.646 -45.360  10.513  1.00  0.00     0.070 C 
HETATM   13  C   UNL     1     -40.707 -47.382  11.803  1.00  0.00     0.091 A 
HETATM   14 CL   UNL     1     -39.523 -47.482  13.036  1.00  0.00    -0.079 Cl
ENDBRANCH   1   7
BRANCH   4  15
HETATM   15  C   UNL     1     -42.373 -52.863  13.377  1.00  0.00     0.035 C 
HETATM   16  C   UNL     1     -43.528 -53.422  12.510  1.00  0.00     0.039 C 
HETATM   17  C   UNL     1     -42.589 -53.333  14.832  1.00  0.00     0.057 C 
HETATM   18  C   UNL     1     -41.308 -53.311  15.651  1.00  0.00     0.170 C 
HETATM   19  O   UNL     1     -40.344 -54.157  15.030  1.00  0.00    -0.391 OA
HETATM   20  C   UNL     1     -39.900 -53.608  13.793  1.00  0.00     0.170 C 
HETATM   21  C   UNL     1     -41.053 -53.447  12.800  1.00  0.00     0.057 C 
ENDBRANCH   4  15
TORSDOF 2
ENDMDL
MODEL 8
REMARK VINA RESULT:      -4.9      3.138      4.232
REMARK  2 active torsions:
REMARK  status: ('A' for Active; 'I' for Inactive)
REMARK    1  A    between atoms: C_6  and  N_7 
REMARK       I    between atoms: N_7  and  C_8 
REMARK       I    between atoms: C_8  and  N_10 
REMARK    2  A    between atoms: N_10  and  C_11 
ROOT
HETATM    1  N   UNL     1     -42.729 -51.945  14.091  1.00  0.00    -0.300 N 
HETATM    2  C   UNL     1     -44.075 -52.234  14.118  1.00  0.00     0.321 C 
HETATM    3  O   UNL     1     -44.871 -51.969  13.231  1.00  0.00    -0.247 OA
HETATM    4  N   UNL     1     -44.466 -52.833  15.292  1.00  0.00    -0.334 N 
HETATM    5  H   UNL     1     -42.168 -52.167  14.900  1.00  0.00     0.171 HD
HETATM    6  H   UNL     1     -43.729 -53.308  15.789  1.00  0.00     0.165 HD
ENDROOT
BRANCH   1   7
HETATM    7  C   UNL     1     -42.085 -51.268  13.058  1.00  0.00     0.118 A 
HETATM    8  S   UNL     1     -41.000 -52.024  11.980  1.00  0.00     0.006 SA
HETATM    9  N   UNL     1     -40.680 -50.694  11.058  1.00  0.00    -0.327 N 
HETATM   10  C   UNL     1     -41.367 -49.658  11.541  1.00  0.00     0.036 A 
ATOM     11  HN  UNL     1     -40.058 -50.668  10.250  1.00  0.00     0.174 HD
HETATM   12  C   UNL     1     -41.213 -48.352  10.843  1.00  0.00     0.070 C 
HETATM   13  C   UNL     1     -42.183 -49.937  12.694  1.00  0.00     0.091 A 
HETATM   14 CL   UNL     1     -43.141 -48.761  13.488  1.00  0.00    -0.079 Cl
ENDBRANCH   1   7
BRANCH   4  15
HETATM   15  C   UNL     1     -45.845 -53.285  15.644  1.00  0.00     0.035 C 
HETATM   16  C   UNL     1     -46.113 -54.475  14.688  1.00  0.00     0.039 C 
HETATM   17  C   UNL     1     -46.876 -52.178  15.339  1.00  0.00     0.057 C 
HETATM   18  C   UNL     1     -47.067 -51.218  16.503  1.00  0.00     0.170 C 
HETATM   19  O   UNL     1     -47.502 -51.952  17.645  1.00  0.00    -0.391 OA
HETATM   20  C   UNL     1     -46.464 -52.795  18.138  1.00  0.00     0.170 C 
HETATM   21  C   UNL     1     -46.025 -53.822  17.092  1.00  0.00     0.057 C 
ENDBRANCH   4  15
TORSDOF 2
ENDMDL
MODEL 9
REMARK VINA RESULT:      -4.9      3.183      6.871
REMARK  2 active torsions:
REMARK  status: ('A' for Active; 'I' for Inactive)
REMARK    1  A    between atoms: C_6  and  N_7 
REMARK       I    between atoms: N_7  and  C_8 
REMARK       I    between atoms: C_8  and  N_10 
REMARK    2  A    between atoms: N_10  and  C_11 
ROOT
HETATM    1  N   UNL     1     -42.050 -51.086  11.840  1.00  0.00    -0.300 N 
HETATM    2  C   UNL     1     -41.494 -49.958  12.404  1.00  0.00     0.321 C 
HETATM    3  O   UNL     1     -41.106 -49.865  13.557  1.00  0.00    -0.247 OA
HETATM    4  N   UNL     1     -41.450 -48.896  11.531  1.00  0.00    -0.334 N 
HETATM    5  H   UNL     1     -42.381 -51.041  10.889  1.00  0.00     0.171 HD
HETATM    6  H   UNL     1     -41.461 -49.150  10.557  1.00  0.00     0.165 HD
ENDROOT
BRANCH   1   7
HETATM    7  C   UNL     1     -42.288 -52.277  12.522  1.00  0.00     0.118 A 
HETATM    8  S   UNL     1     -41.077 -53.442  12.818  1.00  0.00     0.006 SA
HETATM    9  N   UNL     1     -42.023 -54.501  13.657  1.00  0.00    -0.327 N 
HETATM   10  C   UNL     1     -43.262 -54.012  13.725  1.00  0.00     0.036 A 
ATOM     11  HN  UNL     1     -41.711 -55.385  14.058  1.00  0.00     0.174 HD
HETATM   12  C   UNL     1     -44.277 -54.827  14.448  1.00  0.00     0.070 C 
HETATM   13  C   UNL     1     -43.465 -52.740  13.082  1.00  0.00     0.091 A 
HETATM   14 CL   UNL     1     -44.972 -51.929  13.033  1.00  0.00    -0.079 Cl
ENDBRANCH   1   7
BRANCH   4  15
HETATM   15  C   UNL     1     -40.902 -47.536  11.814  1.00  0.00     0.035 C 
HETATM   16  C   UNL     1     -39.381 -47.766  11.992  1.00  0.00     0.039 C 
HETATM   17  C   UNL     1     -41.467 -46.985  13.141  1.00  0.00     0.057 C 
HETATM   18  C   UNL     1     -42.780 -46.243  12.956  1.00  0.00     0.170 C 
HETATM   19  O   UNL     1     -42.578 -45.157  12.055  1.00  0.00    -0.391 OA
HETATM   20  C   UNL     1     -42.329 -45.627  10.733  1.00  0.00     0.170 C 
HETATM   21  C   UNL     1     -41.070 -46.496  10.671  1.00  0.00     0.057 C 
ENDBRANCH   4  15
TORSDOF 2
ENDMDL
