MODEL 1
REMARK VINA RESULT:      -6.3      0.000      0.000
REMARK  3 active torsions:
REMARK  status: ('A' for Active; 'I' for Inactive)
REMARK    1  A    between atoms: C_6  and  N_8 
REMARK       I    between atoms: N_8  and  C_9 
REMARK    2  A    between atoms: C_9  and  C_11 
REMARK    3  A    between atoms: C_11  and  C_12 
ROOT
HETATM    1  C   UNL     1     -45.676 -54.681  14.351  1.00  0.00     0.149 C 
ENDROOT
BRANCH   1   2
HETATM    2  C   UNL     1     -45.947 -54.025  15.696  1.00  0.00     0.222 C 
HETATM    3  N   UNL     1     -46.114 -52.655  15.651  1.00  0.00    -0.356 N 
HETATM    4  H   UNL     1     -45.780 -52.163  14.824  1.00  0.00     0.162 HD
HETATM    5  O   UNL     1     -46.025 -54.682  16.730  1.00  0.00    -0.273 OA
BRANCH   3   6
HETATM    6  C   UNL     1     -46.446 -51.890  16.847  1.00  0.00     0.084 C 
HETATM    7  C   UNL     1     -47.852 -51.290  16.738  1.00  0.00     0.025 C 
HETATM    8  C   UNL     1     -48.225 -50.486  17.984  1.00  0.00     0.002 C 
HETATM    9  C   UNL     1     -47.182 -49.421  18.315  1.00  0.00     0.004 C 
HETATM   10  C   UNL     1     -45.755 -49.984  18.401  1.00  0.00    -0.017 C 
HETATM   11  C   UNL     1     -45.554 -50.813  19.675  1.00  0.00     0.010 C 
HETATM   12  C   UNL     1     -45.414 -50.789  17.134  1.00  0.00     0.029 C 
ENDBRANCH   3   6
ENDBRANCH   1   2
BRANCH   1  13
HETATM   13  C   UNL     1     -44.394 -54.161  13.773  1.00  0.00     0.041 A 
HETATM   14  C   UNL     1     -43.138 -54.400  14.199  1.00  0.00     0.018 A 
HETATM   15  C   UNL     1     -42.813 -55.267  15.390  1.00  0.00     0.069 C 
HETATM   16  N   UNL     1     -42.014 -53.875  13.595  1.00  0.00    -0.349 N 
HETATM   17  C   UNL     1     -42.172 -53.129  12.556  1.00  0.00     0.080 A 
ATOM     18  HN  UNL     1     -41.082 -54.072  13.962  1.00  0.00     0.167 HD
HETATM   19  C   UNL     1     -40.993 -52.526  11.852  1.00  0.00     0.089 C 
HETATM   20  N   UNL     1     -43.391 -52.840  12.023  1.00  0.00    -0.313 N 
HETATM   21  C   UNL     1     -44.546 -53.292  12.580  1.00  0.00     0.255 A 
HETATM   22  H   UNL     1     -43.482 -52.256  11.204  1.00  0.00     0.170 HD
HETATM   23  O   UNL     1     -45.649 -52.998  12.127  1.00  0.00    -0.268 OA
ENDBRANCH   1  13
TORSDOF 3
ENDMDL
MODEL 2
REMARK VINA RESULT:      -6.1      3.595      5.408
REMARK  3 active torsions:
REMARK  status: ('A' for Active; 'I' for Inactive)
REMARK    1  A    between atoms: C_6  and  N_8 
REMARK       I    between atoms: N_8  and  C_9 
REMARK    2  A    between atoms: C_9  and  C_11 
REMARK    3  A    between atoms: C_11  and  C_12 
ROOT
HETATM    1  C   UNL     1     -42.827 -48.982  11.779  1.00  0.00     0.149 C 
ENDROOT
BRANCH   1   2
HETATM    2  C   UNL     1     -43.378 -49.524  13.088  1.00  0.00     0.222 C 
HETATM    3  N   UNL     1     -44.328 -50.518  12.951  1.00  0.00    -0.356 N 
HETATM    4  H   UNL     1     -44.784 -50.617  12.046  1.00  0.00     0.162 HD
HETATM    5  O   UNL     1     -42.984 -49.110  14.175  1.00  0.00    -0.273 OA
BRANCH   3   6
HETATM    6  C   UNL     1     -44.902 -51.184  14.114  1.00  0.00     0.084 C 
HETATM    7  C   UNL     1     -44.148 -52.482  14.427  1.00  0.00     0.025 C 
HETATM    8  C   UNL     1     -44.729 -53.197  15.646  1.00  0.00     0.002 C 
HETATM    9  C   UNL     1     -46.231 -53.438  15.509  1.00  0.00     0.004 C 
HETATM   10  C   UNL     1     -47.016 -52.163  15.165  1.00  0.00    -0.017 C 
HETATM   11  C   UNL     1     -47.109 -51.218  16.368  1.00  0.00     0.010 C 
HETATM   12  C   UNL     1     -46.402 -51.467  13.936  1.00  0.00     0.029 C 
ENDBRANCH   3   6
ENDBRANCH   1   2
BRANCH   1  13
HETATM   13  C   UNL     1     -41.350 -49.229  11.700  1.00  0.00     0.041 A 
HETATM   14  C   UNL     1     -40.364 -48.317  11.588  1.00  0.00     0.018 A 
HETATM   15  C   UNL     1     -40.610 -46.831  11.515  1.00  0.00     0.069 C 
HETATM   16  N   UNL     1     -39.025 -48.643  11.525  1.00  0.00    -0.349 N 
HETATM   17  C   UNL     1     -38.698 -49.888  11.593  1.00  0.00     0.080 A 
ATOM     18  HN  UNL     1     -38.313 -47.919  11.426  1.00  0.00     0.167 HD
HETATM   19  C   UNL     1     -37.260 -50.312  11.530  1.00  0.00     0.089 C 
HETATM   20  N   UNL     1     -39.606 -50.894  11.732  1.00  0.00    -0.313 N 
HETATM   21  C   UNL     1     -40.944 -50.655  11.768  1.00  0.00     0.255 A 
HETATM   22  H   UNL     1     -39.317 -51.859  11.788  1.00  0.00     0.170 HD
HETATM   23  O   UNL     1     -41.768 -51.562  11.850  1.00  0.00    -0.268 OA
ENDBRANCH   1  13
TORSDOF 3
ENDMDL
MODEL 3
REMARK VINA RESULT:      -5.9      1.863      6.311
REMARK  3 active torsions:
REMARK  status: ('A' for Active; 'I' for Inactive)
REMARK    1  A    between atoms: C_6  and  N_8 
REMARK       I    between atoms: N_8  and  C_9 
REMARK    2  A    between atoms: C_9  and  C_11 
REMARK    3  A    between atoms: C_11  and  C_12 
ROOT
HETATM    1  C   UNL     1     -45.530 -54.406  13.861  1.00  0.00     0.149 C 
ENDROOT
BRANCH   1   2
HETATM    2  C   UNL     1     -44.185 -53.955  13.314  1.00  0.00     0.222 C 
HETATM    3  N   UNL     1     -43.200 -53.783  14.266  1.00  0.00    -0.356 N 
HETATM    4  H   UNL     1     -43.489 -53.692  15.238  1.00  0.00     0.162 HD
HETATM    5  O   UNL     1     -44.003 -53.779  12.113  1.00  0.00    -0.273 OA
BRANCH   3   6
HETATM    6  C   UNL     1     -41.838 -53.418  13.893  1.00  0.00     0.084 C 
HETATM    7  C   UNL     1     -40.830 -54.430  14.448  1.00  0.00     0.025 C 
HETATM    8  C   UNL     1     -39.394 -54.071  14.066  1.00  0.00     0.002 C 
HETATM    9  C   UNL     1     -39.034 -52.641  14.463  1.00  0.00     0.004 C 
HETATM   10  C   UNL     1     -40.042 -51.602  13.948  1.00  0.00    -0.017 C 
HETATM   11  C   UNL     1     -39.909 -51.392  12.435  1.00  0.00     0.010 C 
HETATM   12  C   UNL     1     -41.476 -51.996  14.347  1.00  0.00     0.029 C 
ENDBRANCH   3   6
ENDBRANCH   1   2
BRANCH   1  13
HETATM   13  C   UNL     1     -46.107 -53.346  14.751  1.00  0.00     0.041 A 
HETATM   14  C   UNL     1     -46.667 -52.175  14.387  1.00  0.00     0.018 A 
HETATM   15  C   UNL     1     -46.800 -51.727  12.953  1.00  0.00     0.069 C 
HETATM   16  N   UNL     1     -47.176 -51.260  15.285  1.00  0.00    -0.349 N 
HETATM   17  C   UNL     1     -47.128 -51.547  16.540  1.00  0.00     0.080 A 
ATOM     18  HN  UNL     1     -47.579 -50.379  14.964  1.00  0.00     0.167 HD
HETATM   19  C   UNL     1     -47.663 -50.596  17.570  1.00  0.00     0.089 C 
HETATM   20  N   UNL     1     -46.608 -52.710  17.022  1.00  0.00    -0.313 N 
HETATM   21  C   UNL     1     -46.058 -53.646  16.203  1.00  0.00     0.255 A 
HETATM   22  H   UNL     1     -46.589 -52.908  18.012  1.00  0.00     0.170 HD
HETATM   23  O   UNL     1     -45.549 -54.676  16.638  1.00  0.00    -0.268 OA
ENDBRANCH   1  13
TORSDOF 3
ENDMDL
MODEL 4
REMARK VINA RESULT:      -5.9      3.859      6.626
REMARK  3 active torsions:
REMARK  status: ('A' for Active; 'I' for Inactive)
REMARK    1  A    between atoms: C_6  and  N_8 
REMARK       I    between atoms: N_8  and  C_9 
REMARK    2  A    between atoms: C_9  and  C_11 
REMARK    3  A    between atoms: C_11  and  C_12 
ROOT
HETATM    1  C   UNL     1     -40.405 -50.709  11.642  1.00  0.00     0.149 C 
ENDROOT
BRANCH   1   2
HETATM    2  C   UNL     1     -41.690 -51.105  12.351  1.00  0.00     0.222 C 
HETATM    3  N   UNL     1     -41.847 -52.462  12.553  1.00  0.00    -0.356 N 
HETATM    4  H   UNL     1     -41.276 -53.094  11.997  1.00  0.00     0.162 HD
HETATM    5  O   UNL     1     -42.506 -50.266  12.723  1.00  0.00    -0.273 OA
BRANCH   3   6
HETATM    6  C   UNL     1     -42.996 -52.993  13.278  1.00  0.00     0.084 C 
HETATM    7  C   UNL     1     -42.623 -54.281  14.022  1.00  0.00     0.025 C 
HETATM    8  C   UNL     1     -43.810 -54.856  14.795  1.00  0.00     0.002 C 
HETATM    9  C   UNL     1     -45.034 -55.055  13.903  1.00  0.00     0.004 C 
HETATM   10  C   UNL     1     -45.418 -53.791  13.118  1.00  0.00    -0.017 C 
HETATM   11  C   UNL     1     -46.048 -52.732  14.030  1.00  0.00     0.010 C 
HETATM   12  C   UNL     1     -44.199 -53.237  12.356  1.00  0.00     0.029 C 
ENDBRANCH   3   6
ENDBRANCH   1   2
BRANCH   1  13
HETATM   13  C   UNL     1     -39.451 -50.082  12.614  1.00  0.00     0.041 A 
HETATM   14  C   UNL     1     -39.257 -48.769  12.851  1.00  0.00     0.018 A 
HETATM   15  C   UNL     1     -40.004 -47.674  12.131  1.00  0.00     0.069 C 
HETATM   16  N   UNL     1     -38.353 -48.285  13.774  1.00  0.00    -0.349 N 
HETATM   17  C   UNL     1     -37.669 -49.134  14.460  1.00  0.00     0.080 A 
ATOM     18  HN  UNL     1     -38.230 -47.281  13.910  1.00  0.00     0.167 HD
HETATM   19  C   UNL     1     -36.668 -48.676  15.479  1.00  0.00     0.089 C 
HETATM   20  N   UNL     1     -37.799 -50.483  14.323  1.00  0.00    -0.313 N 
HETATM   21  C   UNL     1     -38.644 -51.036  13.412  1.00  0.00     0.255 A 
HETATM   22  H   UNL     1     -37.251 -51.123  14.879  1.00  0.00     0.170 HD
HETATM   23  O   UNL     1     -38.732 -52.251  13.256  1.00  0.00    -0.268 OA
ENDBRANCH   1  13
TORSDOF 3
ENDMDL
MODEL 5
REMARK VINA RESULT:      -5.8      4.606      6.590
REMARK  3 active torsions:
REMARK  status: ('A' for Active; 'I' for Inactive)
REMARK    1  A    between atoms: C_6  and  N_8 
REMARK       I    between atoms: N_8  and  C_9 
REMARK    2  A    between atoms: C_9  and  C_11 
REMARK    3  A    between atoms: C_11  and  C_12 
ROOT
HETATM    1  C   UNL     1     -40.967 -49.858  11.396  1.00  0.00     0.149 C 
ENDROOT
BRANCH   1   2
HETATM    2  C   UNL     1     -42.004 -50.193  12.456  1.00  0.00     0.222 C 
HETATM    3  N   UNL     1     -42.774 -51.307  12.182  1.00  0.00    -0.356 N 
HETATM    4  H   UNL     1     -42.799 -51.642  11.222  1.00  0.00     0.162 HD
HETATM    5  O   UNL     1     -42.121 -49.524  13.478  1.00  0.00    -0.273 OA
BRANCH   3   6
HETATM    6  C   UNL     1     -43.766 -51.796  13.133  1.00  0.00     0.084 C 
HETATM    7  C   UNL     1     -44.015 -53.296  12.938  1.00  0.00     0.025 C 
HETATM    8  C   UNL     1     -45.050 -53.834  13.926  1.00  0.00     0.002 C 
HETATM    9  C   UNL     1     -46.352 -53.036  13.886  1.00  0.00     0.004 C 
HETATM   10  C   UNL     1     -46.136 -51.524  14.048  1.00  0.00    -0.017 C 
HETATM   11  C   UNL     1     -45.763 -51.160  15.490  1.00  0.00     0.010 C 
HETATM   12  C   UNL     1     -45.087 -51.017  13.041  1.00  0.00     0.029 C 
ENDBRANCH   3   6
ENDBRANCH   1   2
BRANCH   1  13
HETATM   13  C   UNL     1     -40.724 -48.378  11.362  1.00  0.00     0.041 A 
HETATM   14  C   UNL     1     -39.812 -47.674  12.061  1.00  0.00     0.018 A 
HETATM   15  C   UNL     1     -38.849 -48.299  13.040  1.00  0.00     0.069 C 
HETATM   16  N   UNL     1     -39.661 -46.306  11.959  1.00  0.00    -0.349 N 
HETATM   17  C   UNL     1     -40.423 -45.669  11.138  1.00  0.00     0.080 A 
ATOM     18  HN  UNL     1     -38.965 -45.813  12.518  1.00  0.00     0.167 HD
HETATM   19  C   UNL     1     -40.313 -44.181  10.979  1.00  0.00     0.089 C 
HETATM   20  N   UNL     1     -41.363 -46.279  10.363  1.00  0.00    -0.313 N 
HETATM   21  C   UNL     1     -41.593 -47.618  10.431  1.00  0.00     0.255 A 
HETATM   22  H   UNL     1     -41.942 -45.752   9.726  1.00  0.00     0.170 HD
HETATM   23  O   UNL     1     -42.469 -48.164   9.766  1.00  0.00    -0.268 OA
ENDBRANCH   1  13
TORSDOF 3
ENDMDL
MODEL 6
REMARK VINA RESULT:      -5.8      4.401      5.810
REMARK  3 active torsions:
REMARK  status: ('A' for Active; 'I' for Inactive)
REMARK    1  A    between atoms: C_6  and  N_8 
REMARK       I    between atoms: N_8  and  C_9 
REMARK    2  A    between atoms: C_9  and  C_11 
REMARK    3  A    between atoms: C_11  and  C_12 
ROOT
HETATM    1  C   UNL     1     -41.844 -48.721  14.074  1.00  0.00     0.149 C 
ENDROOT
BRANCH   1   2
HETATM    2  C   UNL     1     -42.998 -49.380  14.813  1.00  0.00     0.222 C 
HETATM    3  N   UNL     1     -43.407 -50.591  14.290  1.00  0.00    -0.356 N 
HETATM    4  H   UNL     1     -43.127 -50.815  13.337  1.00  0.00     0.162 HD
HETATM    5  O   UNL     1     -43.504 -48.867  15.808  1.00  0.00    -0.273 OA
BRANCH   3   6
HETATM    6  C   UNL     1     -44.457 -51.377  14.926  1.00  0.00     0.084 C 
HETATM    7  C   UNL     1     -44.032 -52.843  15.068  1.00  0.00     0.025 C 
HETATM    8  C   UNL     1     -45.116 -53.687  15.737  1.00  0.00     0.002 C 
HETATM    9  C   UNL     1     -46.463 -53.559  15.030  1.00  0.00     0.004 C 
HETATM   10  C   UNL     1     -46.906 -52.100  14.842  1.00  0.00    -0.017 C 
HETATM   11  C   UNL     1     -47.356 -51.474  16.167  1.00  0.00     0.010 C 
HETATM   12  C   UNL     1     -45.791 -51.278  14.170  1.00  0.00     0.029 C 
ENDBRANCH   3   6
ENDBRANCH   1   2
BRANCH   1  13
HETATM   13  C   UNL     1     -42.329 -48.124  12.787  1.00  0.00     0.041 A 
HETATM   14  C   UNL     1     -42.945 -46.939  12.607  1.00  0.00     0.018 A 
HETATM   15  C   UNL     1     -43.263 -45.986  13.732  1.00  0.00     0.069 C 
HETATM   16  N   UNL     1     -43.355 -46.471  11.375  1.00  0.00    -0.349 N 
HETATM   17  C   UNL     1     -43.120 -47.199  10.338  1.00  0.00     0.080 A 
ATOM     18  HN  UNL     1     -43.830 -45.572  11.288  1.00  0.00     0.167 HD
HETATM   19  C   UNL     1     -43.539 -46.750   8.969  1.00  0.00     0.089 C 
HETATM   20  N   UNL     1     -42.483 -48.401  10.397  1.00  0.00    -0.313 N 
HETATM   21  C   UNL     1     -42.079 -48.944  11.577  1.00  0.00     0.255 A 
HETATM   22  H   UNL     1     -42.310 -48.946   9.565  1.00  0.00     0.170 HD
HETATM   23  O   UNL     1     -41.544 -50.048  11.639  1.00  0.00    -0.268 OA
ENDBRANCH   1  13
TORSDOF 3
ENDMDL
MODEL 7
REMARK VINA RESULT:      -5.8      2.655      3.751
REMARK  3 active torsions:
REMARK  status: ('A' for Active; 'I' for Inactive)
REMARK    1  A    between atoms: C_6  and  N_8 
REMARK       I    between atoms: N_8  and  C_9 
REMARK    2  A    between atoms: C_9  and  C_11 
REMARK    3  A    between atoms: C_11  and  C_12 
ROOT
HETATM    1  C   UNL     1     -41.391 -54.359  13.221  1.00  0.00     0.149 C 
ENDROOT
BRANCH   1   2
HETATM    2  C   UNL     1     -42.500 -54.106  14.229  1.00  0.00     0.222 C 
HETATM    3  N   UNL     1     -43.383 -53.103  13.882  1.00  0.00    -0.356 N 
HETATM    4  H   UNL     1     -43.092 -52.442  13.165  1.00  0.00     0.162 HD
HETATM    5  O   UNL     1     -42.597 -54.767  15.260  1.00  0.00    -0.273 OA
BRANCH   3   6
HETATM    6  C   UNL     1     -44.539 -52.787  14.714  1.00  0.00     0.084 C 
HETATM    7  C   UNL     1     -45.841 -53.196  14.017  1.00  0.00     0.025 C 
HETATM    8  C   UNL     1     -47.068 -52.879  14.872  1.00  0.00     0.002 C 
HETATM    9  C   UNL     1     -47.100 -51.417  15.311  1.00  0.00     0.004 C 
HETATM   10  C   UNL     1     -45.797 -50.964  15.987  1.00  0.00    -0.017 C 
HETATM   11  C   UNL     1     -45.658 -51.556  17.394  1.00  0.00     0.010 C 
HETATM   12  C   UNL     1     -44.583 -51.302  15.101  1.00  0.00     0.029 C 
ENDBRANCH   3   6
ENDBRANCH   1   2
BRANCH   1  13
HETATM   13  C   UNL     1     -40.402 -53.232  13.248  1.00  0.00     0.041 A 
HETATM   14  C   UNL     1     -39.350 -53.075  14.077  1.00  0.00     0.018 A 
HETATM   15  C   UNL     1     -38.993 -54.058  15.163  1.00  0.00     0.069 C 
HETATM   16  N   UNL     1     -38.490 -51.998  14.023  1.00  0.00    -0.349 N 
HETATM   17  C   UNL     1     -38.692 -51.101  13.120  1.00  0.00     0.080 A 
ATOM     18  HN  UNL     1     -37.714 -51.914  14.680  1.00  0.00     0.167 HD
HETATM   19  C   UNL     1     -37.794 -49.905  13.006  1.00  0.00     0.089 C 
HETATM   20  N   UNL     1     -39.708 -51.168  12.215  1.00  0.00    -0.313 N 
HETATM   21  C   UNL     1     -40.615 -52.180  12.225  1.00  0.00     0.255 A 
HETATM   22  H   UNL     1     -39.837 -50.450  11.516  1.00  0.00     0.170 HD
HETATM   23  O   UNL     1     -41.557 -52.220  11.437  1.00  0.00    -0.268 OA
ENDBRANCH   1  13
TORSDOF 3
ENDMDL
MODEL 8
REMARK VINA RESULT:      -5.8      5.233      7.683
REMARK  3 active torsions:
REMARK  status: ('A' for Active; 'I' for Inactive)
REMARK    1  A    between atoms: C_6  and  N_8 
REMARK       I    between atoms: N_8  and  C_9 
REMARK    2  A    between atoms: C_9  and  C_11 
REMARK    3  A    between atoms: C_11  and  C_12 
ROOT
HETATM    1  C   UNL     1     -40.683 -48.048  13.064  1.00  0.00     0.149 C 
ENDROOT
BRANCH   1   2
HETATM    2  C   UNL     1     -40.933 -49.397  13.719  1.00  0.00     0.222 C 
HETATM    3  N   UNL     1     -40.205 -50.443  13.188  1.00  0.00    -0.356 N 
HETATM    4  H   UNL     1     -39.793 -50.316  12.266  1.00  0.00     0.162 HD
HETATM    5  O   UNL     1     -41.712 -49.523  14.659  1.00  0.00    -0.273 OA
BRANCH   3   6
HETATM    6  C   UNL     1     -40.283 -51.786  13.752  1.00  0.00     0.084 C 
HETATM    7  C   UNL     1     -38.941 -52.199  14.366  1.00  0.00     0.025 C 
HETATM    8  C   UNL     1     -38.999 -53.603  14.968  1.00  0.00     0.002 C 
HETATM    9  C   UNL     1     -39.502 -54.639  13.965  1.00  0.00     0.004 C 
HETATM   10  C   UNL     1     -40.832 -54.241  13.307  1.00  0.00    -0.017 C 
HETATM   11  C   UNL     1     -42.006 -54.375  14.284  1.00  0.00     0.010 C 
HETATM   12  C   UNL     1     -40.739 -52.823  12.715  1.00  0.00     0.029 C 
ENDBRANCH   3   6
ENDBRANCH   1   2
BRANCH   1  13
HETATM   13  C   UNL     1     -41.762 -47.753  12.065  1.00  0.00     0.041 A 
HETATM   14  C   UNL     1     -42.821 -46.931  12.210  1.00  0.00     0.018 A 
HETATM   15  C   UNL     1     -43.099 -46.147  13.468  1.00  0.00     0.069 C 
HETATM   16  N   UNL     1     -43.765 -46.720  11.226  1.00  0.00    -0.349 N 
HETATM   17  C   UNL     1     -43.617 -47.330  10.100  1.00  0.00     0.080 A 
ATOM     18  HN  UNL     1     -44.558 -46.099  11.385  1.00  0.00     0.167 HD
HETATM   19  C   UNL     1     -44.607 -47.146   8.988  1.00  0.00     0.089 C 
HETATM   20  N   UNL     1     -42.574 -48.164   9.832  1.00  0.00    -0.313 N 
HETATM   21  C   UNL     1     -41.623 -48.447  10.761  1.00  0.00     0.255 A 
HETATM   22  H   UNL     1     -42.485 -48.623   8.937  1.00  0.00     0.170 HD
HETATM   23  O   UNL     1     -40.705 -49.232  10.538  1.00  0.00    -0.268 OA
ENDBRANCH   1  13
TORSDOF 3
ENDMDL
MODEL 9
REMARK VINA RESULT:      -5.7      7.380      9.331
REMARK  3 active torsions:
REMARK  status: ('A' for Active; 'I' for Inactive)
REMARK    1  A    between atoms: C_6  and  N_8 
REMARK       I    between atoms: N_8  and  C_9 
REMARK    2  A    between atoms: C_9  and  C_11 
REMARK    3  A    between atoms: C_11  and  C_12 
ROOT
HETATM    1  C   UNL     1     -40.502 -45.032  12.715  1.00  0.00     0.149 C 
ENDROOT
BRANCH   1   2
HETATM    2  C   UNL     1     -39.506 -46.064  13.218  1.00  0.00     0.222 C 
HETATM    3  N   UNL     1     -39.651 -47.325  12.672  1.00  0.00    -0.356 N 
HETATM    4  H   UNL     1     -40.535 -47.547  12.219  1.00  0.00     0.162 HD
HETATM    5  O   UNL     1     -38.635 -45.776  14.034  1.00  0.00    -0.273 OA
BRANCH   3   6
HETATM    6  C   UNL     1     -38.731 -48.406  13.004  1.00  0.00     0.084 C 
HETATM    7  C   UNL     1     -38.443 -49.274  11.773  1.00  0.00     0.025 C 
HETATM    8  C   UNL     1     -37.476 -50.413  12.094  1.00  0.00     0.002 C 
HETATM    9  C   UNL     1     -37.950 -51.254  13.278  1.00  0.00     0.004 C 
HETATM   10  C   UNL     1     -38.278 -50.411  14.520  1.00  0.00    -0.017 C 
HETATM   11  C   UNL     1     -37.005 -49.883  15.193  1.00  0.00     0.010 C 
HETATM   12  C   UNL     1     -39.249 -49.273  14.161  1.00  0.00     0.029 C 
ENDBRANCH   3   6
ENDBRANCH   1   2
BRANCH   1  13
HETATM   13  C   UNL     1     -41.526 -45.688  11.837  1.00  0.00     0.041 A 
HETATM   14  C   UNL     1     -42.654 -46.321  12.215  1.00  0.00     0.018 A 
HETATM   15  C   UNL     1     -43.077 -46.481  13.654  1.00  0.00     0.069 C 
HETATM   16  N   UNL     1     -43.542 -46.895  11.328  1.00  0.00    -0.349 N 
HETATM   17  C   UNL     1     -43.287 -46.805  10.068  1.00  0.00     0.080 A 
ATOM     18  HN  UNL     1     -44.377 -47.377  11.660  1.00  0.00     0.167 HD
HETATM   19  C   UNL     1     -44.210 -47.406   9.049  1.00  0.00     0.089 C 
HETATM   20  N   UNL     1     -42.191 -46.167   9.570  1.00  0.00    -0.313 N 
HETATM   21  C   UNL     1     -41.255 -45.607  10.381  1.00  0.00     0.255 A 
HETATM   22  H   UNL     1     -42.022 -46.110   8.576  1.00  0.00     0.170 HD
HETATM   23  O   UNL     1     -40.243 -45.069   9.937  1.00  0.00    -0.268 OA
ENDBRANCH   1  13
TORSDOF 3
ENDMDL
