MODEL 1
REMARK VINA RESULT:      -5.6      0.000      0.000
REMARK  5 active torsions:
REMARK  status: ('A' for Active; 'I' for Inactive)
REMARK    1  A    between atoms: N_2  and  C_4 
REMARK    2  A    between atoms: C_4  and  C_5 
REMARK       I    between atoms: C_5  and  N_7 
REMARK    3  A    between atoms: N_7  and  C_8 
REMARK    4  A    between atoms: C_8  and  C_9 
REMARK    5  A    between atoms: C_9  and  C_15 
ROOT
HETATM    1  C   UNL     1     -42.370 -47.199  10.642  1.00  0.00     0.003 C 
HETATM    2  C   UNL     1     -41.432 -46.018  10.250  1.00  0.00     0.016 C 
HETATM    3  C   UNL     1     -40.431 -45.642  11.347  1.00  0.00     0.001 C 
HETATM    4  C   UNL     1     -41.145 -45.265  12.638  1.00  0.00     0.000 C 
HETATM    5  C   UNL     1     -42.111 -46.353  13.089  1.00  0.00     0.001 C 
HETATM    6  C   UNL     1     -43.067 -46.787  11.977  1.00  0.00     0.016 C 
ENDROOT
BRANCH   1   7
HETATM    7  C   UNL     1     -41.531 -48.512  10.831  1.00  0.00     0.137 C 
BRANCH   7   8
HETATM    8  N   UNL     1     -42.235 -49.564  11.558  1.00  0.00    -0.359 N 
HETATM    9  C   UNL     1     -41.598 -50.415  12.436  1.00  0.00     0.246 C 
HETATM   10  O   UNL     1     -40.397 -50.340  12.690  1.00  0.00    -0.272 OA
HETATM   11  H   UNL     1     -43.220 -49.728  11.370  1.00  0.00     0.162 HD
BRANCH   9  12
HETATM   12  C   UNL     1     -42.494 -51.454  13.116  1.00  0.00     0.373 C 
BRANCH  12  13
HETATM   13  N   UNL     1     -42.520 -52.749  12.393  1.00  0.00     0.088 N 
HETATM   14  C   UNL     1     -41.647 -53.732  13.047  1.00  0.00     0.310 C 
HETATM   15  C   UNL     1     -43.894 -53.269  12.402  1.00  0.00     0.310 C 
ENDBRANCH  12  13
ENDBRANCH   9  12
ENDBRANCH   7   8
ENDBRANCH   1   7
BRANCH   1  16
HETATM   16  C   UNL     1     -43.473 -47.493   9.594  1.00  0.00    -0.045 A 
HETATM   17  C   UNL     1     -44.829 -47.417   9.958  1.00  0.00     0.025 A 
HETATM   18  C   UNL     1     -45.812 -47.749   9.037  1.00  0.00     0.088 A 
HETATM   19  N   UNL     1     -45.553 -48.138   7.776  1.00  0.00    -0.375 N 
HETATM   20  C   UNL     1     -44.252 -48.189   7.424  1.00  0.00     0.088 A 
ATOM     21  HN  UNL     1     -46.298 -48.381   7.123  1.00  0.00     0.164 HD
HETATM   22  C   UNL     1     -43.198 -47.879   8.275  1.00  0.00     0.025 A 
ENDBRANCH   1  16
TORSDOF 5
ENDMDL
MODEL 2
REMARK VINA RESULT:      -5.4      2.034      6.063
REMARK  5 active torsions:
REMARK  status: ('A' for Active; 'I' for Inactive)
REMARK    1  A    between atoms: N_2  and  C_4 
REMARK    2  A    between atoms: C_4  and  C_5 
REMARK       I    between atoms: C_5  and  N_7 
REMARK    3  A    between atoms: N_7  and  C_8 
REMARK    4  A    between atoms: C_8  and  C_9 
REMARK    5  A    between atoms: C_9  and  C_15 
ROOT
HETATM    1  C   UNL     1     -41.837 -52.507  13.271  1.00  0.00     0.003 C 
HETATM    2  C   UNL     1     -41.104 -51.707  14.390  1.00  0.00     0.016 C 
HETATM    3  C   UNL     1     -39.602 -51.997  14.467  1.00  0.00     0.001 C 
HETATM    4  C   UNL     1     -39.339 -53.479  14.700  1.00  0.00     0.000 C 
HETATM    5  C   UNL     1     -40.041 -54.348  13.664  1.00  0.00     0.001 C 
HETATM    6  C   UNL     1     -41.527 -54.015  13.529  1.00  0.00     0.016 C 
ENDROOT
BRANCH   1   7
HETATM    7  C   UNL     1     -41.311 -52.061  11.861  1.00  0.00     0.137 C 
BRANCH   7   8
HETATM    8  N   UNL     1     -41.589 -50.663  11.542  1.00  0.00    -0.359 N 
HETATM    9  C   UNL     1     -40.590 -49.729  11.363  1.00  0.00     0.246 C 
HETATM   10  O   UNL     1     -39.394 -50.003  11.438  1.00  0.00    -0.272 OA
HETATM   11  H   UNL     1     -42.551 -50.340  11.510  1.00  0.00     0.162 HD
BRANCH   9  12
HETATM   12  C   UNL     1     -41.065 -48.313  11.025  1.00  0.00     0.373 C 
BRANCH  12  13
HETATM   13  N   UNL     1     -42.541 -48.219  10.901  1.00  0.00     0.088 N 
HETATM   14  C   UNL     1     -43.094 -47.313  11.916  1.00  0.00     0.310 C 
HETATM   15  C   UNL     1     -42.871 -47.687   9.572  1.00  0.00     0.310 C 
ENDBRANCH  12  13
ENDBRANCH   9  12
ENDBRANCH   7   8
ENDBRANCH   1   7
BRANCH   1  16
HETATM   16  C   UNL     1     -43.375 -52.322  13.278  1.00  0.00    -0.045 A 
HETATM   17  C   UNL     1     -43.965 -51.359  14.116  1.00  0.00     0.025 A 
HETATM   18  C   UNL     1     -45.346 -51.244  14.172  1.00  0.00     0.088 A 
HETATM   19  N   UNL     1     -46.189 -52.003  13.448  1.00  0.00    -0.375 N 
HETATM   20  C   UNL     1     -45.619 -52.910  12.629  1.00  0.00     0.088 A 
ATOM     21  HN  UNL     1     -47.201 -51.898  13.515  1.00  0.00     0.164 HD
HETATM   22  C   UNL     1     -44.248 -53.102  12.508  1.00  0.00     0.025 A 
ENDBRANCH   1  16
TORSDOF 5
ENDMDL
MODEL 3
REMARK VINA RESULT:      -5.2      2.198      5.791
REMARK  5 active torsions:
REMARK  status: ('A' for Active; 'I' for Inactive)
REMARK    1  A    between atoms: N_2  and  C_4 
REMARK    2  A    between atoms: C_4  and  C_5 
REMARK       I    between atoms: C_5  and  N_7 
REMARK    3  A    between atoms: N_7  and  C_8 
REMARK    4  A    between atoms: C_8  and  C_9 
REMARK    5  A    between atoms: C_9  and  C_15 
ROOT
HETATM    1  C   UNL     1     -40.232 -50.210  12.742  1.00  0.00     0.003 C 
HETATM    2  C   UNL     1     -40.549 -49.002  13.674  1.00  0.00     0.016 C 
HETATM    3  C   UNL     1     -39.572 -47.833  13.514  1.00  0.00     0.001 C 
HETATM    4  C   UNL     1     -38.140 -48.273  13.786  1.00  0.00     0.000 C 
HETATM    5  C   UNL     1     -37.745 -49.473  12.935  1.00  0.00     0.001 C 
HETATM    6  C   UNL     1     -38.755 -50.618  13.032  1.00  0.00     0.016 C 
ENDROOT
BRANCH   1   7
HETATM    7  C   UNL     1     -40.413 -49.791  11.240  1.00  0.00     0.137 C 
BRANCH   7   8
HETATM    8  N   UNL     1     -41.746 -49.287  10.923  1.00  0.00    -0.359 N 
HETATM    9  C   UNL     1     -41.978 -47.979  10.552  1.00  0.00     0.246 C 
HETATM   10  O   UNL     1     -41.082 -47.145  10.439  1.00  0.00    -0.272 OA
HETATM   11  H   UNL     1     -42.551 -49.897  11.038  1.00  0.00     0.162 HD
BRANCH   9  12
HETATM   12  C   UNL     1     -43.438 -47.629  10.247  1.00  0.00     0.373 C 
BRANCH  12  13
HETATM   13  N   UNL     1     -43.596 -46.905   8.961  1.00  0.00     0.088 N 
HETATM   14  C   UNL     1     -43.509 -47.832   7.825  1.00  0.00     0.310 C 
HETATM   15  C   UNL     1     -44.918 -46.264   8.939  1.00  0.00     0.310 C 
ENDBRANCH  12  13
ENDBRANCH   9  12
ENDBRANCH   7   8
ENDBRANCH   1   7
BRANCH   1  16
HETATM   16  C   UNL     1     -41.133 -51.445  12.995  1.00  0.00    -0.045 A 
HETATM   17  C   UNL     1     -42.308 -51.316  13.756  1.00  0.00     0.025 A 
HETATM   18  C   UNL     1     -43.075 -52.436  14.041  1.00  0.00     0.088 A 
HETATM   19  N   UNL     1     -42.772 -53.676  13.615  1.00  0.00    -0.375 N 
HETATM   20  C   UNL     1     -41.657 -53.793  12.867  1.00  0.00     0.088 A 
ATOM     21  HN  UNL     1     -43.353 -54.481  13.846  1.00  0.00     0.164 HD
HETATM   22  C   UNL     1     -40.823 -52.731  12.533  1.00  0.00     0.025 A 
ENDBRANCH   1  16
TORSDOF 5
ENDMDL
MODEL 4
REMARK VINA RESULT:      -5.0      5.000      7.168
REMARK  5 active torsions:
REMARK  status: ('A' for Active; 'I' for Inactive)
REMARK    1  A    between atoms: N_2  and  C_4 
REMARK    2  A    between atoms: C_4  and  C_5 
REMARK       I    between atoms: C_5  and  N_7 
REMARK    3  A    between atoms: N_7  and  C_8 
REMARK    4  A    between atoms: C_8  and  C_9 
REMARK    5  A    between atoms: C_9  and  C_15 
ROOT
HETATM    1  C   UNL     1     -46.301 -51.288  16.747  1.00  0.00     0.003 C 
HETATM    2  C   UNL     1     -45.566 -50.252  17.649  1.00  0.00     0.016 C 
HETATM    3  C   UNL     1     -46.067 -50.238  19.097  1.00  0.00     0.001 C 
HETATM    4  C   UNL     1     -47.560 -49.940  19.159  1.00  0.00     0.000 C 
HETATM    5  C   UNL     1     -48.364 -50.890  18.282  1.00  0.00     0.001 C 
HETATM    6  C   UNL     1     -47.824 -50.967  16.852  1.00  0.00     0.016 C 
ENDROOT
BRANCH   1   7
HETATM    7  C   UNL     1     -46.000 -52.745  17.247  1.00  0.00     0.137 C 
BRANCH   7   8
HETATM    8  N   UNL     1     -44.647 -53.204  16.951  1.00  0.00    -0.359 N 
HETATM    9  C   UNL     1     -44.384 -54.204  16.039  1.00  0.00     0.246 C 
HETATM   10  O   UNL     1     -45.262 -54.770  15.392  1.00  0.00    -0.272 OA
HETATM   11  H   UNL     1     -43.865 -52.824  17.477  1.00  0.00     0.162 HD
BRANCH   9  12
HETATM   12  C   UNL     1     -42.904 -54.551  15.849  1.00  0.00     0.373 C 
BRANCH  12  13
HETATM   13  N   UNL     1     -42.199 -53.586  14.969  1.00  0.00     0.088 N 
HETATM   14  C   UNL     1     -40.783 -53.475  15.343  1.00  0.00     0.310 C 
HETATM   15  C   UNL     1     -42.278 -54.065  13.582  1.00  0.00     0.310 C 
ENDBRANCH  12  13
ENDBRANCH   9  12
ENDBRANCH   7   8
ENDBRANCH   1   7
BRANCH   1  16
HETATM   16  C   UNL     1     -45.895 -51.212  15.253  1.00  0.00    -0.045 A 
HETATM   17  C   UNL     1     -46.786 -51.653  14.258  1.00  0.00     0.025 A 
HETATM   18  C   UNL     1     -46.393 -51.650  12.927  1.00  0.00     0.088 A 
HETATM   19  N   UNL     1     -45.187 -51.228  12.506  1.00  0.00    -0.375 N 
HETATM   20  C   UNL     1     -44.344 -50.785  13.461  1.00  0.00     0.088 A 
ATOM     21  HN  UNL     1     -44.925 -51.243  11.521  1.00  0.00     0.164 HD
HETATM   22  C   UNL     1     -44.645 -50.754  14.817  1.00  0.00     0.025 A 
ENDBRANCH   1  16
TORSDOF 5
ENDMDL
MODEL 5
REMARK VINA RESULT:      -5.0      2.135      7.378
REMARK  5 active torsions:
REMARK  status: ('A' for Active; 'I' for Inactive)
REMARK    1  A    between atoms: N_2  and  C_4 
REMARK    2  A    between atoms: C_4  and  C_5 
REMARK       I    between atoms: C_5  and  N_7 
REMARK    3  A    between atoms: N_7  and  C_8 
REMARK    4  A    between atoms: C_8  and  C_9 
REMARK    5  A    between atoms: C_9  and  C_15 
ROOT
HETATM    1  C   UNL     1     -42.822 -53.010  13.396  1.00  0.00     0.003 C 
HETATM    2  C   UNL     1     -44.049 -53.917  13.080  1.00  0.00     0.016 C 
HETATM    3  C   UNL     1     -45.275 -53.139  12.588  1.00  0.00     0.001 C 
HETATM    4  C   UNL     1     -45.710 -52.097  13.610  1.00  0.00     0.000 C 
HETATM    5  C   UNL     1     -44.563 -51.175  14.004  1.00  0.00     0.001 C 
HETATM    6  C   UNL     1     -43.311 -51.945  14.426  1.00  0.00     0.016 C 
ENDROOT
BRANCH   1   7
HETATM    7  C   UNL     1     -42.310 -52.324  12.081  1.00  0.00     0.137 C 
BRANCH   7   8
HETATM    8  N   UNL     1     -42.349 -50.865  12.121  1.00  0.00    -0.359 N 
HETATM    9  C   UNL     1     -41.232 -50.085  11.910  1.00  0.00     0.246 C 
HETATM   10  O   UNL     1     -40.126 -50.554  11.652  1.00  0.00    -0.272 OA
HETATM   11  H   UNL     1     -43.214 -50.396  12.376  1.00  0.00     0.162 HD
BRANCH   9  12
HETATM   12  C   UNL     1     -41.461 -48.572  11.981  1.00  0.00     0.373 C 
BRANCH  12  13
HETATM   13  N   UNL     1     -41.229 -47.897  10.680  1.00  0.00     0.088 N 
HETATM   14  C   UNL     1     -42.475 -47.808   9.907  1.00  0.00     0.310 C 
HETATM   15  C   UNL     1     -40.742 -46.534  10.934  1.00  0.00     0.310 C 
ENDBRANCH  12  13
ENDBRANCH   9  12
ENDBRANCH   7   8
ENDBRANCH   1   7
BRANCH   1  16
HETATM   16  C   UNL     1     -41.628 -53.774  14.022  1.00  0.00    -0.045 A 
HETATM   17  C   UNL     1     -41.767 -54.389  15.279  1.00  0.00     0.025 A 
HETATM   18  C   UNL     1     -40.676 -55.012  15.868  1.00  0.00     0.088 A 
HETATM   19  N   UNL     1     -39.459 -55.084  15.299  1.00  0.00    -0.375 N 
HETATM   20  C   UNL     1     -39.336 -54.513  14.084  1.00  0.00     0.088 A 
ATOM     21  HN  UNL     1     -38.675 -55.544  15.760  1.00  0.00     0.164 HD
HETATM   22  C   UNL     1     -40.368 -53.863  13.415  1.00  0.00     0.025 A 
ENDBRANCH   1  16
TORSDOF 5
ENDMDL
MODEL 6
REMARK VINA RESULT:      -5.0      4.087      6.467
REMARK  5 active torsions:
REMARK  status: ('A' for Active; 'I' for Inactive)
REMARK    1  A    between atoms: N_2  and  C_4 
REMARK    2  A    between atoms: C_4  and  C_5 
REMARK       I    between atoms: C_5  and  N_7 
REMARK    3  A    between atoms: N_7  and  C_8 
REMARK    4  A    between atoms: C_8  and  C_9 
REMARK    5  A    between atoms: C_9  and  C_15 
ROOT
HETATM    1  C   UNL     1     -44.245 -51.975  14.045  1.00  0.00     0.003 C 
HETATM    2  C   UNL     1     -44.330 -51.080  15.318  1.00  0.00     0.016 C 
HETATM    3  C   UNL     1     -45.554 -51.373  16.191  1.00  0.00     0.001 C 
HETATM    4  C   UNL     1     -46.846 -51.195  15.404  1.00  0.00     0.000 C 
HETATM    5  C   UNL     1     -46.845 -52.015  14.120  1.00  0.00     0.001 C 
HETATM    6  C   UNL     1     -45.590 -51.783  13.277  1.00  0.00     0.016 C 
ENDROOT
BRANCH   1   7
HETATM    7  C   UNL     1     -44.043 -53.476  14.456  1.00  0.00     0.137 C 
BRANCH   7   8
HETATM    8  N   UNL     1     -42.910 -53.697  15.350  1.00  0.00    -0.359 N 
HETATM    9  C   UNL     1     -42.551 -54.950  15.799  1.00  0.00     0.246 C 
HETATM   10  O   UNL     1     -43.142 -55.976  15.467  1.00  0.00    -0.272 OA
HETATM   11  H   UNL     1     -42.398 -52.898  15.713  1.00  0.00     0.162 HD
BRANCH   9  12
HETATM   12  C   UNL     1     -41.331 -54.995  16.724  1.00  0.00     0.373 C 
BRANCH  12  13
HETATM   13  N   UNL     1     -40.149 -55.620  16.080  1.00  0.00     0.088 N 
HETATM   14  C   UNL     1     -39.265 -54.597  15.504  1.00  0.00     0.310 C 
HETATM   15  C   UNL     1     -39.396 -56.366  17.097  1.00  0.00     0.310 C 
ENDBRANCH  12  13
ENDBRANCH   9  12
ENDBRANCH   7   8
ENDBRANCH   1   7
BRANCH   1  16
HETATM   16  C   UNL     1     -43.086 -51.591  13.090  1.00  0.00    -0.045 A 
HETATM   17  C   UNL     1     -42.366 -52.595  12.417  1.00  0.00     0.025 A 
HETATM   18  C   UNL     1     -41.285 -52.253  11.617  1.00  0.00     0.088 A 
HETATM   19  N   UNL     1     -40.871 -50.988  11.423  1.00  0.00    -0.375 N 
HETATM   20  C   UNL     1     -41.577 -50.027  12.052  1.00  0.00     0.088 A 
ATOM     21  HN  UNL     1     -40.068 -50.769  10.833  1.00  0.00     0.164 HD
HETATM   22  C   UNL     1     -42.670 -50.270  12.875  1.00  0.00     0.025 A 
ENDBRANCH   1  16
TORSDOF 5
ENDMDL
MODEL 7
REMARK VINA RESULT:      -4.9      2.244      3.569
REMARK  5 active torsions:
REMARK  status: ('A' for Active; 'I' for Inactive)
REMARK    1  A    between atoms: N_2  and  C_4 
REMARK    2  A    between atoms: C_4  and  C_5 
REMARK       I    between atoms: C_5  and  N_7 
REMARK    3  A    between atoms: N_7  and  C_8 
REMARK    4  A    between atoms: C_8  and  C_9 
REMARK    5  A    between atoms: C_9  and  C_15 
ROOT
HETATM    1  C   UNL     1     -40.283 -49.071  11.955  1.00  0.00     0.003 C 
HETATM    2  C   UNL     1     -38.816 -48.948  11.444  1.00  0.00     0.016 C 
HETATM    3  C   UNL     1     -37.882 -50.026  12.002  1.00  0.00     0.001 C 
HETATM    4  C   UNL     1     -37.854 -49.997  13.524  1.00  0.00     0.000 C 
HETATM    5  C   UNL     1     -39.254 -50.085  14.118  1.00  0.00     0.001 C 
HETATM    6  C   UNL     1     -40.213 -49.059  13.513  1.00  0.00     0.016 C 
ENDROOT
BRANCH   1   7
HETATM    7  C   UNL     1     -40.922 -50.406  11.433  1.00  0.00     0.137 C 
BRANCH   7   8
HETATM    8  N   UNL     1     -42.156 -50.778  12.119  1.00  0.00    -0.359 N 
HETATM    9  C   UNL     1     -42.374 -52.044  12.622  1.00  0.00     0.246 C 
HETATM   10  O   UNL     1     -41.542 -52.946  12.551  1.00  0.00    -0.272 OA
HETATM   11  H   UNL     1     -42.917 -50.107  12.178  1.00  0.00     0.162 HD
BRANCH   9  12
HETATM   12  C   UNL     1     -43.722 -52.253  13.319  1.00  0.00     0.373 C 
BRANCH  12  13
HETATM   13  N   UNL     1     -44.620 -53.164  12.566  1.00  0.00     0.088 N 
HETATM   14  C   UNL     1     -44.787 -54.439  13.275  1.00  0.00     0.310 C 
HETATM   15  C   UNL     1     -45.938 -52.528  12.435  1.00  0.00     0.310 C 
ENDBRANCH  12  13
ENDBRANCH   9  12
ENDBRANCH   7   8
ENDBRANCH   1   7
BRANCH   1  16
HETATM   16  C   UNL     1     -41.200 -47.905  11.504  1.00  0.00    -0.045 A 
HETATM   17  C   UNL     1     -41.396 -46.798  12.348  1.00  0.00     0.025 A 
HETATM   18  C   UNL     1     -42.272 -45.789  11.973  1.00  0.00     0.088 A 
HETATM   19  N   UNL     1     -42.958 -45.788  10.816  1.00  0.00    -0.375 N 
HETATM   20  C   UNL     1     -42.750 -46.840   9.999  1.00  0.00     0.088 A 
ATOM     21  HN  UNL     1     -43.599 -45.034  10.571  1.00  0.00     0.164 HD
HETATM   22  C   UNL     1     -41.897 -47.899  10.289  1.00  0.00     0.025 A 
ENDBRANCH   1  16
TORSDOF 5
ENDMDL
MODEL 8
REMARK VINA RESULT:      -4.9      2.402      6.903
REMARK  5 active torsions:
REMARK  status: ('A' for Active; 'I' for Inactive)
REMARK    1  A    between atoms: N_2  and  C_4 
REMARK    2  A    between atoms: C_4  and  C_5 
REMARK       I    between atoms: C_5  and  N_7 
REMARK    3  A    between atoms: N_7  and  C_8 
REMARK    4  A    between atoms: C_8  and  C_9 
REMARK    5  A    between atoms: C_9  and  C_15 
ROOT
HETATM    1  C   UNL     1     -43.938 -51.660  13.968  1.00  0.00     0.003 C 
HETATM    2  C   UNL     1     -45.082 -51.999  12.965  1.00  0.00     0.016 C 
HETATM    3  C   UNL     1     -46.414 -51.321  13.303  1.00  0.00     0.001 C 
HETATM    4  C   UNL     1     -46.885 -51.702  14.700  1.00  0.00     0.000 C 
HETATM    5  C   UNL     1     -45.818 -51.430  15.752  1.00  0.00     0.001 C 
HETATM    6  C   UNL     1     -44.465 -52.042  15.386  1.00  0.00     0.016 C 
ENDROOT
BRANCH   1   7
HETATM    7  C   UNL     1     -43.594 -50.131  13.892  1.00  0.00     0.137 C 
BRANCH   7   8
HETATM    8  N   UNL     1     -43.377 -49.640  12.534  1.00  0.00    -0.359 N 
HETATM    9  C   UNL     1     -43.116 -48.315  12.255  1.00  0.00     0.246 C 
HETATM   10  O   UNL     1     -43.024 -47.452  13.126  1.00  0.00    -0.272 OA
HETATM   11  H   UNL     1     -43.483 -50.278  11.750  1.00  0.00     0.162 HD
BRANCH   9  12
HETATM   12  C   UNL     1     -42.905 -47.982  10.775  1.00  0.00     0.373 C 
BRANCH  12  13
HETATM   13  N   UNL     1     -42.790 -46.523  10.528  1.00  0.00     0.088 N 
HETATM   14  C   UNL     1     -41.381 -46.116  10.443  1.00  0.00     0.310 C 
HETATM   15  C   UNL     1     -43.444 -46.206   9.251  1.00  0.00     0.310 C 
ENDBRANCH  12  13
ENDBRANCH   9  12
ENDBRANCH   7   8
ENDBRANCH   1   7
BRANCH   1  16
HETATM   16  C   UNL     1     -42.629 -52.449  13.711  1.00  0.00    -0.045 A 
HETATM   17  C   UNL     1     -42.089 -52.512  12.414  1.00  0.00     0.025 A 
HETATM   18  C   UNL     1     -40.957 -53.276  12.173  1.00  0.00     0.088 A 
HETATM   19  N   UNL     1     -40.309 -53.972  13.125  1.00  0.00    -0.375 N 
HETATM   20  C   UNL     1     -40.817 -53.891  14.371  1.00  0.00     0.088 A 
ATOM     21  HN  UNL     1     -39.482 -54.530  12.915  1.00  0.00     0.164 HD
HETATM   22  C   UNL     1     -41.948 -53.156  14.709  1.00  0.00     0.025 A 
ENDBRANCH   1  16
TORSDOF 5
ENDMDL
MODEL 9
REMARK VINA RESULT:      -4.9      3.944      6.511
REMARK  5 active torsions:
REMARK  status: ('A' for Active; 'I' for Inactive)
REMARK    1  A    between atoms: N_2  and  C_4 
REMARK    2  A    between atoms: C_4  and  C_5 
REMARK       I    between atoms: C_5  and  N_7 
REMARK    3  A    between atoms: N_7  and  C_8 
REMARK    4  A    between atoms: C_8  and  C_9 
REMARK    5  A    between atoms: C_9  and  C_15 
ROOT
HETATM    1  C   UNL     1     -44.108 -52.235  14.232  1.00  0.00     0.003 C 
HETATM    2  C   UNL     1     -45.312 -51.247  14.189  1.00  0.00     0.016 C 
HETATM    3  C   UNL     1     -46.502 -51.693  15.045  1.00  0.00     0.001 C 
HETATM    4  C   UNL     1     -47.004 -53.065  14.614  1.00  0.00     0.000 C 
HETATM    5  C   UNL     1     -45.886 -54.099  14.599  1.00  0.00     0.001 C 
HETATM    6  C   UNL     1     -44.664 -53.630  13.807  1.00  0.00     0.016 C 
ENDROOT
BRANCH   1   7
HETATM    7  C   UNL     1     -43.509 -52.289  15.681  1.00  0.00     0.137 C 
BRANCH   7   8
HETATM    8  N   UNL     1     -42.591 -53.402  15.901  1.00  0.00    -0.359 N 
HETATM    9  C   UNL     1     -41.245 -53.220  16.138  1.00  0.00     0.246 C 
HETATM   10  O   UNL     1     -40.720 -52.110  16.204  1.00  0.00    -0.272 OA
HETATM   11  H   UNL     1     -42.932 -54.355  15.815  1.00  0.00     0.162 HD
BRANCH   9  12
HETATM   12  C   UNL     1     -40.434 -54.501  16.355  1.00  0.00     0.373 C 
BRANCH  12  13
HETATM   13  N   UNL     1     -39.105 -54.456  15.696  1.00  0.00     0.088 N 
HETATM   14  C   UNL     1     -38.245 -55.545  16.177  1.00  0.00     0.310 C 
HETATM   15  C   UNL     1     -39.290 -54.613  14.247  1.00  0.00     0.310 C 
ENDBRANCH  12  13
ENDBRANCH   9  12
ENDBRANCH   7   8
ENDBRANCH   1   7
BRANCH   1  16
HETATM   16  C   UNL     1     -42.958 -51.859  13.263  1.00  0.00    -0.045 A 
HETATM   17  C   UNL     1     -42.673 -50.507  13.000  1.00  0.00     0.025 A 
HETATM   18  C   UNL     1     -41.690 -50.173  12.079  1.00  0.00     0.088 A 
HETATM   19  N   UNL     1     -40.958 -51.081  11.408  1.00  0.00    -0.375 N 
HETATM   20  C   UNL     1     -41.218 -52.375  11.680  1.00  0.00     0.088 A 
ATOM     21  HN  UNL     1     -40.245 -50.804  10.733  1.00  0.00     0.164 HD
HETATM   22  C   UNL     1     -42.184 -52.807  12.581  1.00  0.00     0.025 A 
ENDBRANCH   1  16
TORSDOF 5
ENDMDL
