MODEL 1
REMARK VINA RESULT:      -6.2      0.000      0.000
REMARK  5 active torsions:
REMARK  status: ('A' for Active; 'I' for Inactive)
REMARK    1  A    between atoms: C_2  and  C_3 
REMARK    2  A    between atoms: C_2  and  N_16 
REMARK    3  A    between atoms: C_3  and  N_4 
REMARK       I    between atoms: N_4  and  C_5 
REMARK    4  A    between atoms: C_5  and  C_7 
REMARK    5  A    between atoms: C_7  and  N_9 
ROOT
HETATM    1  N   UNL     1     -43.084 -49.225  12.211  1.00  0.00    -0.357 N 
HETATM    2  C   UNL     1     -42.236 -48.581  11.331  1.00  0.00     0.242 C 
HETATM    3  O   UNL     1     -41.145 -49.046  11.008  1.00  0.00    -0.271 OA
HETATM    4  H   UNL     1     -44.003 -48.848  12.402  1.00  0.00     0.162 HD
ENDROOT
BRANCH   1   5
HETATM    5  C   UNL     1     -42.742 -50.559  12.671  1.00  0.00     0.158 C 
BRANCH   5   6
HETATM    6  C   UNL     1     -43.200 -50.976  14.103  1.00  0.00     0.236 C 
HETATM    7  C   UNL     1     -41.883 -51.146  14.899  1.00  0.00     0.044 C 
BRANCH   6   8
HETATM    8  N   UNL     1     -44.020 -52.222  14.180  1.00  0.00     0.094 N 
HETATM    9  C   UNL     1     -44.874 -52.509  13.016  1.00  0.00     0.273 C 
HETATM   10  C   UNL     1     -46.051 -51.539  12.861  1.00  0.00     0.031 C 
HETATM   11  C   UNL     1     -46.888 -51.444  14.138  1.00  0.00     0.007 C 
HETATM   12  C   UNL     1     -46.010 -51.263  15.383  1.00  0.00     0.010 C 
HETATM   13  C   UNL     1     -46.841 -51.369  16.661  1.00  0.00     0.011 C 
HETATM   14  C   UNL     1     -44.878 -52.305  15.383  1.00  0.00     0.277 C 
ENDBRANCH   6   8
ENDBRANCH   5   6
ENDBRANCH   1   5
BRANCH   2  15
HETATM   15  C   UNL     1     -42.756 -47.276  10.749  1.00  0.00     0.196 C 
HETATM   16  C   UNL     1     -41.617 -46.276  10.561  1.00  0.00     0.044 C 
BRANCH  15  17
HETATM   17  N   UNL     1     -43.438 -47.533   9.493  1.00  0.00    -0.273 N 
HETATM   18  C   UNL     1     -44.770 -47.455   9.221  1.00  0.00     0.202 A 
HETATM   19  N   UNL     1     -44.990 -47.845   7.985  1.00  0.00    -0.346 N 
HETATM   20  C   UNL     1     -43.739 -48.152   7.533  1.00  0.00     0.198 A 
ATOM     21  HN  UNL     1     -45.877 -47.904   7.487  1.00  0.00     0.167 HD
HETATM   22  N   UNL     1     -42.752 -47.969   8.414  1.00  0.00    -0.292 N 
ATOM     23  HN  UNL     1     -41.749 -48.119   8.302  1.00  0.00     0.188 HD
ENDBRANCH  15  17
ENDBRANCH   2  15
TORSDOF 5
ENDMDL
MODEL 2
REMARK VINA RESULT:      -6.1      3.173      4.085
REMARK  5 active torsions:
REMARK  status: ('A' for Active; 'I' for Inactive)
REMARK    1  A    between atoms: C_2  and  C_3 
REMARK    2  A    between atoms: C_2  and  N_16 
REMARK    3  A    between atoms: C_3  and  N_4 
REMARK       I    between atoms: N_4  and  C_5 
REMARK    4  A    between atoms: C_5  and  C_7 
REMARK    5  A    between atoms: C_7  and  N_9 
ROOT
HETATM    1  N   UNL     1     -42.621 -51.850  12.163  1.00  0.00    -0.357 N 
HETATM    2  C   UNL     1     -41.274 -51.639  11.943  1.00  0.00     0.242 C 
HETATM    3  O   UNL     1     -40.431 -52.516  12.126  1.00  0.00    -0.271 OA
HETATM    4  H   UNL     1     -43.293 -51.128  11.938  1.00  0.00     0.162 HD
ENDROOT
BRANCH   1   5
HETATM    5  C   UNL     1     -43.082 -53.187  12.491  1.00  0.00     0.158 C 
BRANCH   5   6
HETATM    6  C   UNL     1     -43.804 -53.394  13.857  1.00  0.00     0.236 C 
HETATM    7  C   UNL     1     -43.032 -54.552  14.535  1.00  0.00     0.044 C 
BRANCH   6   8
HETATM    8  N   UNL     1     -45.260 -53.717  13.774  1.00  0.00     0.094 N 
HETATM    9  C   UNL     1     -46.053 -52.898  12.844  1.00  0.00     0.273 C 
HETATM   10  C   UNL     1     -46.227 -51.443  13.297  1.00  0.00     0.031 C 
HETATM   11  C   UNL     1     -46.786 -51.348  14.717  1.00  0.00     0.007 C 
HETATM   12  C   UNL     1     -46.051 -52.284  15.685  1.00  0.00     0.010 C 
HETATM   13  C   UNL     1     -46.746 -52.324  17.045  1.00  0.00     0.011 C 
HETATM   14  C   UNL     1     -45.958 -53.696  15.080  1.00  0.00     0.277 C 
ENDBRANCH   6   8
ENDBRANCH   5   6
ENDBRANCH   1   5
BRANCH   2  15
HETATM   15  C   UNL     1     -40.898 -50.262  11.419  1.00  0.00     0.196 C 
HETATM   16  C   UNL     1     -41.848 -49.198  11.964  1.00  0.00     0.044 C 
BRANCH  15  17
HETATM   17  N   UNL     1     -39.521 -49.961  11.769  1.00  0.00    -0.273 N 
HETATM   18  C   UNL     1     -39.047 -49.346  12.888  1.00  0.00     0.202 A 
HETATM   19  N   UNL     1     -37.746 -49.191  12.786  1.00  0.00    -0.346 N 
HETATM   20  C   UNL     1     -37.465 -49.740  11.568  1.00  0.00     0.198 A 
ATOM     21  HN  UNL     1     -37.103 -48.764  13.454  1.00  0.00     0.167 HD
HETATM   22  N   UNL     1     -38.515 -50.235  10.909  1.00  0.00    -0.292 N 
ATOM     23  HN  UNL     1     -38.549 -50.696  10.000  1.00  0.00     0.188 HD
ENDBRANCH  15  17
ENDBRANCH   2  15
TORSDOF 5
ENDMDL
MODEL 3
REMARK VINA RESULT:      -5.9      2.982      3.626
REMARK  5 active torsions:
REMARK  status: ('A' for Active; 'I' for Inactive)
REMARK    1  A    between atoms: C_2  and  C_3 
REMARK    2  A    between atoms: C_2  and  N_16 
REMARK    3  A    between atoms: C_3  and  N_4 
REMARK       I    between atoms: N_4  and  C_5 
REMARK    4  A    between atoms: C_5  and  C_7 
REMARK    5  A    between atoms: C_7  and  N_9 
ROOT
HETATM    1  N   UNL     1     -42.178 -50.164  11.877  1.00  0.00    -0.357 N 
HETATM    2  C   UNL     1     -41.909 -48.881  11.440  1.00  0.00     0.242 C 
HETATM    3  O   UNL     1     -40.789 -48.533  11.071  1.00  0.00    -0.271 OA
HETATM    4  H   UNL     1     -43.124 -50.436  12.108  1.00  0.00     0.162 HD
ENDROOT
BRANCH   1   5
HETATM    5  C   UNL     1     -41.142 -51.177  11.775  1.00  0.00     0.158 C 
BRANCH   5   6
HETATM    6  C   UNL     1     -40.528 -51.727  13.098  1.00  0.00     0.236 C 
HETATM    7  C   UNL     1     -39.283 -50.840  13.347  1.00  0.00     0.044 C 
BRANCH   6   8
HETATM    8  N   UNL     1     -40.144 -53.170  13.079  1.00  0.00     0.094 N 
HETATM    9  C   UNL     1     -41.245 -54.131  12.902  1.00  0.00     0.273 C 
HETATM   10  C   UNL     1     -42.186 -54.220  14.109  1.00  0.00     0.031 C 
HETATM   11  C   UNL     1     -41.427 -54.497  15.408  1.00  0.00     0.007 C 
HETATM   12  C   UNL     1     -40.202 -53.585  15.560  1.00  0.00     0.010 C 
HETATM   13  C   UNL     1     -39.349 -54.006  16.755  1.00  0.00     0.011 C 
HETATM   14  C   UNL     1     -39.371 -53.604  14.265  1.00  0.00     0.277 C 
ENDBRANCH   6   8
ENDBRANCH   5   6
ENDBRANCH   1   5
BRANCH   2  15
HETATM   15  C   UNL     1     -43.097 -47.934  11.402  1.00  0.00     0.196 C 
HETATM   16  C   UNL     1     -42.737 -46.589  12.031  1.00  0.00     0.044 C 
BRANCH  15  17
HETATM   17  N   UNL     1     -43.549 -47.766  10.032  1.00  0.00    -0.273 N 
HETATM   18  C   UNL     1     -44.789 -47.422   9.586  1.00  0.00     0.202 A 
HETATM   19  N   UNL     1     -44.808 -47.455   8.272  1.00  0.00    -0.346 N 
HETATM   20  C   UNL     1     -43.533 -47.827   7.956  1.00  0.00     0.198 A 
ATOM     21  HN  UNL     1     -45.585 -47.253   7.643  1.00  0.00     0.167 HD
HETATM   22  N   UNL     1     -42.719 -48.020   8.996  1.00  0.00    -0.292 N 
ATOM     23  HN  UNL     1     -41.735 -48.287   9.007  1.00  0.00     0.188 HD
ENDBRANCH  15  17
ENDBRANCH   2  15
TORSDOF 5
ENDMDL
MODEL 4
REMARK VINA RESULT:      -5.9      1.758      3.034
REMARK  5 active torsions:
REMARK  status: ('A' for Active; 'I' for Inactive)
REMARK    1  A    between atoms: C_2  and  C_3 
REMARK    2  A    between atoms: C_2  and  N_16 
REMARK    3  A    between atoms: C_3  and  N_4 
REMARK       I    between atoms: N_4  and  C_5 
REMARK    4  A    between atoms: C_5  and  C_7 
REMARK    5  A    between atoms: C_7  and  N_9 
ROOT
HETATM    1  N   UNL     1     -42.832 -49.108  11.880  1.00  0.00    -0.357 N 
HETATM    2  C   UNL     1     -42.279 -48.103  11.109  1.00  0.00     0.242 C 
HETATM    3  O   UNL     1     -41.077 -48.058  10.851  1.00  0.00    -0.271 OA
HETATM    4  H   UNL     1     -43.833 -49.153  12.016  1.00  0.00     0.162 HD
ENDROOT
BRANCH   1   5
HETATM    5  C   UNL     1     -41.998 -50.223  12.291  1.00  0.00     0.158 C 
BRANCH   5   6
HETATM    6  C   UNL     1     -42.656 -51.351  13.143  1.00  0.00     0.236 C 
HETATM    7  C   UNL     1     -44.099 -50.851  13.402  1.00  0.00     0.044 C 
BRANCH   6   8
HETATM    8  N   UNL     1     -41.975 -51.664  14.435  1.00  0.00     0.094 N 
HETATM    9  C   UNL     1     -40.520 -51.879  14.364  1.00  0.00     0.273 C 
HETATM   10  C   UNL     1     -40.122 -53.172  13.642  1.00  0.00     0.031 C 
HETATM   11  C   UNL     1     -40.825 -54.397  14.231  1.00  0.00     0.007 C 
HETATM   12  C   UNL     1     -42.327 -54.155  14.425  1.00  0.00     0.010 C 
HETATM   13  C   UNL     1     -42.974 -55.307  15.193  1.00  0.00     0.011 C 
HETATM   14  C   UNL     1     -42.553 -52.820  15.156  1.00  0.00     0.277 C 
ENDBRANCH   6   8
ENDBRANCH   5   6
ENDBRANCH   1   5
BRANCH   2  15
HETATM   15  C   UNL     1     -43.257 -47.077  10.562  1.00  0.00     0.196 C 
HETATM   16  C   UNL     1     -42.602 -45.700  10.472  1.00  0.00     0.044 C 
BRANCH  15  17
HETATM   17  N   UNL     1     -43.747 -47.507   9.264  1.00  0.00    -0.273 N 
HETATM   18  C   UNL     1     -45.037 -47.643   8.849  1.00  0.00     0.202 A 
HETATM   19  N   UNL     1     -45.058 -48.134   7.631  1.00  0.00    -0.346 N 
HETATM   20  C   UNL     1     -43.733 -48.281   7.337  1.00  0.00     0.198 A 
ATOM     21  HN  UNL     1     -45.866 -48.353   7.048  1.00  0.00     0.167 HD
HETATM   22  N   UNL     1     -42.889 -47.902   8.299  1.00  0.00    -0.292 N 
ATOM     23  HN  UNL     1     -41.869 -47.909   8.305  1.00  0.00     0.188 HD
ENDBRANCH  15  17
ENDBRANCH   2  15
TORSDOF 5
ENDMDL
MODEL 5
REMARK VINA RESULT:      -5.8      1.617      2.431
REMARK  5 active torsions:
REMARK  status: ('A' for Active; 'I' for Inactive)
REMARK    1  A    between atoms: C_2  and  C_3 
REMARK    2  A    between atoms: C_2  and  N_16 
REMARK    3  A    between atoms: C_3  and  N_4 
REMARK       I    between atoms: N_4  and  C_5 
REMARK    4  A    between atoms: C_5  and  C_7 
REMARK    5  A    between atoms: C_7  and  N_9 
ROOT
HETATM    1  N   UNL     1     -42.645 -49.609  11.775  1.00  0.00    -0.357 N 
HETATM    2  C   UNL     1     -41.607 -48.827  11.307  1.00  0.00     0.242 C 
HETATM    3  O   UNL     1     -40.443 -48.991  11.668  1.00  0.00    -0.271 OA
HETATM    4  H   UNL     1     -43.579 -49.491  11.406  1.00  0.00     0.162 HD
ENDROOT
BRANCH   1   5
HETATM    5  C   UNL     1     -42.343 -50.752  12.618  1.00  0.00     0.158 C 
BRANCH   5   6
HETATM    6  C   UNL     1     -43.117 -50.889  13.965  1.00  0.00     0.236 C 
HETATM    7  C   UNL     1     -42.022 -50.795  15.056  1.00  0.00     0.044 C 
BRANCH   6   8
HETATM    8  N   UNL     1     -43.908 -52.146  14.128  1.00  0.00     0.094 N 
HETATM    9  C   UNL     1     -44.792 -52.505  13.008  1.00  0.00     0.273 C 
HETATM   10  C   UNL     1     -45.994 -51.566  12.845  1.00  0.00     0.031 C 
HETATM   11  C   UNL     1     -46.791 -51.425  14.143  1.00  0.00     0.007 C 
HETATM   12  C   UNL     1     -45.879 -51.167  15.348  1.00  0.00     0.010 C 
HETATM   13  C   UNL     1     -46.667 -51.227  16.656  1.00  0.00     0.011 C 
HETATM   14  C   UNL     1     -44.726 -52.187  15.361  1.00  0.00     0.277 C 
ENDBRANCH   6   8
ENDBRANCH   5   6
ENDBRANCH   1   5
BRANCH   2  15
HETATM   15  C   UNL     1     -41.987 -47.771  10.281  1.00  0.00     0.196 C 
HETATM   16  C   UNL     1     -43.504 -47.613  10.204  1.00  0.00     0.044 C 
BRANCH  15  17
HETATM   17  N   UNL     1     -41.346 -46.510  10.611  1.00  0.00    -0.273 N 
HETATM   18  C   UNL     1     -41.905 -45.395  11.158  1.00  0.00     0.202 A 
HETATM   19  N   UNL     1     -41.005 -44.440  11.225  1.00  0.00    -0.346 N 
HETATM   20  C   UNL     1     -39.891 -45.031  10.702  1.00  0.00     0.198 A 
ATOM     21  HN  UNL     1     -41.112 -43.490  11.580  1.00  0.00     0.167 HD
HETATM   22  N   UNL     1     -40.044 -46.301  10.320  1.00  0.00    -0.292 N 
ATOM     23  HN  UNL     1     -39.361 -46.942   9.916  1.00  0.00     0.188 HD
ENDBRANCH  15  17
ENDBRANCH   2  15
TORSDOF 5
ENDMDL
MODEL 6
REMARK VINA RESULT:      -5.6      3.797      5.013
REMARK  5 active torsions:
REMARK  status: ('A' for Active; 'I' for Inactive)
REMARK    1  A    between atoms: C_2  and  C_3 
REMARK    2  A    between atoms: C_2  and  N_16 
REMARK    3  A    between atoms: C_3  and  N_4 
REMARK       I    between atoms: N_4  and  C_5 
REMARK    4  A    between atoms: C_5  and  C_7 
REMARK    5  A    between atoms: C_7  and  N_9 
ROOT
HETATM    1  N   UNL     1     -41.150 -52.320  14.991  1.00  0.00    -0.357 N 
HETATM    2  C   UNL     1     -40.112 -52.160  14.093  1.00  0.00     0.242 C 
HETATM    3  O   UNL     1     -39.867 -52.986  13.215  1.00  0.00    -0.271 OA
HETATM    4  H   UNL     1     -41.366 -51.589  15.655  1.00  0.00     0.162 HD
ENDROOT
BRANCH   1   5
HETATM    5  C   UNL     1     -42.069 -53.431  14.817  1.00  0.00     0.158 C 
BRANCH   5   6
HETATM    6  C   UNL     1     -43.495 -53.117  14.269  1.00  0.00     0.236 C 
HETATM    7  C   UNL     1     -43.526 -53.773  12.866  1.00  0.00     0.044 C 
BRANCH   6   8
HETATM    8  N   UNL     1     -43.845 -51.668  14.174  1.00  0.00     0.094 N 
HETATM    9  C   UNL     1     -44.449 -51.068  15.375  1.00  0.00     0.273 C 
HETATM   10  C   UNL     1     -45.870 -51.569  15.666  1.00  0.00     0.031 C 
HETATM   11  C   UNL     1     -46.792 -51.411  14.455  1.00  0.00     0.007 C 
HETATM   12  C   UNL     1     -46.136 -51.922  13.167  1.00  0.00     0.010 C 
HETATM   13  C   UNL     1     -46.985 -51.578  11.944  1.00  0.00     0.011 C 
HETATM   14  C   UNL     1     -44.721 -51.333  13.029  1.00  0.00     0.277 C 
ENDBRANCH   6   8
ENDBRANCH   5   6
ENDBRANCH   1   5
BRANCH   2  15
HETATM   15  C   UNL     1     -39.314 -50.873  14.229  1.00  0.00     0.196 C 
HETATM   16  C   UNL     1     -38.256 -51.006  15.323  1.00  0.00     0.044 C 
BRANCH  15  17
HETATM   17  N   UNL     1     -38.706 -50.534  12.954  1.00  0.00    -0.273 N 
HETATM   18  C   UNL     1     -39.266 -49.883  11.897  1.00  0.00     0.202 A 
HETATM   19  N   UNL     1     -38.409 -49.844  10.901  1.00  0.00    -0.346 N 
HETATM   20  C   UNL     1     -37.320 -50.492  11.408  1.00  0.00     0.198 A 
ATOM     21  HN  UNL     1     -38.529 -49.432   9.976  1.00  0.00     0.167 HD
HETATM   22  N   UNL     1     -37.446 -50.925  12.664  1.00  0.00    -0.292 N 
ATOM     23  HN  UNL     1     -36.772 -51.419  13.249  1.00  0.00     0.188 HD
ENDBRANCH  15  17
ENDBRANCH   2  15
TORSDOF 5
ENDMDL
MODEL 7
REMARK VINA RESULT:      -5.5      3.957      5.334
REMARK  5 active torsions:
REMARK  status: ('A' for Active; 'I' for Inactive)
REMARK    1  A    between atoms: C_2  and  C_3 
REMARK    2  A    between atoms: C_2  and  N_16 
REMARK    3  A    between atoms: C_3  and  N_4 
REMARK       I    between atoms: N_4  and  C_5 
REMARK    4  A    between atoms: C_5  and  C_7 
REMARK    5  A    between atoms: C_7  and  N_9 
ROOT
HETATM    1  N   UNL     1     -41.072 -48.648  10.587  1.00  0.00    -0.357 N 
HETATM    2  C   UNL     1     -42.344 -48.420  11.076  1.00  0.00     0.242 C 
HETATM    3  O   UNL     1     -42.851 -49.125  11.947  1.00  0.00    -0.271 OA
HETATM    4  H   UNL     1     -40.660 -48.008   9.920  1.00  0.00     0.162 HD
ENDROOT
BRANCH   1   5
HETATM    5  C   UNL     1     -40.248 -49.668  11.210  1.00  0.00     0.158 C 
BRANCH   5   6
HETATM    6  C   UNL     1     -39.147 -49.204  12.212  1.00  0.00     0.236 C 
HETATM    7  C   UNL     1     -37.986 -50.209  12.007  1.00  0.00     0.044 C 
BRANCH   6   8
HETATM    8  N   UNL     1     -39.556 -49.168  13.648  1.00  0.00     0.094 N 
HETATM    9  C   UNL     1     -40.458 -48.071  14.037  1.00  0.00     0.273 C 
HETATM   10  C   UNL     1     -39.794 -46.689  14.013  1.00  0.00     0.031 C 
HETATM   11  C   UNL     1     -38.509 -46.656  14.842  1.00  0.00     0.007 C 
HETATM   12  C   UNL     1     -37.603 -47.857  14.540  1.00  0.00     0.010 C 
HETATM   13  C   UNL     1     -36.426 -47.915  15.512  1.00  0.00     0.011 C 
HETATM   14  C   UNL     1     -38.421 -49.159  14.598  1.00  0.00     0.277 C 
ENDBRANCH   6   8
ENDBRANCH   5   6
ENDBRANCH   1   5
BRANCH   2  15
HETATM   15  C   UNL     1     -43.067 -47.213  10.500  1.00  0.00     0.196 C 
HETATM   16  C   UNL     1     -42.067 -46.194   9.954  1.00  0.00     0.044 C 
BRANCH  15  17
HETATM   17  N   UNL     1     -43.993 -47.641   9.466  1.00  0.00    -0.273 N 
HETATM   18  C   UNL     1     -43.779 -47.738   8.125  1.00  0.00     0.202 A 
HETATM   19  N   UNL     1     -44.896 -48.087   7.526  1.00  0.00    -0.346 N 
HETATM   20  C   UNL     1     -45.778 -48.198   8.562  1.00  0.00     0.198 A 
ATOM     21  HN  UNL     1     -45.062 -48.238   6.531  1.00  0.00     0.167 HD
HETATM   22  N   UNL     1     -45.274 -47.945   9.772  1.00  0.00    -0.292 N 
ATOM     23  HN  UNL     1     -45.732 -47.974  10.682  1.00  0.00     0.188 HD
ENDBRANCH  15  17
ENDBRANCH   2  15
TORSDOF 5
ENDMDL
MODEL 8
REMARK VINA RESULT:      -5.5      2.176      2.959
REMARK  5 active torsions:
REMARK  status: ('A' for Active; 'I' for Inactive)
REMARK    1  A    between atoms: C_2  and  C_3 
REMARK    2  A    between atoms: C_2  and  N_16 
REMARK    3  A    between atoms: C_3  and  N_4 
REMARK       I    between atoms: N_4  and  C_5 
REMARK    4  A    between atoms: C_5  and  C_7 
REMARK    5  A    between atoms: C_7  and  N_9 
ROOT
HETATM    1  N   UNL     1     -41.009 -50.814  13.797  1.00  0.00    -0.357 N 
HETATM    2  C   UNL     1     -40.073 -50.893  12.784  1.00  0.00     0.242 C 
HETATM    3  O   UNL     1     -39.848 -51.937  12.175  1.00  0.00    -0.271 OA
HETATM    4  H   UNL     1     -41.218 -49.925  14.230  1.00  0.00     0.162 HD
ENDROOT
BRANCH   1   5
HETATM    5  C   UNL     1     -41.854 -51.964  14.069  1.00  0.00     0.158 C 
BRANCH   5   6
HETATM    6  C   UNL     1     -43.171 -51.727  14.869  1.00  0.00     0.236 C 
HETATM    7  C   UNL     1     -42.720 -51.646  16.348  1.00  0.00     0.044 C 
BRANCH   6   8
HETATM    8  N   UNL     1     -44.223 -52.774  14.701  1.00  0.00     0.094 N 
HETATM    9  C   UNL     1     -44.797 -52.907  13.352  1.00  0.00     0.273 C 
HETATM   10  C   UNL     1     -45.671 -51.718  12.934  1.00  0.00     0.031 C 
HETATM   11  C   UNL     1     -46.763 -51.420  13.963  1.00  0.00     0.007 C 
HETATM   12  C   UNL     1     -46.210 -51.394  15.393  1.00  0.00     0.010 C 
HETATM   13  C   UNL     1     -47.339 -51.294  16.417  1.00  0.00     0.011 C 
HETATM   14  C   UNL     1     -45.354 -52.648  15.648  1.00  0.00     0.277 C 
ENDBRANCH   6   8
ENDBRANCH   5   6
ENDBRANCH   1   5
BRANCH   2  15
HETATM   15  C   UNL     1     -39.366 -49.593  12.436  1.00  0.00     0.196 C 
HETATM   16  C   UNL     1     -38.054 -49.870  11.705  1.00  0.00     0.044 C 
BRANCH  15  17
HETATM   17  N   UNL     1     -40.242 -48.754  11.637  1.00  0.00    -0.273 N 
HETATM   18  C   UNL     1     -40.461 -47.415  11.744  1.00  0.00     0.202 A 
HETATM   19  N   UNL     1     -41.387 -47.050  10.887  1.00  0.00    -0.346 N 
HETATM   20  C   UNL     1     -41.706 -48.222  10.263  1.00  0.00     0.198 A 
ATOM     21  HN  UNL     1     -41.773 -46.120  10.726  1.00  0.00     0.167 HD
HETATM   22  N   UNL     1     -41.027 -49.293  10.679  1.00  0.00    -0.292 N 
ATOM     23  HN  UNL     1     -41.084 -50.260  10.358  1.00  0.00     0.188 HD
ENDBRANCH  15  17
ENDBRANCH   2  15
TORSDOF 5
ENDMDL
MODEL 9
REMARK VINA RESULT:      -5.4      4.114      6.700
REMARK  5 active torsions:
REMARK  status: ('A' for Active; 'I' for Inactive)
REMARK    1  A    between atoms: C_2  and  C_3 
REMARK    2  A    between atoms: C_2  and  N_16 
REMARK    3  A    between atoms: C_3  and  N_4 
REMARK       I    between atoms: N_4  and  C_5 
REMARK    4  A    between atoms: C_5  and  C_7 
REMARK    5  A    between atoms: C_7  and  N_9 
ROOT
HETATM    1  N   UNL     1     -41.845 -54.207  13.499  1.00  0.00    -0.357 N 
HETATM    2  C   UNL     1     -42.883 -53.551  12.866  1.00  0.00     0.242 C 
HETATM    3  O   UNL     1     -42.695 -52.628  12.076  1.00  0.00    -0.271 OA
HETATM    4  H   UNL     1     -42.032 -55.006  14.089  1.00  0.00     0.162 HD
ENDROOT
BRANCH   1   5
HETATM    5  C   UNL     1     -40.478 -53.891  13.125  1.00  0.00     0.158 C 
BRANCH   5   6
HETATM    6  C   UNL     1     -39.659 -52.964  14.074  1.00  0.00     0.236 C 
HETATM    7  C   UNL     1     -39.938 -53.515  15.494  1.00  0.00     0.044 C 
BRANCH   6   8
HETATM    8  N   UNL     1     -39.996 -51.510  14.004  1.00  0.00     0.094 N 
HETATM    9  C   UNL     1     -39.827 -50.869  12.690  1.00  0.00     0.273 C 
HETATM   10  C   UNL     1     -38.362 -50.726  12.258  1.00  0.00     0.031 C 
HETATM   11  C   UNL     1     -37.517 -50.020  13.320  1.00  0.00     0.007 C 
HETATM   12  C   UNL     1     -37.765 -50.594  14.721  1.00  0.00     0.010 C 
HETATM   13  C   UNL     1     -37.069 -49.753  15.790  1.00  0.00     0.011 C 
HETATM   14  C   UNL     1     -39.278 -50.677  14.994  1.00  0.00     0.277 C 
ENDBRANCH   6   8
ENDBRANCH   5   6
ENDBRANCH   1   5
BRANCH   2  15
HETATM   15  C   UNL     1     -44.278 -54.072  13.173  1.00  0.00     0.196 C 
HETATM   16  C   UNL     1     -44.288 -54.849  14.488  1.00  0.00     0.044 C 
BRANCH  15  17
HETATM   17  N   UNL     1     -45.219 -52.967  13.212  1.00  0.00    -0.273 N 
HETATM   18  C   UNL     1     -45.742 -52.339  14.302  1.00  0.00     0.202 A 
HETATM   19  N   UNL     1     -46.618 -51.440  13.913  1.00  0.00    -0.346 N 
HETATM   20  C   UNL     1     -46.592 -51.555  12.553  1.00  0.00     0.198 A 
ATOM     21  HN  UNL     1     -47.181 -50.812  14.487  1.00  0.00     0.167 HD
HETATM   22  N   UNL     1     -45.745 -52.468  12.072  1.00  0.00    -0.292 N 
ATOM     23  HN  UNL     1     -45.547 -52.721  11.104  1.00  0.00     0.188 HD
ENDBRANCH  15  17
ENDBRANCH   2  15
TORSDOF 5
ENDMDL
