MODEL 1
REMARK VINA RESULT:      -6.5      0.000      0.000
REMARK  4 active torsions:
REMARK  status: ('A' for Active; 'I' for Inactive)
REMARK    1  A    between atoms: C_2  and  C_4 
REMARK    2  A    between atoms: C_4  and  N_5 
REMARK       I    between atoms: N_5  and  C_6 
REMARK       I    between atoms: C_6  and  N_8 
REMARK    3  A    between atoms: N_8  and  C_9 
REMARK    4  A    between atoms: C_12  and  C_16 
REMARK       I    between atoms: C_16  and  N_18 
ROOT
HETATM    1  C   UNL     1     -40.764 -49.331  11.099  1.00  0.00     0.051 A 
HETATM    2  C   UNL     1     -41.843 -48.552  10.696  1.00  0.00     0.033 A 
HETATM    3  C   UNL     1     -41.692 -47.166  10.634  1.00  0.00     0.037 A 
HETATM    4  C   UNL     1     -40.488 -46.592  11.041  1.00  0.00     0.100 A 
HETATM    5  N   UNL     1     -39.445 -47.325  11.504  1.00  0.00    -0.359 N 
ATOM      6  HN  UNL     1     -38.584 -46.886  11.830  1.00  0.00     0.165 HD
HETATM    7  C   UNL     1     -39.606 -48.673  11.512  1.00  0.00     0.118 A 
ENDROOT
BRANCH   1   8
HETATM    8  N   UNL     1     -40.866 -50.737  11.003  1.00  0.00    -0.308 N 
HETATM    9  C   UNL     1     -41.131 -51.503  12.122  1.00  0.00     0.321 C 
HETATM   10  N   UNL     1     -40.998 -52.846  11.850  1.00  0.00    -0.339 N 
HETATM   11  O   UNL     1     -41.373 -51.068  13.239  1.00  0.00    -0.247 OA
HETATM   12  H   UNL     1     -41.438 -53.141  10.991  1.00  0.00     0.164 HD
HETATM   13  H   UNL     1     -40.239 -51.195  10.356  1.00  0.00     0.170 HD
BRANCH  10  14
HETATM   14  C   UNL     1     -41.072 -53.775  12.954  1.00  0.00     0.157 C 
BRANCH  14  15
HETATM   15  C   UNL     1     -42.499 -54.074  13.353  1.00  0.00    -0.075 C 
HETATM   16  C   UNL     1     -42.616 -54.757  14.692  1.00  0.00     0.044 C 
HETATM   17  C   UNL     1     -43.600 -53.820  12.622  1.00  0.00     0.015 C 
ENDBRANCH  14  15
ENDBRANCH  10  14
ENDBRANCH   1   8
BRANCH   4  18
HETATM   18  C   UNL     1     -40.304 -45.118  10.831  1.00  0.00     0.270 C 
HETATM   19  O   UNL     1     -39.880 -44.766   9.724  1.00  0.00    -0.266 OA
HETATM   20  N   UNL     1     -40.602 -44.188  11.833  1.00  0.00    -0.347 N 
HETATM   21  C   UNL     1     -41.367 -44.447  13.051  1.00  0.00     0.126 C 
HETATM   22  C   UNL     1     -40.370 -42.770  11.559  1.00  0.00     0.126 C 
HETATM   23  C   UNL     1     -42.726 -43.747  12.975  1.00  0.00     0.020 C 
HETATM   24  C   UNL     1     -42.568 -42.256  12.689  1.00  0.00     0.003 C 
HETATM   25  C   UNL     1     -41.697 -42.019  11.455  1.00  0.00     0.020 C 
ENDBRANCH   4  18
TORSDOF 4
ENDMDL
MODEL 2
REMARK VINA RESULT:      -6.4      3.393      8.541
REMARK  4 active torsions:
REMARK  status: ('A' for Active; 'I' for Inactive)
REMARK    1  A    between atoms: C_2  and  C_4 
REMARK    2  A    between atoms: C_4  and  N_5 
REMARK       I    between atoms: N_5  and  C_6 
REMARK       I    between atoms: C_6  and  N_8 
REMARK    3  A    between atoms: N_8  and  C_9 
REMARK    4  A    between atoms: C_12  and  C_16 
REMARK       I    between atoms: C_16  and  N_18 
ROOT
HETATM    1  C   UNL     1     -40.356 -51.013  11.840  1.00  0.00     0.051 A 
HETATM    2  C   UNL     1     -39.267 -50.890  12.696  1.00  0.00     0.033 A 
HETATM    3  C   UNL     1     -38.981 -51.928  13.583  1.00  0.00     0.037 A 
HETATM    4  C   UNL     1     -39.831 -53.032  13.637  1.00  0.00     0.100 A 
HETATM    5  N   UNL     1     -40.938 -53.145  12.862  1.00  0.00    -0.359 N 
ATOM      6  HN  UNL     1     -41.568 -53.944  12.939  1.00  0.00     0.165 HD
HETATM    7  C   UNL     1     -41.167 -52.139  11.978  1.00  0.00     0.118 A 
ENDROOT
BRANCH   1   8
HETATM    8  N   UNL     1     -40.545 -50.040  10.834  1.00  0.00    -0.308 N 
HETATM    9  C   UNL     1     -41.431 -48.996  11.020  1.00  0.00     0.321 C 
HETATM   10  N   UNL     1     -41.608 -48.279   9.858  1.00  0.00    -0.339 N 
HETATM   11  O   UNL     1     -42.053 -48.767  12.048  1.00  0.00    -0.247 OA
HETATM   12  H   UNL     1     -40.752 -48.058   9.372  1.00  0.00     0.164 HD
HETATM   13  H   UNL     1     -40.520 -50.364   9.877  1.00  0.00     0.170 HD
BRANCH  10  14
HETATM   14  C   UNL     1     -42.633 -47.260   9.837  1.00  0.00     0.157 C 
BRANCH  14  15
HETATM   15  C   UNL     1     -43.723 -47.571   8.837  1.00  0.00    -0.075 C 
HETATM   16  C   UNL     1     -45.113 -47.451   9.410  1.00  0.00     0.044 C 
HETATM   17  C   UNL     1     -43.547 -47.958   7.561  1.00  0.00     0.015 C 
ENDBRANCH  14  15
ENDBRANCH  10  14
ENDBRANCH   1   8
BRANCH   4  18
HETATM   18  C   UNL     1     -39.423 -54.194  14.495  1.00  0.00     0.270 C 
HETATM   19  O   UNL     1     -39.005 -55.196  13.905  1.00  0.00    -0.266 OA
HETATM   20  N   UNL     1     -39.505 -54.144  15.890  1.00  0.00    -0.347 N 
HETATM   21  C   UNL     1     -39.700 -52.943  16.701  1.00  0.00     0.126 C 
HETATM   22  C   UNL     1     -39.113 -55.327  16.655  1.00  0.00     0.126 C 
HETATM   23  C   UNL     1     -38.417 -52.613  17.467  1.00  0.00     0.020 C 
HETATM   24  C   UNL     1     -37.940 -53.806  18.292  1.00  0.00     0.003 C 
HETATM   25  C   UNL     1     -37.823 -55.063  17.431  1.00  0.00     0.020 C 
ENDBRANCH   4  18
TORSDOF 4
ENDMDL
MODEL 3
REMARK VINA RESULT:      -6.4      1.521      8.481
REMARK  4 active torsions:
REMARK  status: ('A' for Active; 'I' for Inactive)
REMARK    1  A    between atoms: C_2  and  C_4 
REMARK    2  A    between atoms: C_4  and  N_5 
REMARK       I    between atoms: N_5  and  C_6 
REMARK       I    between atoms: C_6  and  N_8 
REMARK    3  A    between atoms: N_8  and  C_9 
REMARK    4  A    between atoms: C_12  and  C_16 
REMARK       I    between atoms: C_16  and  N_18 
ROOT
HETATM    1  C   UNL     1     -41.331 -48.890  11.078  1.00  0.00     0.051 A 
HETATM    2  C   UNL     1     -42.416 -48.989  11.943  1.00  0.00     0.033 A 
HETATM    3  C   UNL     1     -42.529 -50.114  12.761  1.00  0.00     0.037 A 
HETATM    4  C   UNL     1     -41.591 -51.140  12.643  1.00  0.00     0.100 A 
HETATM    5  N   UNL     1     -40.564 -51.098  11.759  1.00  0.00    -0.359 N 
ATOM      6  HN  UNL     1     -39.907 -51.872  11.663  1.00  0.00     0.165 HD
HETATM    7  C   UNL     1     -40.455 -49.972  11.008  1.00  0.00     0.118 A 
ENDROOT
BRANCH   1   8
HETATM    8  N   UNL     1     -41.130 -47.681  10.375  1.00  0.00    -0.308 N 
HETATM    9  C   UNL     1     -40.403 -46.650  10.939  1.00  0.00     0.321 C 
HETATM   10  N   UNL     1     -40.488 -45.506  10.179  1.00  0.00    -0.339 N 
HETATM   11  O   UNL     1     -39.820 -46.697  12.014  1.00  0.00    -0.247 OA
HETATM   12  H   UNL     1     -40.360 -45.654   9.190  1.00  0.00     0.164 HD
HETATM   13  H   UNL     1     -41.898 -47.351   9.807  1.00  0.00     0.170 HD
BRANCH  10  14
HETATM   14  C   UNL     1     -39.928 -44.287  10.718  1.00  0.00     0.157 C 
BRANCH  14  15
HETATM   15  C   UNL     1     -40.990 -43.374  11.285  1.00  0.00    -0.075 C 
HETATM   16  C   UNL     1     -40.427 -42.161  11.981  1.00  0.00     0.044 C 
HETATM   17  C   UNL     1     -42.319 -43.577  11.245  1.00  0.00     0.015 C 
ENDBRANCH  14  15
ENDBRANCH  10  14
ENDBRANCH   1   8
BRANCH   4  18
HETATM   18  C   UNL     1     -41.656 -52.269  13.630  1.00  0.00     0.270 C 
HETATM   19  O   UNL     1     -41.018 -52.124  14.678  1.00  0.00    -0.266 OA
HETATM   20  N   UNL     1     -42.404 -53.424  13.380  1.00  0.00    -0.347 N 
HETATM   21  C   UNL     1     -43.413 -53.589  12.335  1.00  0.00     0.126 C 
HETATM   22  C   UNL     1     -42.395 -54.491  14.380  1.00  0.00     0.126 C 
HETATM   23  C   UNL     1     -44.807 -53.670  12.961  1.00  0.00     0.020 C 
HETATM   24  C   UNL     1     -44.878 -54.765  14.021  1.00  0.00     0.003 C 
HETATM   25  C   UNL     1     -43.762 -54.609  15.054  1.00  0.00     0.020 C 
ENDBRANCH   4  18
TORSDOF 4
ENDMDL
MODEL 4
REMARK VINA RESULT:      -6.2      1.044      1.523
REMARK  4 active torsions:
REMARK  status: ('A' for Active; 'I' for Inactive)
REMARK    1  A    between atoms: C_2  and  C_4 
REMARK    2  A    between atoms: C_4  and  N_5 
REMARK       I    between atoms: N_5  and  C_6 
REMARK       I    between atoms: C_6  and  N_8 
REMARK    3  A    between atoms: N_8  and  C_9 
REMARK    4  A    between atoms: C_12  and  C_16 
REMARK       I    between atoms: C_16  and  N_18 
ROOT
HETATM    1  C   UNL     1     -41.105 -49.022  11.114  1.00  0.00     0.051 A 
HETATM    2  C   UNL     1     -39.942 -48.511  11.679  1.00  0.00     0.033 A 
HETATM    3  C   UNL     1     -39.665 -47.150  11.548  1.00  0.00     0.037 A 
HETATM    4  C   UNL     1     -40.526 -46.349  10.797  1.00  0.00     0.100 A 
HETATM    5  N   UNL     1     -41.630 -46.836  10.179  1.00  0.00    -0.359 N 
ATOM      6  HN  UNL     1     -42.230 -46.242   9.606  1.00  0.00     0.165 HD
HETATM    7  C   UNL     1     -41.896 -48.155  10.360  1.00  0.00     0.118 A 
ENDROOT
BRANCH   1   8
HETATM    8  N   UNL     1     -41.465 -50.360  11.388  1.00  0.00    -0.308 N 
HETATM    9  C   UNL     1     -42.068 -50.697  12.585  1.00  0.00     0.321 C 
HETATM   10  N   UNL     1     -42.159 -52.063  12.730  1.00  0.00    -0.339 N 
HETATM   11  O   UNL     1     -42.411 -49.907  13.454  1.00  0.00    -0.247 OA
HETATM   12  H   UNL     1     -42.490 -52.547  11.910  1.00  0.00     0.164 HD
HETATM   13  H   UNL     1     -40.838 -51.078  11.052  1.00  0.00     0.170 HD
BRANCH  10  14
HETATM   14  C   UNL     1     -42.607 -52.583  14.002  1.00  0.00     0.157 C 
BRANCH  14  15
HETATM   15  C   UNL     1     -43.426 -53.843  13.844  1.00  0.00    -0.075 C 
HETATM   16  C   UNL     1     -44.248 -53.869  12.580  1.00  0.00     0.044 C 
HETATM   17  C   UNL     1     -43.495 -54.863  14.718  1.00  0.00     0.015 C 
ENDBRANCH  14  15
ENDBRANCH  10  14
ENDBRANCH   1   8
BRANCH   4  18
HETATM   18  C   UNL     1     -40.283 -44.868  10.791  1.00  0.00     0.270 C 
HETATM   19  O   UNL     1     -39.792 -44.393   9.760  1.00  0.00    -0.266 OA
HETATM   20  N   UNL     1     -40.602 -44.064  11.890  1.00  0.00    -0.347 N 
HETATM   21  C   UNL     1     -41.437 -44.448  13.027  1.00  0.00     0.126 C 
HETATM   22  C   UNL     1     -40.310 -42.633  11.815  1.00  0.00     0.126 C 
HETATM   23  C   UNL     1     -42.766 -43.691  12.980  1.00  0.00     0.020 C 
HETATM   24  C   UNL     1     -42.545 -42.183  12.899  1.00  0.00     0.003 C 
HETATM   25  C   UNL     1     -41.605 -41.823  11.748  1.00  0.00     0.020 C 
ENDBRANCH   4  18
TORSDOF 4
ENDMDL
MODEL 5
REMARK VINA RESULT:      -6.0      1.697      8.440
REMARK  4 active torsions:
REMARK  status: ('A' for Active; 'I' for Inactive)
REMARK    1  A    between atoms: C_2  and  C_4 
REMARK    2  A    between atoms: C_4  and  N_5 
REMARK       I    between atoms: N_5  and  C_6 
REMARK       I    between atoms: C_6  and  N_8 
REMARK    3  A    between atoms: N_8  and  C_9 
REMARK    4  A    between atoms: C_12  and  C_16 
REMARK       I    between atoms: C_16  and  N_18 
ROOT
HETATM    1  C   UNL     1     -42.686 -47.441  11.077  1.00  0.00     0.051 A 
HETATM    2  C   UNL     1     -43.019 -47.994  12.309  1.00  0.00     0.033 A 
HETATM    3  C   UNL     1     -42.399 -49.178  12.711  1.00  0.00     0.037 A 
HETATM    4  C   UNL     1     -41.514 -49.813  11.840  1.00  0.00     0.100 A 
HETATM    5  N   UNL     1     -41.225 -49.331  10.606  1.00  0.00    -0.359 N 
ATOM      6  HN  UNL     1     -40.601 -49.827   9.970  1.00  0.00     0.165 HD
HETATM    7  C   UNL     1     -41.809 -48.155  10.260  1.00  0.00     0.118 A 
ENDROOT
BRANCH   1   8
HETATM    8  N   UNL     1     -43.188 -46.163  10.746  1.00  0.00    -0.308 N 
HETATM    9  C   UNL     1     -42.439 -45.027  10.989  1.00  0.00     0.321 C 
HETATM   10  N   UNL     1     -43.179 -43.887  10.775  1.00  0.00    -0.339 N 
HETATM   11  O   UNL     1     -41.293 -45.011  11.417  1.00  0.00    -0.247 OA
HETATM   12  H   UNL     1     -43.716 -43.894   9.922  1.00  0.00     0.164 HD
HETATM   13  H   UNL     1     -44.178 -46.013  10.882  1.00  0.00     0.170 HD
BRANCH  10  14
HETATM   14  C   UNL     1     -42.597 -42.618  11.151  1.00  0.00     0.157 C 
BRANCH  14  15
HETATM   15  C   UNL     1     -43.240 -42.041  12.391  1.00  0.00    -0.075 C 
HETATM   16  C   UNL     1     -44.261 -40.972  12.094  1.00  0.00     0.044 C 
HETATM   17  C   UNL     1     -42.955 -42.372  13.663  1.00  0.00     0.015 C 
ENDBRANCH  14  15
ENDBRANCH  10  14
ENDBRANCH   1   8
BRANCH   4  18
HETATM   18  C   UNL     1     -40.757 -51.003  12.351  1.00  0.00     0.270 C 
HETATM   19  O   UNL     1     -39.601 -50.799  12.739  1.00  0.00    -0.266 OA
HETATM   20  N   UNL     1     -41.330 -52.279  12.394  1.00  0.00    -0.347 N 
HETATM   21  C   UNL     1     -42.750 -52.592  12.243  1.00  0.00     0.126 C 
HETATM   22  C   UNL     1     -40.518 -53.393  12.880  1.00  0.00     0.126 C 
HETATM   23  C   UNL     1     -43.329 -53.056  13.581  1.00  0.00     0.020 C 
HETATM   24  C   UNL     1     -42.531 -54.221  14.158  1.00  0.00     0.003 C 
HETATM   25  C   UNL     1     -41.040 -53.890  14.228  1.00  0.00     0.020 C 
ENDBRANCH   4  18
TORSDOF 4
ENDMDL
MODEL 6
REMARK VINA RESULT:      -6.0      2.598      9.364
REMARK  4 active torsions:
REMARK  status: ('A' for Active; 'I' for Inactive)
REMARK    1  A    between atoms: C_2  and  C_4 
REMARK    2  A    between atoms: C_4  and  N_5 
REMARK       I    between atoms: N_5  and  C_6 
REMARK       I    between atoms: C_6  and  N_8 
REMARK    3  A    between atoms: N_8  and  C_9 
REMARK    4  A    between atoms: C_12  and  C_16 
REMARK       I    between atoms: C_16  and  N_18 
ROOT
HETATM    1  C   UNL     1     -41.828 -51.806  12.319  1.00  0.00     0.051 A 
HETATM    2  C   UNL     1     -42.768 -51.664  13.334  1.00  0.00     0.033 A 
HETATM    3  C   UNL     1     -42.931 -52.700  14.256  1.00  0.00     0.037 A 
HETATM    4  C   UNL     1     -42.199 -53.876  14.097  1.00  0.00     0.100 A 
HETATM    5  N   UNL     1     -41.328 -54.066  13.075  1.00  0.00    -0.359 N 
ATOM      6  HN  UNL     1     -40.826 -54.945  12.955  1.00  0.00     0.165 HD
HETATM    7  C   UNL     1     -41.157 -53.025  12.220  1.00  0.00     0.118 A 
ENDROOT
BRANCH   1   8
HETATM    8  N   UNL     1     -41.548 -50.696  11.491  1.00  0.00    -0.308 N 
HETATM    9  C   UNL     1     -40.651 -49.725  11.893  1.00  0.00     0.321 C 
HETATM   10  N   UNL     1     -40.667 -48.647  11.038  1.00  0.00    -0.339 N 
HETATM   11  O   UNL     1     -39.978 -49.759  12.915  1.00  0.00    -0.247 OA
HETATM   12  H   UNL     1     -40.652 -48.892  10.060  1.00  0.00     0.164 HD
HETATM   13  H   UNL     1     -42.320 -50.318  10.960  1.00  0.00     0.170 HD
BRANCH  10  14
HETATM   14  C   UNL     1     -39.913 -47.471  11.412  1.00  0.00     0.157 C 
BRANCH  14  15
HETATM   15  C   UNL     1     -40.444 -46.221  10.750  1.00  0.00    -0.075 C 
HETATM   16  C   UNL     1     -41.917 -46.289  10.436  1.00  0.00     0.044 C 
HETATM   17  C   UNL     1     -39.728 -45.134  10.411  1.00  0.00     0.015 C 
ENDBRANCH  14  15
ENDBRANCH  10  14
ENDBRANCH   1   8
BRANCH   4  18
HETATM   18  C   UNL     1     -42.289 -54.913  15.177  1.00  0.00     0.270 C 
HETATM   19  O   UNL     1     -43.255 -55.682  15.126  1.00  0.00    -0.266 OA
HETATM   20  N   UNL     1     -41.326 -55.010  16.188  1.00  0.00    -0.347 N 
HETATM   21  C   UNL     1     -40.014 -54.366  16.194  1.00  0.00     0.126 C 
HETATM   22  C   UNL     1     -41.499 -56.031  17.220  1.00  0.00     0.126 C 
HETATM   23  C   UNL     1     -38.915 -55.416  16.016  1.00  0.00     0.020 C 
HETATM   24  C   UNL     1     -39.029 -56.523  17.061  1.00  0.00     0.003 C 
HETATM   25  C   UNL     1     -40.436 -57.120  17.083  1.00  0.00     0.020 C 
ENDBRANCH   4  18
TORSDOF 4
ENDMDL
MODEL 7
REMARK VINA RESULT:      -5.9      3.939      6.912
REMARK  4 active torsions:
REMARK  status: ('A' for Active; 'I' for Inactive)
REMARK    1  A    between atoms: C_2  and  C_4 
REMARK    2  A    between atoms: C_4  and  N_5 
REMARK       I    between atoms: N_5  and  C_6 
REMARK       I    between atoms: C_6  and  N_8 
REMARK    3  A    between atoms: N_8  and  C_9 
REMARK    4  A    between atoms: C_12  and  C_16 
REMARK       I    between atoms: C_16  and  N_18 
ROOT
HETATM    1  C   UNL     1     -40.783 -49.213  11.234  1.00  0.00     0.051 A 
HETATM    2  C   UNL     1     -39.575 -48.617  11.579  1.00  0.00     0.033 A 
HETATM    3  C   UNL     1     -38.882 -49.086  12.696  1.00  0.00     0.037 A 
HETATM    4  C   UNL     1     -39.450 -50.093  13.477  1.00  0.00     0.100 A 
HETATM    5  N   UNL     1     -40.658 -50.642  13.202  1.00  0.00    -0.359 N 
ATOM      6  HN  UNL     1     -41.073 -51.353  13.804  1.00  0.00     0.165 HD
HETATM    7  C   UNL     1     -41.289 -50.196  12.085  1.00  0.00     0.118 A 
ENDROOT
BRANCH   1   8
HETATM    8  N   UNL     1     -41.398 -48.851  10.015  1.00  0.00    -0.308 N 
HETATM    9  C   UNL     1     -42.325 -47.828   9.969  1.00  0.00     0.321 C 
HETATM   10  N   UNL     1     -42.938 -47.765   8.739  1.00  0.00    -0.339 N 
HETATM   11  O   UNL     1     -42.638 -47.110  10.910  1.00  0.00    -0.247 OA
HETATM   12  H   UNL     1     -42.306 -47.831   7.956  1.00  0.00     0.164 HD
HETATM   13  H   UNL     1     -41.613 -49.601   9.374  1.00  0.00     0.170 HD
BRANCH  10  14
HETATM   14  C   UNL     1     -44.056 -46.862   8.580  1.00  0.00     0.157 C 
BRANCH  14  15
HETATM   15  C   UNL     1     -45.380 -47.591   8.572  1.00  0.00    -0.075 C 
HETATM   16  C   UNL     1     -45.484 -48.629   7.483  1.00  0.00     0.044 C 
HETATM   17  C   UNL     1     -46.419 -47.365   9.395  1.00  0.00     0.015 C 
ENDBRANCH  14  15
ENDBRANCH  10  14
ENDBRANCH   1   8
BRANCH   4  18
HETATM   18  C   UNL     1     -38.623 -50.674  14.586  1.00  0.00     0.270 C 
HETATM   19  O   UNL     1     -38.411 -51.891  14.538  1.00  0.00    -0.266 OA
HETATM   20  N   UNL     1     -38.110 -49.880  15.618  1.00  0.00    -0.347 N 
HETATM   21  C   UNL     1     -38.044 -48.420  15.631  1.00  0.00     0.126 C 
HETATM   22  C   UNL     1     -37.336 -50.526  16.676  1.00  0.00     0.126 C 
HETATM   23  C   UNL     1     -36.589 -47.961  15.506  1.00  0.00     0.020 C 
HETATM   24  C   UNL     1     -35.712 -48.596  16.581  1.00  0.00     0.003 C 
HETATM   25  C   UNL     1     -35.865 -50.117  16.592  1.00  0.00     0.020 C 
ENDBRANCH   4  18
TORSDOF 4
ENDMDL
MODEL 8
REMARK VINA RESULT:      -5.9      5.344      7.890
REMARK  4 active torsions:
REMARK  status: ('A' for Active; 'I' for Inactive)
REMARK    1  A    between atoms: C_2  and  C_4 
REMARK    2  A    between atoms: C_4  and  N_5 
REMARK       I    between atoms: N_5  and  C_6 
REMARK       I    between atoms: C_6  and  N_8 
REMARK    3  A    between atoms: N_8  and  C_9 
REMARK    4  A    between atoms: C_12  and  C_16 
REMARK       I    between atoms: C_16  and  N_18 
ROOT
HETATM    1  C   UNL     1     -39.878 -52.081  13.622  1.00  0.00     0.051 A 
HETATM    2  C   UNL     1     -40.453 -51.692  12.417  1.00  0.00     0.033 A 
HETATM    3  C   UNL     1     -41.776 -52.048  12.151  1.00  0.00     0.037 A 
HETATM    4  C   UNL     1     -42.466 -52.838  13.069  1.00  0.00     0.100 A 
HETATM    5  N   UNL     1     -41.907 -53.288  14.219  1.00  0.00    -0.359 N 
ATOM      6  HN  UNL     1     -42.416 -53.894  14.862  1.00  0.00     0.165 HD
HETATM    7  C   UNL     1     -40.633 -52.890  14.471  1.00  0.00     0.118 A 
ENDROOT
BRANCH   1   8
HETATM    8  N   UNL     1     -38.600 -51.582  13.959  1.00  0.00    -0.308 N 
HETATM    9  C   UNL     1     -38.468 -50.404  14.670  1.00  0.00     0.321 C 
HETATM   10  N   UNL     1     -37.154 -50.000  14.726  1.00  0.00    -0.339 N 
HETATM   11  O   UNL     1     -39.391 -49.745  15.130  1.00  0.00    -0.247 OA
HETATM   12  H   UNL     1     -36.502 -50.735  14.953  1.00  0.00     0.164 HD
HETATM   13  H   UNL     1     -37.867 -51.708  13.275  1.00  0.00     0.170 HD
BRANCH  10  14
HETATM   14  C   UNL     1     -36.865 -48.698  15.284  1.00  0.00     0.157 C 
BRANCH  14  15
HETATM   15  C   UNL     1     -35.854 -48.771  16.404  1.00  0.00    -0.075 C 
HETATM   16  C   UNL     1     -35.447 -50.180  16.753  1.00  0.00     0.044 C 
HETATM   17  C   UNL     1     -35.351 -47.730  17.092  1.00  0.00     0.015 C 
ENDBRANCH  14  15
ENDBRANCH  10  14
ENDBRANCH   1   8
BRANCH   4  18
HETATM   18  C   UNL     1     -43.926 -53.086  12.826  1.00  0.00     0.270 C 
HETATM   19  O   UNL     1     -44.228 -54.180  12.335  1.00  0.00    -0.266 OA
HETATM   20  N   UNL     1     -44.899 -52.133  13.146  1.00  0.00    -0.347 N 
HETATM   21  C   UNL     1     -44.705 -50.949  13.981  1.00  0.00     0.126 C 
HETATM   22  C   UNL     1     -46.299 -52.439  12.854  1.00  0.00     0.126 C 
HETATM   23  C   UNL     1     -45.443 -51.119  15.311  1.00  0.00     0.020 C 
HETATM   24  C   UNL     1     -46.918 -51.445  15.090  1.00  0.00     0.003 C 
HETATM   25  C   UNL     1     -47.086 -52.638  14.149  1.00  0.00     0.020 C 
ENDBRANCH   4  18
TORSDOF 4
ENDMDL
MODEL 9
REMARK VINA RESULT:      -5.8      1.990      8.450
REMARK  4 active torsions:
REMARK  status: ('A' for Active; 'I' for Inactive)
REMARK    1  A    between atoms: C_2  and  C_4 
REMARK    2  A    between atoms: C_4  and  N_5 
REMARK       I    between atoms: N_5  and  C_6 
REMARK       I    between atoms: C_6  and  N_8 
REMARK    3  A    between atoms: N_8  and  C_9 
REMARK    4  A    between atoms: C_12  and  C_16 
REMARK       I    between atoms: C_16  and  N_18 
ROOT
HETATM    1  C   UNL     1     -41.466 -48.998  11.324  1.00  0.00     0.051 A 
HETATM    2  C   UNL     1     -40.701 -50.156  11.402  1.00  0.00     0.033 A 
HETATM    3  C   UNL     1     -41.233 -51.280  12.036  1.00  0.00     0.037 A 
HETATM    4  C   UNL     1     -42.490 -51.194  12.633  1.00  0.00     0.100 A 
HETATM    5  N   UNL     1     -43.228 -50.056  12.631  1.00  0.00    -0.359 N 
ATOM      6  HN  UNL     1     -44.131 -50.001  13.103  1.00  0.00     0.165 HD
HETATM    7  C   UNL     1     -42.703 -48.992  11.970  1.00  0.00     0.118 A 
ENDROOT
BRANCH   1   8
HETATM    8  N   UNL     1     -40.994 -47.921  10.542  1.00  0.00    -0.308 N 
HETATM    9  C   UNL     1     -40.220 -46.926  11.107  1.00  0.00     0.321 C 
HETATM   10  N   UNL     1     -40.030 -45.883  10.228  1.00  0.00    -0.339 N 
HETATM   11  O   UNL     1     -39.813 -46.911  12.260  1.00  0.00    -0.247 OA
HETATM   12  H   UNL     1     -39.780 -46.168   9.294  1.00  0.00     0.164 HD
HETATM   13  H   UNL     1     -41.616 -47.572   9.826  1.00  0.00     0.170 HD
BRANCH  10  14
HETATM   14  C   UNL     1     -39.387 -44.686  10.722  1.00  0.00     0.157 C 
BRANCH  14  15
HETATM   15  C   UNL     1     -40.340 -43.809  11.500  1.00  0.00    -0.075 C 
HETATM   16  C   UNL     1     -39.742 -43.254  12.769  1.00  0.00     0.044 C 
HETATM   17  C   UNL     1     -41.616 -43.535  11.176  1.00  0.00     0.015 C 
ENDBRANCH  14  15
ENDBRANCH  10  14
ENDBRANCH   1   8
BRANCH   4  18
HETATM   18  C   UNL     1     -43.097 -52.452  13.181  1.00  0.00     0.270 C 
HETATM   19  O   UNL     1     -43.774 -53.127  12.398  1.00  0.00    -0.266 OA
HETATM   20  N   UNL     1     -42.901 -52.846  14.509  1.00  0.00    -0.347 N 
HETATM   21  C   UNL     1     -41.907 -52.303  15.433  1.00  0.00     0.126 C 
HETATM   22  C   UNL     1     -43.548 -54.072  14.975  1.00  0.00     0.126 C 
HETATM   23  C   UNL     1     -40.818 -53.345  15.702  1.00  0.00     0.020 C 
HETATM   24  C   UNL     1     -41.417 -54.661  16.193  1.00  0.00     0.003 C 
HETATM   25  C   UNL     1     -42.508 -55.159  15.246  1.00  0.00     0.020 C 
ENDBRANCH   4  18
TORSDOF 4
ENDMDL
