MODEL 1
REMARK VINA RESULT:      -6.4      0.000      0.000
REMARK  2 active torsions:
REMARK  status: ('A' for Active; 'I' for Inactive)
REMARK    1  A    between atoms: C_8  and  N_9 
REMARK       I    between atoms: N_9  and  C_10 
REMARK       I    between atoms: C_10  and  N_12 
REMARK    2  A    between atoms: N_12  and  C_13 
ROOT
HETATM    1  N   UNL     1     -43.724 -45.683   9.235  1.00  0.00    -0.140 N 
HETATM    2  C   UNL     1     -42.639 -45.841  10.057  1.00  0.00     0.335 C 
HETATM    3  O   UNL     1     -41.850 -44.916  10.219  1.00  0.00    -0.246 OA
HETATM    4  N   UNL     1     -42.456 -47.089  10.563  1.00  0.00    -0.335 N 
HETATM    5  H   UNL     1     -43.751 -44.802   8.743  1.00  0.00     0.189 HD
HETATM    6  H   UNL     1     -43.286 -47.679  10.557  1.00  0.00     0.164 HD
ENDROOT
BRANCH   1   7
HETATM    7  C   UNL     1     -44.683 -46.645   9.022  1.00  0.00     0.703 A 
HETATM    8  N   UNL     1     -44.570 -47.674   8.118  1.00  0.00    -0.127 N 
HETATM    9  C   UNL     1     -43.414 -48.081   7.366  1.00  0.00     0.197 C 
HETATM   10  N   UNL     1     -45.681 -48.436   8.111  1.00  0.00    -0.280 N 
HETATM   11  C   UNL     1     -46.419 -47.844   9.049  1.00  0.00     0.215 A 
ATOM     12  HN  UNL     1     -45.899 -49.251   7.538  1.00  0.00     0.188 HD
HETATM   13  N   UNL     1     -45.841 -46.762   9.642  1.00  0.00    -0.185 N 
ATOM     14  HN  UNL     1     -46.217 -46.179  10.390  1.00  0.00     0.185 HD
ENDBRANCH   1   7
BRANCH   4  15
HETATM   15  C   UNL     1     -41.308 -47.530  11.327  1.00  0.00     0.122 C 
HETATM   16  C   UNL     1     -40.881 -48.921  10.881  1.00  0.00     0.065 C 
HETATM   17  C   UNL     1     -40.299 -49.574  12.134  1.00  0.00     0.057 C 
HETATM   18  C   UNL     1     -40.940 -50.939  12.413  1.00  0.00     0.045 C 
HETATM   19  C   UNL     1     -38.784 -49.750  12.026  1.00  0.00     0.045 C 
HETATM   20  O   UNL     1     -40.584 -48.702  13.246  1.00  0.00    -0.369 OA
HETATM   21  C   UNL     1     -41.538 -47.694  12.835  1.00  0.00     0.075 C 
HETATM   22  C   UNL     1     -41.244 -46.405  13.602  1.00  0.00     0.048 C 
HETATM   23  C   UNL     1     -42.943 -48.188  13.208  1.00  0.00     0.048 C 
ENDBRANCH   4  15
TORSDOF 2
ENDMDL
MODEL 2
REMARK VINA RESULT:      -6.3      2.493      3.919
REMARK  2 active torsions:
REMARK  status: ('A' for Active; 'I' for Inactive)
REMARK    1  A    between atoms: C_8  and  N_9 
REMARK       I    between atoms: N_9  and  C_10 
REMARK       I    between atoms: C_10  and  N_12 
REMARK    2  A    between atoms: N_12  and  C_13 
ROOT
HETATM    1  N   UNL     1     -41.202 -48.438  10.131  1.00  0.00    -0.140 N 
HETATM    2  C   UNL     1     -40.894 -49.358  11.098  1.00  0.00     0.335 C 
HETATM    3  O   UNL     1     -39.736 -49.739  11.239  1.00  0.00    -0.246 OA
HETATM    4  N   UNL     1     -41.948 -49.876  11.781  1.00  0.00    -0.335 N 
HETATM    5  H   UNL     1     -40.431 -48.189   9.529  1.00  0.00     0.189 HD
HETATM    6  H   UNL     1     -42.798 -49.315  11.746  1.00  0.00     0.164 HD
ENDROOT
BRANCH   1   7
HETATM    7  C   UNL     1     -42.459 -47.922   9.923  1.00  0.00     0.703 A 
HETATM    8  N   UNL     1     -43.069 -46.999  10.739  1.00  0.00    -0.127 N 
HETATM    9  C   UNL     1     -42.501 -46.253  11.829  1.00  0.00     0.197 C 
HETATM   10  N   UNL     1     -44.309 -46.708  10.298  1.00  0.00    -0.280 N 
HETATM   11  C   UNL     1     -44.385 -47.455   9.199  1.00  0.00     0.215 A 
ATOM     12  HN  UNL     1     -45.005 -46.081  10.701  1.00  0.00     0.188 HD
HETATM   13  N   UNL     1     -43.274 -48.194   8.923  1.00  0.00    -0.185 N 
ATOM     14  HN  UNL     1     -43.111 -48.814   8.129  1.00  0.00     0.185 HD
ENDBRANCH   1   7
BRANCH   4  15
HETATM   15  C   UNL     1     -41.884 -50.963  12.736  1.00  0.00     0.122 C 
HETATM   16  C   UNL     1     -42.091 -52.296  12.033  1.00  0.00     0.065 C 
HETATM   17  C   UNL     1     -42.775 -53.185  13.070  1.00  0.00     0.057 C 
HETATM   18  C   UNL     1     -44.057 -53.820  12.516  1.00  0.00     0.045 C 
HETATM   19  C   UNL     1     -41.845 -54.294  13.562  1.00  0.00     0.045 C 
HETATM   20  O   UNL     1     -43.129 -52.348  14.189  1.00  0.00    -0.369 OA
HETATM   21  C   UNL     1     -42.971 -50.958  13.820  1.00  0.00     0.075 C 
HETATM   22  C   UNL     1     -42.543 -50.171  15.057  1.00  0.00     0.048 C 
HETATM   23  C   UNL     1     -44.334 -50.436  13.342  1.00  0.00     0.048 C 
ENDBRANCH   4  15
TORSDOF 2
ENDMDL
MODEL 3
REMARK VINA RESULT:      -6.1      3.835      6.100
REMARK  2 active torsions:
REMARK  status: ('A' for Active; 'I' for Inactive)
REMARK    1  A    between atoms: C_8  and  N_9 
REMARK       I    between atoms: N_9  and  C_10 
REMARK       I    between atoms: C_10  and  N_12 
REMARK    2  A    between atoms: N_12  and  C_13 
ROOT
HETATM    1  N   UNL     1     -39.955 -50.935  11.531  1.00  0.00    -0.140 N 
HETATM    2  C   UNL     1     -40.572 -51.890  12.295  1.00  0.00     0.335 C 
HETATM    3  O   UNL     1     -40.056 -52.994  12.436  1.00  0.00    -0.246 OA
HETATM    4  N   UNL     1     -41.804 -51.566  12.768  1.00  0.00    -0.335 N 
HETATM    5  H   UNL     1     -39.122 -51.252  11.057  1.00  0.00     0.189 HD
HETATM    6  H   UNL     1     -42.004 -50.568  12.793  1.00  0.00     0.164 HD
ENDROOT
BRANCH   1   7
HETATM    7  C   UNL     1     -40.434 -49.660  11.348  1.00  0.00     0.703 A 
HETATM    8  N   UNL     1     -40.213 -48.611  12.208  1.00  0.00    -0.127 N 
HETATM    9  C   UNL     1     -39.323 -48.551  13.336  1.00  0.00     0.197 C 
HETATM   10  N   UNL     1     -40.834 -47.495  11.780  1.00  0.00    -0.280 N 
HETATM   11  C   UNL     1     -41.387 -47.914  10.644  1.00  0.00     0.215 A 
ATOM     12  HN  UNL     1     -40.872 -46.572  12.213  1.00  0.00     0.188 HD
HETATM   13  N   UNL     1     -41.152 -49.220  10.332  1.00  0.00    -0.185 N 
ATOM     14  HN  UNL     1     -41.460 -49.736   9.508  1.00  0.00     0.185 HD
ENDBRANCH   1   7
BRANCH   4  15
HETATM   15  C   UNL     1     -42.703 -52.461  13.467  1.00  0.00     0.122 C 
HETATM   16  C   UNL     1     -43.771 -52.982  12.517  1.00  0.00     0.065 C 
HETATM   17  C   UNL     1     -45.005 -53.198  13.392  1.00  0.00     0.057 C 
HETATM   18  C   UNL     1     -46.240 -52.495  12.816  1.00  0.00     0.045 C 
HETATM   19  C   UNL     1     -45.317 -54.684  13.570  1.00  0.00     0.045 C 
HETATM   20  O   UNL     1     -44.719 -52.629  14.686  1.00  0.00    -0.369 OA
HETATM   21  C   UNL     1     -43.515 -51.830  14.606  1.00  0.00     0.075 C 
HETATM   22  C   UNL     1     -42.785 -51.914  15.945  1.00  0.00     0.048 C 
HETATM   23  C   UNL     1     -43.928 -50.372  14.352  1.00  0.00     0.048 C 
ENDBRANCH   4  15
TORSDOF 2
ENDMDL
MODEL 4
REMARK VINA RESULT:      -5.6      3.082      5.438
REMARK  2 active torsions:
REMARK  status: ('A' for Active; 'I' for Inactive)
REMARK    1  A    between atoms: C_8  and  N_9 
REMARK       I    between atoms: N_9  and  C_10 
REMARK       I    between atoms: C_10  and  N_12 
REMARK    2  A    between atoms: N_12  and  C_13 
ROOT
HETATM    1  N   UNL     1     -40.322 -51.351  12.024  1.00  0.00    -0.140 N 
HETATM    2  C   UNL     1     -40.106 -50.167  11.369  1.00  0.00     0.335 C 
HETATM    3  O   UNL     1     -38.964 -49.819  11.090  1.00  0.00    -0.246 OA
HETATM    4  N   UNL     1     -41.204 -49.393  11.165  1.00  0.00    -0.335 N 
HETATM    5  H   UNL     1     -39.482 -51.831  12.310  1.00  0.00     0.189 HD
HETATM    6  H   UNL     1     -42.092 -49.888  11.215  1.00  0.00     0.164 HD
ENDROOT
BRANCH   1   7
HETATM    7  C   UNL     1     -41.565 -51.845  12.343  1.00  0.00     0.703 A 
HETATM    8  N   UNL     1     -42.223 -51.601  13.525  1.00  0.00    -0.127 N 
HETATM    9  C   UNL     1     -41.877 -50.672  14.566  1.00  0.00     0.197 C 
HETATM   10  N   UNL     1     -43.406 -52.245  13.563  1.00  0.00    -0.280 N 
HETATM   11  C   UNL     1     -43.428 -52.835  12.369  1.00  0.00     0.215 A 
ATOM     12  HN  UNL     1     -44.101 -52.273  14.308  1.00  0.00     0.188 HD
HETATM   13  N   UNL     1     -42.337 -52.602  11.587  1.00  0.00    -0.185 N 
ATOM     14  HN  UNL     1     -42.158 -52.936  10.640  1.00  0.00     0.185 HD
ENDBRANCH   1   7
BRANCH   4  15
HETATM   15  C   UNL     1     -41.200 -48.046  10.633  1.00  0.00     0.122 C 
HETATM   16  C   UNL     1     -40.558 -47.089  11.626  1.00  0.00     0.065 C 
HETATM   17  C   UNL     1     -41.269 -45.755  11.402  1.00  0.00     0.057 C 
HETATM   18  C   UNL     1     -41.818 -45.177  12.712  1.00  0.00     0.045 C 
HETATM   19  C   UNL     1     -40.343 -44.724  10.756  1.00  0.00     0.045 C 
HETATM   20  O   UNL     1     -42.377 -46.001  10.514  1.00  0.00    -0.369 OA
HETATM   21  C   UNL     1     -42.583 -47.428  10.384  1.00  0.00     0.075 C 
HETATM   22  C   UNL     1     -43.095 -47.720   8.975  1.00  0.00     0.048 C 
HETATM   23  C   UNL     1     -43.653 -47.848  11.403  1.00  0.00     0.048 C 
ENDBRANCH   4  15
TORSDOF 2
ENDMDL
MODEL 5
REMARK VINA RESULT:      -5.4      2.141      3.345
REMARK  2 active torsions:
REMARK  status: ('A' for Active; 'I' for Inactive)
REMARK    1  A    between atoms: C_8  and  N_9 
REMARK       I    between atoms: N_9  and  C_10 
REMARK       I    between atoms: C_10  and  N_12 
REMARK    2  A    between atoms: N_12  and  C_13 
ROOT
HETATM    1  N   UNL     1     -43.399 -46.874  12.260  1.00  0.00    -0.140 N 
HETATM    2  C   UNL     1     -42.662 -47.581  13.172  1.00  0.00     0.335 C 
HETATM    3  O   UNL     1     -42.865 -47.436  14.373  1.00  0.00    -0.246 OA
HETATM    4  N   UNL     1     -41.655 -48.338  12.662  1.00  0.00    -0.335 N 
HETATM    5  H   UNL     1     -44.030 -46.198  12.665  1.00  0.00     0.189 HD
HETATM    6  H   UNL     1     -41.747 -48.562  11.673  1.00  0.00     0.164 HD
ENDROOT
BRANCH   1   7
HETATM    7  C   UNL     1     -43.273 -46.998  10.897  1.00  0.00     0.703 A 
HETATM    8  N   UNL     1     -42.425 -46.246  10.119  1.00  0.00    -0.127 N 
HETATM    9  C   UNL     1     -41.390 -45.342  10.540  1.00  0.00     0.197 C 
HETATM   10  N   UNL     1     -42.546 -46.572   8.817  1.00  0.00    -0.280 N 
HETATM   11  C   UNL     1     -43.454 -47.545   8.867  1.00  0.00     0.215 A 
ATOM     12  HN  UNL     1     -42.068 -46.178   8.007  1.00  0.00     0.188 HD
HETATM   13  N   UNL     1     -43.909 -47.849  10.115  1.00  0.00    -0.185 N 
ATOM     14  HN  UNL     1     -44.583 -48.567  10.382  1.00  0.00     0.185 HD
ENDBRANCH   1   7
BRANCH   4  15
HETATM   15  C   UNL     1     -40.657 -49.048  13.435  1.00  0.00     0.122 C 
HETATM   16  C   UNL     1     -39.259 -48.647  12.987  1.00  0.00     0.065 C 
HETATM   17  C   UNL     1     -38.402 -49.892  13.212  1.00  0.00     0.057 C 
HETATM   18  C   UNL     1     -37.622 -50.280  11.950  1.00  0.00     0.045 C 
HETATM   19  C   UNL     1     -37.417 -49.696  14.364  1.00  0.00     0.045 C 
HETATM   20  O   UNL     1     -39.294 -50.974  13.547  1.00  0.00    -0.369 OA
HETATM   21  C   UNL     1     -40.658 -50.574  13.277  1.00  0.00     0.075 C 
HETATM   22  C   UNL     1     -41.575 -51.254  14.294  1.00  0.00     0.048 C 
HETATM   23  C   UNL     1     -41.027 -51.062  11.868  1.00  0.00     0.048 C 
ENDBRANCH   4  15
TORSDOF 2
ENDMDL
MODEL 6
REMARK VINA RESULT:      -5.3      5.082      6.586
REMARK  2 active torsions:
REMARK  status: ('A' for Active; 'I' for Inactive)
REMARK    1  A    between atoms: C_8  and  N_9 
REMARK       I    between atoms: N_9  and  C_10 
REMARK       I    between atoms: C_10  and  N_12 
REMARK    2  A    between atoms: N_12  and  C_13 
ROOT
HETATM    1  N   UNL     1     -44.359 -52.716  15.690  1.00  0.00    -0.140 N 
HETATM    2  C   UNL     1     -42.991 -52.642  15.679  1.00  0.00     0.335 C 
HETATM    3  O   UNL     1     -42.352 -52.918  16.689  1.00  0.00    -0.246 OA
HETATM    4  N   UNL     1     -42.434 -52.150  14.542  1.00  0.00    -0.335 N 
HETATM    5  H   UNL     1     -44.760 -52.927  16.593  1.00  0.00     0.189 HD
HETATM    6  H   UNL     1     -43.031 -52.193  13.719  1.00  0.00     0.164 HD
ENDROOT
BRANCH   1   7
HETATM    7  C   UNL     1     -45.159 -52.466  14.600  1.00  0.00     0.703 A 
HETATM    8  N   UNL     1     -45.544 -53.412  13.680  1.00  0.00    -0.127 N 
HETATM    9  C   UNL     1     -45.375 -54.838  13.739  1.00  0.00     0.197 C 
HETATM   10  N   UNL     1     -46.298 -52.862  12.708  1.00  0.00    -0.280 N 
HETATM   11  C   UNL     1     -46.364 -51.593  13.105  1.00  0.00     0.215 A 
ATOM     12  HN  UNL     1     -46.709 -53.302  11.885  1.00  0.00     0.188 HD
HETATM   13  N   UNL     1     -45.701 -51.312  14.262  1.00  0.00    -0.185 N 
ATOM     14  HN  UNL     1     -45.639 -50.419  14.751  1.00  0.00     0.185 HD
ENDBRANCH   1   7
BRANCH   4  15
HETATM   15  C   UNL     1     -41.031 -51.841  14.354  1.00  0.00     0.122 C 
HETATM   16  C   UNL     1     -40.869 -50.427  13.820  1.00  0.00     0.065 C 
HETATM   17  C   UNL     1     -39.610 -50.474  12.955  1.00  0.00     0.057 C 
HETATM   18  C   UNL     1     -39.864 -49.916  11.550  1.00  0.00     0.045 C 
HETATM   19  C   UNL     1     -38.457 -49.701  13.595  1.00  0.00     0.045 C 
HETATM   20  O   UNL     1     -39.224 -51.858  12.833  1.00  0.00    -0.369 OA
HETATM   21  C   UNL     1     -40.296 -52.702  13.317  1.00  0.00     0.075 C 
HETATM   22  C   UNL     1     -39.684 -53.954  13.943  1.00  0.00     0.048 C 
HETATM   23  C   UNL     1     -41.158 -53.113  12.115  1.00  0.00     0.048 C 
ENDBRANCH   4  15
TORSDOF 2
ENDMDL
MODEL 7
REMARK VINA RESULT:      -5.3      3.097      4.755
REMARK  2 active torsions:
REMARK  status: ('A' for Active; 'I' for Inactive)
REMARK    1  A    between atoms: C_8  and  N_9 
REMARK       I    between atoms: N_9  and  C_10 
REMARK       I    between atoms: C_10  and  N_12 
REMARK    2  A    between atoms: N_12  and  C_13 
ROOT
HETATM    1  N   UNL     1     -41.602 -46.356  10.883  1.00  0.00    -0.140 N 
HETATM    2  C   UNL     1     -41.381 -47.686  10.640  1.00  0.00     0.335 C 
HETATM    3  O   UNL     1     -42.122 -48.305   9.884  1.00  0.00    -0.246 OA
HETATM    4  N   UNL     1     -40.385 -48.262  11.363  1.00  0.00    -0.335 N 
HETATM    5  H   UNL     1     -42.443 -45.988  10.463  1.00  0.00     0.189 HD
HETATM    6  H   UNL     1     -39.707 -47.611  11.754  1.00  0.00     0.164 HD
ENDROOT
BRANCH   1   7
HETATM    7  C   UNL     1     -40.805 -45.569  11.681  1.00  0.00     0.703 A 
HETATM    8  N   UNL     1     -39.704 -44.874  11.241  1.00  0.00    -0.127 N 
HETATM    9  C   UNL     1     -39.262 -44.658   9.890  1.00  0.00     0.197 C 
HETATM   10  N   UNL     1     -39.107 -44.221  12.257  1.00  0.00    -0.280 N 
HETATM   11  C   UNL     1     -39.904 -44.528  13.279  1.00  0.00     0.215 A 
ATOM     12  HN  UNL     1     -38.266 -43.643  12.247  1.00  0.00     0.188 HD
HETATM   13  N   UNL     1     -40.960 -45.331  12.969  1.00  0.00    -0.185 N 
ATOM     14  HN  UNL     1     -41.698 -45.668  13.587  1.00  0.00     0.185 HD
ENDBRANCH   1   7
BRANCH   4  15
HETATM   15  C   UNL     1     -40.069 -49.676  11.388  1.00  0.00     0.122 C 
HETATM   16  C   UNL     1     -41.113 -50.436  12.192  1.00  0.00     0.065 C 
HETATM   17  C   UNL     1     -40.356 -51.610  12.811  1.00  0.00     0.057 C 
HETATM   18  C   UNL     1     -40.569 -51.687  14.328  1.00  0.00     0.045 C 
HETATM   19  C   UNL     1     -40.769 -52.941  12.183  1.00  0.00     0.045 C 
HETATM   20  O   UNL     1     -38.952 -51.397  12.559  1.00  0.00    -0.369 OA
HETATM   21  C   UNL     1     -38.748 -50.048  12.076  1.00  0.00     0.075 C 
HETATM   22  C   UNL     1     -37.575 -50.053  11.098  1.00  0.00     0.048 C 
HETATM   23  C   UNL     1     -38.393 -49.161  13.279  1.00  0.00     0.048 C 
ENDBRANCH   4  15
TORSDOF 2
ENDMDL
MODEL 8
REMARK VINA RESULT:      -5.2      5.728      7.052
REMARK  2 active torsions:
REMARK  status: ('A' for Active; 'I' for Inactive)
REMARK    1  A    between atoms: C_8  and  N_9 
REMARK       I    between atoms: N_9  and  C_10 
REMARK       I    between atoms: C_10  and  N_12 
REMARK    2  A    between atoms: N_12  and  C_13 
ROOT
HETATM    1  N   UNL     1     -43.846 -53.062  12.137  1.00  0.00    -0.140 N 
HETATM    2  C   UNL     1     -42.547 -52.895  12.539  1.00  0.00     0.335 C 
HETATM    3  O   UNL     1     -41.726 -52.396  11.777  1.00  0.00    -0.246 OA
HETATM    4  N   UNL     1     -42.234 -53.410  13.757  1.00  0.00    -0.335 N 
HETATM    5  H   UNL     1     -44.019 -52.822  11.172  1.00  0.00     0.189 HD
HETATM    6  H   UNL     1     -43.029 -53.568  14.373  1.00  0.00     0.164 HD
ENDROOT
BRANCH   1   7
HETATM    7  C   UNL     1     -44.845 -53.573  12.931  1.00  0.00     0.703 A 
HETATM    8  N   UNL     1     -45.953 -52.871  13.342  1.00  0.00    -0.127 N 
HETATM    9  C   UNL     1     -46.403 -51.576  12.909  1.00  0.00     0.197 C 
HETATM   10  N   UNL     1     -46.737 -53.625  14.137  1.00  0.00    -0.280 N 
HETATM   11  C   UNL     1     -46.075 -54.781  14.147  1.00  0.00     0.215 A 
ATOM     12  HN  UNL     1     -47.607 -53.377  14.607  1.00  0.00     0.188 HD
HETATM   13  N   UNL     1     -44.929 -54.799  13.410  1.00  0.00    -0.185 N 
ATOM     14  HN  UNL     1     -44.286 -55.578  13.264  1.00  0.00     0.185 HD
ENDBRANCH   1   7
BRANCH   4  15
HETATM   15  C   UNL     1     -40.903 -53.486  14.324  1.00  0.00     0.122 C 
HETATM   16  C   UNL     1     -40.779 -54.714  15.215  1.00  0.00     0.065 C 
HETATM   17  C   UNL     1     -39.780 -54.313  16.300  1.00  0.00     0.057 C 
HETATM   18  C   UNL     1     -40.335 -54.572  17.706  1.00  0.00     0.045 C 
HETATM   19  C   UNL     1     -38.453 -55.057  16.145  1.00  0.00     0.045 C 
HETATM   20  O   UNL     1     -39.536 -52.900  16.159  1.00  0.00    -0.369 OA
HETATM   21  C   UNL     1     -40.511 -52.330  15.254  1.00  0.00     0.075 C 
HETATM   22  C   UNL     1     -39.853 -51.180  14.491  1.00  0.00     0.048 C 
HETATM   23  C   UNL     1     -41.671 -51.774  16.092  1.00  0.00     0.048 C 
ENDBRANCH   4  15
TORSDOF 2
ENDMDL
MODEL 9
REMARK VINA RESULT:      -5.0      5.005      7.170
REMARK  2 active torsions:
REMARK  status: ('A' for Active; 'I' for Inactive)
REMARK    1  A    between atoms: C_8  and  N_9 
REMARK       I    between atoms: N_9  and  C_10 
REMARK       I    between atoms: C_10  and  N_12 
REMARK    2  A    between atoms: N_12  and  C_13 
ROOT
HETATM    1  N   UNL     1     -39.364 -51.266  12.885  1.00  0.00    -0.140 N 
HETATM    2  C   UNL     1     -40.523 -51.995  12.824  1.00  0.00     0.335 C 
HETATM    3  O   UNL     1     -40.584 -52.993  12.115  1.00  0.00    -0.246 OA
HETATM    4  N   UNL     1     -41.584 -51.477  13.496  1.00  0.00    -0.335 N 
HETATM    5  H   UNL     1     -38.641 -51.576  12.253  1.00  0.00     0.189 HD
HETATM    6  H   UNL     1     -41.346 -50.805  14.223  1.00  0.00     0.164 HD
ENDROOT
BRANCH   1   7
HETATM    7  C   UNL     1     -39.185 -50.158  13.680  1.00  0.00     0.703 A 
HETATM    8  N   UNL     1     -39.281 -48.859  13.242  1.00  0.00    -0.127 N 
HETATM    9  C   UNL     1     -39.753 -48.375  11.974  1.00  0.00     0.197 C 
HETATM   10  N   UNL     1     -39.024 -47.991  14.241  1.00  0.00    -0.280 N 
HETATM   11  C   UNL     1     -38.810 -48.816  15.264  1.00  0.00     0.215 A 
ATOM     12  HN  UNL     1     -38.999 -46.972  14.218  1.00  0.00     0.188 HD
HETATM   13  N   UNL     1     -38.918 -50.143  14.972  1.00  0.00    -0.185 N 
ATOM     14  HN  UNL     1     -38.816 -50.937  15.603  1.00  0.00     0.185 HD
ENDBRANCH   1   7
BRANCH   4  15
HETATM   15  C   UNL     1     -42.940 -51.987  13.454  1.00  0.00     0.122 C 
HETATM   16  C   UNL     1     -43.933 -50.863  13.711  1.00  0.00     0.065 C 
HETATM   17  C   UNL     1     -45.115 -51.536  14.410  1.00  0.00     0.057 C 
HETATM   18  C   UNL     1     -45.481 -50.824  15.717  1.00  0.00     0.045 C 
HETATM   19  C   UNL     1     -46.348 -51.585  13.509  1.00  0.00     0.045 C 
HETATM   20  O   UNL     1     -44.718 -52.886  14.722  1.00  0.00    -0.369 OA
HETATM   21  C   UNL     1     -43.291 -53.027  14.526  1.00  0.00     0.075 C 
HETATM   22  C   UNL     1     -43.002 -54.452  14.058  1.00  0.00     0.048 C 
HETATM   23  C   UNL     1     -42.600 -52.795  15.878  1.00  0.00     0.048 C 
ENDBRANCH   4  15
TORSDOF 2
ENDMDL
