MODEL 1
REMARK VINA RESULT:      -5.3      0.000      0.000
REMARK  7 active torsions:
REMARK  status: ('A' for Active; 'I' for Inactive)
REMARK    1  A    between atoms: C_2  and  C_3 
REMARK    2  A    between atoms: C_7  and  C_8 
REMARK    3  A    between atoms: C_8  and  C_9 
REMARK    4  A    between atoms: C_9  and  N_10 
REMARK       I    between atoms: N_10  and  C_11 
REMARK    5  A    between atoms: C_11  and  C_13 
REMARK    6  A    between atoms: C_13  and  C_14 
REMARK    7  A    between atoms: C_14  and  C_15 
ROOT
HETATM    1  N   UNL     1     -43.272 -53.952  13.697  1.00  0.00    -0.361 N 
HETATM    2  C   UNL     1     -43.983 -54.982  14.276  1.00  0.00     0.217 C 
HETATM    3  O   UNL     1     -43.506 -55.719  15.133  1.00  0.00    -0.274 OA
HETATM    4  H   UNL     1     -43.700 -53.382  12.980  1.00  0.00     0.162 HD
ENDROOT
BRANCH   1   5
HETATM    5  C   UNL     1     -41.866 -53.776  14.023  1.00  0.00     0.129 C 
BRANCH   5   6
HETATM    6  C   UNL     1     -40.965 -53.739  12.793  1.00  0.00     0.084 C 
BRANCH   6   7
HETATM    7  C   UNL     1     -40.571 -52.331  12.473  1.00  0.00     0.052 A 
HETATM    8  N   UNL     1     -41.060 -51.636  11.470  1.00  0.00    -0.363 N 
HETATM    9  C   UNL     1     -40.471 -50.386  11.438  1.00  0.00     0.103 A 
ATOM     10  HN  UNL     1     -41.768 -51.968  10.814  1.00  0.00     0.165 HD
HETATM   11  C   UNL     1     -39.541 -50.137  12.427  1.00  0.00    -0.001 A 
HETATM   12  S   UNL     1     -39.393 -51.520  13.429  1.00  0.00    -0.080 SA
BRANCH  11  13
HETATM   13  C   UNL     1     -38.749 -48.899  12.694  1.00  0.00     0.043 C 
HETATM   14  C   UNL     1     -39.579 -47.636  12.519  1.00  0.00     0.010 C 
ENDBRANCH  11  13
ENDBRANCH   6   7
ENDBRANCH   5   6
ENDBRANCH   1   5
BRANCH   2  15
HETATM   15  C   UNL     1     -45.416 -55.117  13.802  1.00  0.00     0.105 C 
BRANCH  15  16
HETATM   16  C   UNL     1     -46.446 -54.570  14.792  1.00  0.00     0.041 C 
BRANCH  16  17
HETATM   17  C   UNL     1     -46.571 -53.049  14.748  1.00  0.00     0.121 C 
HETATM   18  C   UNL     1     -46.481 -52.481  13.338  1.00  0.00     0.034 C 
HETATM   19  C   UNL     1     -45.700 -51.191  13.497  1.00  0.00     0.029 C 
HETATM   20  C   UNL     1     -45.421 -51.092  14.981  1.00  0.00     0.168 C 
HETATM   21  O   UNL     1     -45.498 -52.435  15.470  1.00  0.00    -0.386 OA
ENDBRANCH  16  17
ENDBRANCH  15  16
ENDBRANCH   2  15
TORSDOF 7
ENDMDL
MODEL 2
REMARK VINA RESULT:      -5.3      2.156      2.542
REMARK  7 active torsions:
REMARK  status: ('A' for Active; 'I' for Inactive)
REMARK    1  A    between atoms: C_2  and  C_3 
REMARK    2  A    between atoms: C_7  and  C_8 
REMARK    3  A    between atoms: C_8  and  C_9 
REMARK    4  A    between atoms: C_9  and  N_10 
REMARK       I    between atoms: N_10  and  C_11 
REMARK    5  A    between atoms: C_11  and  C_13 
REMARK    6  A    between atoms: C_13  and  C_14 
REMARK    7  A    between atoms: C_14  and  C_15 
ROOT
HETATM    1  N   UNL     1     -42.352 -53.063  12.087  1.00  0.00    -0.361 N 
HETATM    2  C   UNL     1     -43.039 -53.834  13.000  1.00  0.00     0.217 C 
HETATM    3  O   UNL     1     -42.496 -54.360  13.966  1.00  0.00    -0.274 OA
HETATM    4  H   UNL     1     -42.837 -52.664  11.294  1.00  0.00     0.162 HD
ENDROOT
BRANCH   1   5
HETATM    5  C   UNL     1     -40.907 -52.938  12.193  1.00  0.00     0.129 C 
BRANCH   5   6
HETATM    6  C   UNL     1     -40.464 -51.635  12.850  1.00  0.00     0.084 C 
BRANCH   6   7
HETATM    7  C   UNL     1     -41.042 -50.459  12.127  1.00  0.00     0.052 A 
HETATM    8  N   UNL     1     -40.633 -50.040  10.949  1.00  0.00    -0.363 N 
HETATM    9  C   UNL     1     -41.354 -48.922  10.577  1.00  0.00     0.103 A 
ATOM     10  HN  UNL     1     -39.895 -50.474  10.395  1.00  0.00     0.165 HD
HETATM   11  C   UNL     1     -42.316 -48.502  11.474  1.00  0.00    -0.001 A 
HETATM   12  S   UNL     1     -42.312 -49.541  12.837  1.00  0.00    -0.080 SA
BRANCH  11  13
HETATM   13  C   UNL     1     -43.275 -47.361  11.372  1.00  0.00     0.043 C 
HETATM   14  C   UNL     1     -44.106 -47.421  10.099  1.00  0.00     0.010 C 
ENDBRANCH  11  13
ENDBRANCH   6   7
ENDBRANCH   5   6
ENDBRANCH   1   5
BRANCH   2  15
HETATM   15  C   UNL     1     -44.528 -53.955  12.746  1.00  0.00     0.105 C 
BRANCH  15  16
HETATM   16  C   UNL     1     -45.292 -54.645  13.876  1.00  0.00     0.041 C 
BRANCH  16  17
HETATM   17  C   UNL     1     -46.367 -53.759  14.502  1.00  0.00     0.121 C 
HETATM   18  C   UNL     1     -46.554 -52.438  13.770  1.00  0.00     0.034 C 
HETATM   19  C   UNL     1     -46.808 -51.425  14.870  1.00  0.00     0.029 C 
HETATM   20  C   UNL     1     -46.778 -52.234  16.148  1.00  0.00     0.168 C 
HETATM   21  O   UNL     1     -46.007 -53.400  15.840  1.00  0.00    -0.386 OA
ENDBRANCH  16  17
ENDBRANCH  15  16
ENDBRANCH   2  15
TORSDOF 7
ENDMDL
MODEL 3
REMARK VINA RESULT:      -5.3      3.213      6.379
REMARK  7 active torsions:
REMARK  status: ('A' for Active; 'I' for Inactive)
REMARK    1  A    between atoms: C_2  and  C_3 
REMARK    2  A    between atoms: C_7  and  C_8 
REMARK    3  A    between atoms: C_8  and  C_9 
REMARK    4  A    between atoms: C_9  and  N_10 
REMARK       I    between atoms: N_10  and  C_11 
REMARK    5  A    between atoms: C_11  and  C_13 
REMARK    6  A    between atoms: C_13  and  C_14 
REMARK    7  A    between atoms: C_14  and  C_15 
ROOT
HETATM    1  N   UNL     1     -40.620 -51.053  11.398  1.00  0.00    -0.361 N 
HETATM    2  C   UNL     1     -39.464 -50.520  11.930  1.00  0.00     0.217 C 
HETATM    3  O   UNL     1     -38.590 -51.211  12.444  1.00  0.00    -0.274 OA
HETATM    4  H   UNL     1     -41.322 -50.443  11.002  1.00  0.00     0.162 HD
ENDROOT
BRANCH   1   5
HETATM    5  C   UNL     1     -40.884 -52.476  11.532  1.00  0.00     0.129 C 
BRANCH   5   6
HETATM    6  C   UNL     1     -41.407 -52.862  12.912  1.00  0.00     0.084 C 
BRANCH   6   7
HETATM    7  C   UNL     1     -42.903 -52.820  12.937  1.00  0.00     0.052 A 
HETATM    8  N   UNL     1     -43.678 -53.819  12.573  1.00  0.00    -0.363 N 
HETATM    9  C   UNL     1     -45.003 -53.447  12.691  1.00  0.00     0.103 A 
ATOM     10  HN  UNL     1     -43.350 -54.730  12.252  1.00  0.00     0.165 HD
HETATM   11  C   UNL     1     -45.227 -52.165  13.154  1.00  0.00    -0.001 A 
HETATM   12  S   UNL     1     -43.723 -51.396  13.445  1.00  0.00    -0.080 SA
BRANCH  11  13
HETATM   13  C   UNL     1     -46.520 -51.465  13.419  1.00  0.00     0.043 C 
HETATM   14  C   UNL     1     -46.892 -51.484  14.894  1.00  0.00     0.010 C 
ENDBRANCH  11  13
ENDBRANCH   6   7
ENDBRANCH   5   6
ENDBRANCH   1   5
BRANCH   2  15
HETATM   15  C   UNL     1     -39.333 -49.016  11.800  1.00  0.00     0.105 C 
BRANCH  15  16
HETATM   16  C   UNL     1     -40.421 -48.236  12.539  1.00  0.00     0.041 C 
BRANCH  16  17
HETATM   17  C   UNL     1     -41.379 -47.507  11.600  1.00  0.00     0.121 C 
HETATM   18  C   UNL     1     -42.803 -47.439  12.133  1.00  0.00     0.034 C 
HETATM   19  C   UNL     1     -43.678 -47.618  10.907  1.00  0.00     0.029 C 
HETATM   20  C   UNL     1     -42.702 -47.747   9.757  1.00  0.00     0.168 C 
HETATM   21  O   UNL     1     -41.478 -48.194  10.348  1.00  0.00    -0.386 OA
ENDBRANCH  16  17
ENDBRANCH  15  16
ENDBRANCH   2  15
TORSDOF 7
ENDMDL
MODEL 4
REMARK VINA RESULT:      -5.2      2.307      3.047
REMARK  7 active torsions:
REMARK  status: ('A' for Active; 'I' for Inactive)
REMARK    1  A    between atoms: C_2  and  C_3 
REMARK    2  A    between atoms: C_7  and  C_8 
REMARK    3  A    between atoms: C_8  and  C_9 
REMARK    4  A    between atoms: C_9  and  N_10 
REMARK       I    between atoms: N_10  and  C_11 
REMARK    5  A    between atoms: C_11  and  C_13 
REMARK    6  A    between atoms: C_13  and  C_14 
REMARK    7  A    between atoms: C_14  and  C_15 
ROOT
HETATM    1  N   UNL     1     -42.049 -51.640  13.523  1.00  0.00    -0.361 N 
HETATM    2  C   UNL     1     -41.911 -53.011  13.563  1.00  0.00     0.217 C 
HETATM    3  O   UNL     1     -40.824 -53.565  13.696  1.00  0.00    -0.274 OA
HETATM    4  H   UNL     1     -42.963 -51.227  13.392  1.00  0.00     0.162 HD
ENDROOT
BRANCH   1   5
HETATM    5  C   UNL     1     -40.864 -50.797  13.531  1.00  0.00     0.129 C 
BRANCH   5   6
HETATM    6  C   UNL     1     -40.278 -50.571  12.141  1.00  0.00     0.084 C 
BRANCH   6   7
HETATM    7  C   UNL     1     -40.795 -49.295  11.555  1.00  0.00     0.052 A 
HETATM    8  N   UNL     1     -41.897 -49.200  10.843  1.00  0.00    -0.363 N 
HETATM    9  C   UNL     1     -42.075 -47.893  10.432  1.00  0.00     0.103 A 
ATOM     10  HN  UNL     1     -42.526 -49.974  10.628  1.00  0.00     0.165 HD
HETATM   11  C   UNL     1     -41.107 -46.999  10.843  1.00  0.00    -0.001 A 
HETATM   12  S   UNL     1     -39.927 -47.825  11.771  1.00  0.00    -0.080 SA
BRANCH  11  13
HETATM   13  C   UNL     1     -41.010 -45.527  10.599  1.00  0.00     0.043 C 
HETATM   14  C   UNL     1     -39.601 -45.099  10.218  1.00  0.00     0.010 C 
ENDBRANCH  11  13
ENDBRANCH   6   7
ENDBRANCH   5   6
ENDBRANCH   1   5
BRANCH   2  15
HETATM   15  C   UNL     1     -43.208 -53.789  13.470  1.00  0.00     0.105 C 
BRANCH  15  16
HETATM   16  C   UNL     1     -44.163 -53.269  12.394  1.00  0.00     0.041 C 
BRANCH  16  17
HETATM   17  C   UNL     1     -45.573 -53.008  12.920  1.00  0.00     0.121 C 
HETATM   18  C   UNL     1     -45.896 -51.526  13.053  1.00  0.00     0.034 C 
HETATM   19  C   UNL     1     -46.725 -51.430  14.320  1.00  0.00     0.029 C 
HETATM   20  C   UNL     1     -46.844 -52.857  14.808  1.00  0.00     0.168 C 
HETATM   21  O   UNL     1     -45.728 -53.546  14.237  1.00  0.00    -0.386 OA
ENDBRANCH  16  17
ENDBRANCH  15  16
ENDBRANCH   2  15
TORSDOF 7
ENDMDL
MODEL 5
REMARK VINA RESULT:      -5.1      1.549      2.018
REMARK  7 active torsions:
REMARK  status: ('A' for Active; 'I' for Inactive)
REMARK    1  A    between atoms: C_2  and  C_3 
REMARK    2  A    between atoms: C_7  and  C_8 
REMARK    3  A    between atoms: C_8  and  C_9 
REMARK    4  A    between atoms: C_9  and  N_10 
REMARK       I    between atoms: N_10  and  C_11 
REMARK    5  A    between atoms: C_11  and  C_13 
REMARK    6  A    between atoms: C_13  and  C_14 
REMARK    7  A    between atoms: C_14  and  C_15 
ROOT
HETATM    1  N   UNL     1     -42.007 -54.067  12.969  1.00  0.00    -0.361 N 
HETATM    2  C   UNL     1     -42.535 -54.015  14.242  1.00  0.00     0.217 C 
HETATM    3  O   UNL     1     -42.136 -53.228  15.095  1.00  0.00    -0.274 OA
HETATM    4  H   UNL     1     -42.355 -54.746  12.305  1.00  0.00     0.162 HD
ENDROOT
BRANCH   1   5
HETATM    5  C   UNL     1     -40.862 -53.238  12.630  1.00  0.00     0.129 C 
BRANCH   5   6
HETATM    6  C   UNL     1     -41.196 -52.134  11.632  1.00  0.00     0.084 C 
BRANCH   6   7
HETATM    7  C   UNL     1     -40.457 -50.878  11.974  1.00  0.00     0.052 A 
HETATM    8  N   UNL     1     -39.837 -50.121  11.094  1.00  0.00    -0.363 N 
HETATM    9  C   UNL     1     -39.238 -49.055  11.737  1.00  0.00     0.103 A 
ATOM     10  HN  UNL     1     -39.804 -50.294  10.089  1.00  0.00     0.165 HD
HETATM   11  C   UNL     1     -39.414 -49.005  13.105  1.00  0.00    -0.001 A 
HETATM   12  S   UNL     1     -40.359 -50.344  13.606  1.00  0.00    -0.080 SA
BRANCH  11  13
HETATM   13  C   UNL     1     -38.928 -47.988  14.087  1.00  0.00     0.043 C 
HETATM   14  C   UNL     1     -37.425 -48.071  14.306  1.00  0.00     0.010 C 
ENDBRANCH  11  13
ENDBRANCH   6   7
ENDBRANCH   5   6
ENDBRANCH   1   5
BRANCH   2  15
HETATM   15  C   UNL     1     -43.674 -54.979  14.504  1.00  0.00     0.105 C 
BRANCH  15  16
HETATM   16  C   UNL     1     -44.939 -54.673  13.700  1.00  0.00     0.041 C 
BRANCH  16  17
HETATM   17  C   UNL     1     -45.159 -53.179  13.474  1.00  0.00     0.121 C 
HETATM   18  C   UNL     1     -45.879 -52.498  14.630  1.00  0.00     0.034 C 
HETATM   19  C   UNL     1     -46.796 -51.489  13.967  1.00  0.00     0.029 C 
HETATM   20  C   UNL     1     -46.522 -51.639  12.486  1.00  0.00     0.168 C 
HETATM   21  O   UNL     1     -45.992 -52.959  12.331  1.00  0.00    -0.386 OA
ENDBRANCH  16  17
ENDBRANCH  15  16
ENDBRANCH   2  15
TORSDOF 7
ENDMDL
MODEL 6
REMARK VINA RESULT:      -5.1      1.589      2.220
REMARK  7 active torsions:
REMARK  status: ('A' for Active; 'I' for Inactive)
REMARK    1  A    between atoms: C_2  and  C_3 
REMARK    2  A    between atoms: C_7  and  C_8 
REMARK    3  A    between atoms: C_8  and  C_9 
REMARK    4  A    between atoms: C_9  and  N_10 
REMARK       I    between atoms: N_10  and  C_11 
REMARK    5  A    between atoms: C_11  and  C_13 
REMARK    6  A    between atoms: C_13  and  C_14 
REMARK    7  A    between atoms: C_14  and  C_15 
ROOT
HETATM    1  N   UNL     1     -43.476 -52.843  13.885  1.00  0.00    -0.361 N 
HETATM    2  C   UNL     1     -44.653 -52.904  13.169  1.00  0.00     0.217 C 
HETATM    3  O   UNL     1     -45.074 -53.942  12.670  1.00  0.00    -0.274 OA
HETATM    4  H   UNL     1     -43.158 -51.960  14.262  1.00  0.00     0.162 HD
ENDROOT
BRANCH   1   5
HETATM    5  C   UNL     1     -42.629 -54.021  13.977  1.00  0.00     0.129 C 
BRANCH   5   6
HETATM    6  C   UNL     1     -41.615 -54.122  12.842  1.00  0.00     0.084 C 
BRANCH   6   7
HETATM    7  C   UNL     1     -40.987 -52.789  12.580  1.00  0.00     0.052 A 
HETATM    8  N   UNL     1     -41.261 -52.034  11.538  1.00  0.00    -0.363 N 
HETATM    9  C   UNL     1     -40.494 -50.885  11.582  1.00  0.00     0.103 A 
ATOM     10  HN  UNL     1     -41.937 -52.261  10.809  1.00  0.00     0.165 HD
HETATM   11  C   UNL     1     -39.646 -50.771  12.665  1.00  0.00    -0.001 A 
HETATM   12  S   UNL     1     -39.808 -52.156  13.662  1.00  0.00    -0.080 SA
BRANCH  11  13
HETATM   13  C   UNL     1     -38.712 -49.662  13.026  1.00  0.00     0.043 C 
HETATM   14  C   UNL     1     -37.618 -49.470  11.988  1.00  0.00     0.010 C 
ENDBRANCH  11  13
ENDBRANCH   6   7
ENDBRANCH   5   6
ENDBRANCH   1   5
BRANCH   2  15
HETATM   15  C   UNL     1     -45.414 -51.597  13.075  1.00  0.00     0.105 C 
BRANCH  15  16
HETATM   16  C   UNL     1     -46.647 -51.534  13.978  1.00  0.00     0.041 C 
BRANCH  16  17
HETATM   17  C   UNL     1     -46.310 -51.643  15.463  1.00  0.00     0.121 C 
HETATM   18  C   UNL     1     -47.466 -51.245  16.370  1.00  0.00     0.034 C 
HETATM   19  C   UNL     1     -46.810 -50.515  17.526  1.00  0.00     0.029 C 
HETATM   20  C   UNL     1     -45.329 -50.568  17.219  1.00  0.00     0.168 C 
HETATM   21  O   UNL     1     -45.242 -50.753  15.803  1.00  0.00    -0.386 OA
ENDBRANCH  16  17
ENDBRANCH  15  16
ENDBRANCH   2  15
TORSDOF 7
ENDMDL
MODEL 7
REMARK VINA RESULT:      -5.1      3.319      7.084
REMARK  7 active torsions:
REMARK  status: ('A' for Active; 'I' for Inactive)
REMARK    1  A    between atoms: C_2  and  C_3 
REMARK    2  A    between atoms: C_7  and  C_8 
REMARK    3  A    between atoms: C_8  and  C_9 
REMARK    4  A    between atoms: C_9  and  N_10 
REMARK       I    between atoms: N_10  and  C_11 
REMARK    5  A    between atoms: C_11  and  C_13 
REMARK    6  A    between atoms: C_13  and  C_14 
REMARK    7  A    between atoms: C_14  and  C_15 
ROOT
HETATM    1  N   UNL     1     -41.203 -51.361  11.380  1.00  0.00    -0.361 N 
HETATM    2  C   UNL     1     -40.454 -50.228  11.619  1.00  0.00     0.217 C 
HETATM    3  O   UNL     1     -39.394 -50.251  12.237  1.00  0.00    -0.274 OA
HETATM    4  H   UNL     1     -42.081 -51.291  10.883  1.00  0.00     0.162 HD
ENDROOT
BRANCH   1   5
HETATM    5  C   UNL     1     -40.795 -52.630  11.962  1.00  0.00     0.129 C 
BRANCH   5   6
HETATM    6  C   UNL     1     -41.479 -52.927  13.292  1.00  0.00     0.084 C 
BRANCH   6   7
HETATM    7  C   UNL     1     -42.964 -52.804  13.158  1.00  0.00     0.052 A 
HETATM    8  N   UNL     1     -43.711 -53.609  12.433  1.00  0.00    -0.363 N 
HETATM    9  C   UNL     1     -45.031 -53.207  12.504  1.00  0.00     0.103 A 
ATOM     10  HN  UNL     1     -43.368 -54.408  11.900  1.00  0.00     0.165 HD
HETATM   11  C   UNL     1     -45.280 -52.101  13.292  1.00  0.00    -0.001 A 
HETATM   12  S   UNL     1     -43.807 -51.539  13.963  1.00  0.00    -0.080 SA
BRANCH  11  13
HETATM   13  C   UNL     1     -46.579 -51.430  13.601  1.00  0.00     0.043 C 
HETATM   14  C   UNL     1     -46.922 -51.495  15.081  1.00  0.00     0.010 C 
ENDBRANCH  11  13
ENDBRANCH   6   7
ENDBRANCH   5   6
ENDBRANCH   1   5
BRANCH   2  15
HETATM   15  C   UNL     1     -41.017 -48.951  11.029  1.00  0.00     0.105 C 
BRANCH  15  16
HETATM   16  C   UNL     1     -40.219 -47.698  11.396  1.00  0.00     0.041 C 
BRANCH  16  17
HETATM   17  C   UNL     1     -40.842 -46.412  10.858  1.00  0.00     0.121 C 
HETATM   18  C   UNL     1     -39.814 -45.327  10.565  1.00  0.00     0.034 C 
HETATM   19  C   UNL     1     -40.493 -44.037  10.981  1.00  0.00     0.029 C 
HETATM   20  C   UNL     1     -41.866 -44.463  11.456  1.00  0.00     0.168 C 
HETATM   21  O   UNL     1     -41.728 -45.838  11.825  1.00  0.00    -0.386 OA
ENDBRANCH  16  17
ENDBRANCH  15  16
ENDBRANCH   2  15
TORSDOF 7
ENDMDL
MODEL 8
REMARK VINA RESULT:      -5.1      3.858      7.128
REMARK  7 active torsions:
REMARK  status: ('A' for Active; 'I' for Inactive)
REMARK    1  A    between atoms: C_2  and  C_3 
REMARK    2  A    between atoms: C_7  and  C_8 
REMARK    3  A    between atoms: C_8  and  C_9 
REMARK    4  A    between atoms: C_9  and  N_10 
REMARK       I    between atoms: N_10  and  C_11 
REMARK    5  A    between atoms: C_11  and  C_13 
REMARK    6  A    between atoms: C_13  and  C_14 
REMARK    7  A    between atoms: C_14  and  C_15 
ROOT
HETATM    1  N   UNL     1     -40.847 -49.102  13.013  1.00  0.00    -0.361 N 
HETATM    2  C   UNL     1     -39.841 -48.216  12.689  1.00  0.00     0.217 C 
HETATM    3  O   UNL     1     -38.662 -48.547  12.622  1.00  0.00    -0.274 OA
HETATM    4  H   UNL     1     -41.804 -48.780  13.076  1.00  0.00     0.162 HD
ENDROOT
BRANCH   1   5
HETATM    5  C   UNL     1     -40.512 -50.464  13.395  1.00  0.00     0.129 C 
BRANCH   5   6
HETATM    6  C   UNL     1     -40.696 -51.468  12.262  1.00  0.00     0.084 C 
BRANCH   6   7
HETATM    7  C   UNL     1     -41.848 -52.379  12.551  1.00  0.00     0.052 A 
HETATM    8  N   UNL     1     -42.864 -52.568  11.737  1.00  0.00    -0.363 N 
HETATM    9  C   UNL     1     -43.763 -53.446  12.311  1.00  0.00     0.103 A 
ATOM     10  HN  UNL     1     -42.972 -52.133  10.821  1.00  0.00     0.165 HD
HETATM   11  C   UNL     1     -43.418 -53.927  13.559  1.00  0.00    -0.001 A 
HETATM   12  S   UNL     1     -41.917 -53.249  14.033  1.00  0.00    -0.080 SA
BRANCH  11  13
HETATM   13  C   UNL     1     -44.142 -54.897  14.435  1.00  0.00     0.043 C 
HETATM   14  C   UNL     1     -45.526 -55.233  13.900  1.00  0.00     0.010 C 
ENDBRANCH  11  13
ENDBRANCH   6   7
ENDBRANCH   5   6
ENDBRANCH   1   5
BRANCH   2  15
HETATM   15  C   UNL     1     -40.303 -46.806  12.384  1.00  0.00     0.105 C 
BRANCH  15  16
HETATM   16  C   UNL     1     -40.546 -46.545  10.896  1.00  0.00     0.041 C 
BRANCH  16  17
HETATM   17  C   UNL     1     -42.024 -46.584  10.515  1.00  0.00     0.121 C 
HETATM   18  C   UNL     1     -42.449 -47.913   9.906  1.00  0.00     0.034 C 
HETATM   19  C   UNL     1     -43.437 -47.535   8.818  1.00  0.00     0.029 C 
HETATM   20  C   UNL     1     -43.531 -46.027   8.895  1.00  0.00     0.168 C 
HETATM   21  O   UNL     1     -42.313 -45.603   9.513  1.00  0.00    -0.386 OA
ENDBRANCH  16  17
ENDBRANCH  15  16
ENDBRANCH   2  15
TORSDOF 7
ENDMDL
MODEL 9
REMARK VINA RESULT:      -5.0      3.185      4.811
REMARK  7 active torsions:
REMARK  status: ('A' for Active; 'I' for Inactive)
REMARK    1  A    between atoms: C_2  and  C_3 
REMARK    2  A    between atoms: C_7  and  C_8 
REMARK    3  A    between atoms: C_8  and  C_9 
REMARK    4  A    between atoms: C_9  and  N_10 
REMARK       I    between atoms: N_10  and  C_11 
REMARK    5  A    between atoms: C_11  and  C_13 
REMARK    6  A    between atoms: C_13  and  C_14 
REMARK    7  A    between atoms: C_14  and  C_15 
ROOT
HETATM    1  N   UNL     1     -41.418 -51.050  11.810  1.00  0.00    -0.361 N 
HETATM    2  C   UNL     1     -40.580 -52.024  12.311  1.00  0.00     0.217 C 
HETATM    3  O   UNL     1     -39.416 -51.799  12.626  1.00  0.00    -0.274 OA
HETATM    4  H   UNL     1     -42.366 -51.285  11.545  1.00  0.00     0.162 HD
ENDROOT
BRANCH   1   5
HETATM    5  C   UNL     1     -40.896 -49.721  11.537  1.00  0.00     0.129 C 
BRANCH   5   6
HETATM    6  C   UNL     1     -41.989 -48.677  11.333  1.00  0.00     0.084 C 
BRANCH   6   7
HETATM    7  C   UNL     1     -41.389 -47.319  11.143  1.00  0.00     0.052 A 
HETATM    8  N   UNL     1     -40.199 -47.101  10.628  1.00  0.00    -0.363 N 
HETATM    9  C   UNL     1     -39.938 -45.744  10.616  1.00  0.00     0.103 A 
ATOM     10  HN  UNL     1     -39.564 -47.824  10.288  1.00  0.00     0.165 HD
HETATM   11  C   UNL     1     -40.939 -44.937  11.117  1.00  0.00    -0.001 A 
HETATM   12  S   UNL     1     -42.253 -45.912  11.628  1.00  0.00    -0.080 SA
BRANCH  11  13
HETATM   13  C   UNL     1     -40.992 -43.447  11.225  1.00  0.00     0.043 C 
HETATM   14  C   UNL     1     -40.185 -42.928  12.404  1.00  0.00     0.010 C 
ENDBRANCH  11  13
ENDBRANCH   6   7
ENDBRANCH   5   6
ENDBRANCH   1   5
BRANCH   2  15
HETATM   15  C   UNL     1     -41.213 -53.390  12.481  1.00  0.00     0.105 C 
BRANCH  15  16
HETATM   16  C   UNL     1     -41.704 -53.669  13.902  1.00  0.00     0.041 C 
BRANCH  16  17
HETATM   17  C   UNL     1     -43.213 -53.494  14.061  1.00  0.00     0.121 C 
HETATM   18  C   UNL     1     -43.927 -54.784  14.443  1.00  0.00     0.034 C 
HETATM   19  C   UNL     1     -45.235 -54.735  13.676  1.00  0.00     0.029 C 
HETATM   20  C   UNL     1     -45.194 -53.417  12.933  1.00  0.00     0.168 C 
HETATM   21  O   UNL     1     -43.806 -53.088  12.824  1.00  0.00    -0.386 OA
ENDBRANCH  16  17
ENDBRANCH  15  16
ENDBRANCH   2  15
TORSDOF 7
ENDMDL
