MODEL 1
REMARK VINA RESULT:      -5.7      0.000      0.000
REMARK  5 active torsions:
REMARK  status: ('A' for Active; 'I' for Inactive)
REMARK    1  A    between atoms: C_2  and  C_3 
REMARK    2  A    between atoms: C_6  and  C_7 
REMARK    3  A    between atoms: C_7  and  C_8 
REMARK    4  A    between atoms: C_8  and  N_9 
REMARK       I    between atoms: N_9  and  C_10 
REMARK       I    between atoms: C_10  and  N_12 
REMARK    5  A    between atoms: N_12  and  C_13 
ROOT
HETATM    1  C   UNL     1     -41.498 -52.123  12.118  1.00  0.00     0.084 C 
ENDROOT
BRANCH   1   2
HETATM    2  C   UNL     1     -42.851 -52.579  12.574  1.00  0.00     0.053 A 
HETATM    3  N   UNL     1     -43.942 -51.846  12.515  1.00  0.00    -0.356 N 
HETATM    4  C   UNL     1     -45.026 -52.557  13.013  1.00  0.00     0.022 A 
ATOM      5  HN  UNL     1     -43.985 -50.893  12.156  1.00  0.00     0.166 HD
HETATM    6  C   UNL     1     -44.727 -53.837  13.454  1.00  0.00     0.003 A 
HETATM    7  S   UNL     1     -43.058 -54.154  13.224  1.00  0.00    -0.080 SA
HETATM    8  C   UNL     1     -45.620 -54.867  14.051  1.00  0.00     0.058 C 
BRANCH   4   9
HETATM    9  C   UNL     1     -46.363 -51.887  13.034  1.00  0.00     0.054 C 
HETATM   10  C   UNL     1     -46.740 -51.375  14.415  1.00  0.00     0.011 C 
ENDBRANCH   4   9
ENDBRANCH   1   2
BRANCH   1  11
HETATM   11  C   UNL     1     -41.289 -50.638  12.409  1.00  0.00     0.131 C 
BRANCH  11  12
HETATM   12  N   UNL     1     -41.604 -49.795  11.264  1.00  0.00    -0.343 N 
HETATM   13  C   UNL     1     -42.582 -48.835  11.344  1.00  0.00     0.316 C 
HETATM   14  O   UNL     1     -43.260 -48.646  12.348  1.00  0.00    -0.247 OA
HETATM   15  N   UNL     1     -42.712 -48.123  10.173  1.00  0.00    -0.339 N 
HETATM   16  H   UNL     1     -42.264 -48.498   9.353  1.00  0.00     0.164 HD
HETATM   17  H   UNL     1     -40.920 -49.720  10.526  1.00  0.00     0.164 HD
BRANCH  15  18
HETATM   18  C   UNL     1     -43.757 -47.159   9.985  1.00  0.00     0.086 A 
HETATM   19  C   UNL     1     -44.749 -47.324   8.865  1.00  0.00     0.027 A 
HETATM   20  C   UNL     1     -43.740 -46.212   8.818  1.00  0.00     0.027 A 
ENDBRANCH  15  18
ENDBRANCH  11  12
ENDBRANCH   1  11
TORSDOF 5
ENDMDL
MODEL 2
REMARK VINA RESULT:      -5.2      1.856      2.100
REMARK  5 active torsions:
REMARK  status: ('A' for Active; 'I' for Inactive)
REMARK    1  A    between atoms: C_2  and  C_3 
REMARK    2  A    between atoms: C_6  and  C_7 
REMARK    3  A    between atoms: C_7  and  C_8 
REMARK    4  A    between atoms: C_8  and  N_9 
REMARK       I    between atoms: N_9  and  C_10 
REMARK       I    between atoms: C_10  and  N_12 
REMARK    5  A    between atoms: N_12  and  C_13 
ROOT
HETATM    1  C   UNL     1     -41.324 -51.760  12.997  1.00  0.00     0.084 C 
ENDROOT
BRANCH   1   2
HETATM    2  C   UNL     1     -42.700 -52.331  13.155  1.00  0.00     0.053 A 
HETATM    3  N   UNL     1     -43.813 -51.649  12.994  1.00  0.00    -0.356 N 
HETATM    4  C   UNL     1     -44.914 -52.467  13.211  1.00  0.00     0.022 A 
ATOM      5  HN  UNL     1     -43.860 -50.661  12.746  1.00  0.00     0.166 HD
HETATM    6  C   UNL     1     -44.607 -53.777  13.544  1.00  0.00     0.003 A 
HETATM    7  S   UNL     1     -42.906 -53.984  13.572  1.00  0.00    -0.080 SA
HETATM    8  C   UNL     1     -45.516 -54.914  13.853  1.00  0.00     0.058 C 
BRANCH   4   9
HETATM    9  C   UNL     1     -46.278 -51.867  13.077  1.00  0.00     0.054 C 
HETATM   10  C   UNL     1     -46.846 -51.403  14.409  1.00  0.00     0.011 C 
ENDBRANCH   4   9
ENDBRANCH   1   2
BRANCH   1  11
HETATM   11  C   UNL     1     -40.940 -51.647  11.522  1.00  0.00     0.131 C 
BRANCH  11  12
HETATM   12  N   UNL     1     -40.313 -50.371  11.205  1.00  0.00    -0.343 N 
HETATM   13  C   UNL     1     -41.029 -49.201  11.263  1.00  0.00     0.316 C 
HETATM   14  O   UNL     1     -42.220 -49.154  11.549  1.00  0.00    -0.247 OA
HETATM   15  N   UNL     1     -40.259 -48.102  10.958  1.00  0.00    -0.339 N 
HETATM   16  H   UNL     1     -39.362 -48.271  10.531  1.00  0.00     0.164 HD
HETATM   17  H   UNL     1     -39.306 -50.317  11.228  1.00  0.00     0.164 HD
BRANCH  15  18
HETATM   18  C   UNL     1     -40.827 -46.791  10.830  1.00  0.00     0.086 A 
HETATM   19  C   UNL     1     -39.938 -45.596  10.619  1.00  0.00     0.027 A 
HETATM   20  C   UNL     1     -40.670 -45.767  11.919  1.00  0.00     0.027 A 
ENDBRANCH  15  18
ENDBRANCH  11  12
ENDBRANCH   1  11
TORSDOF 5
ENDMDL
MODEL 3
REMARK VINA RESULT:      -5.1      1.617      1.995
REMARK  5 active torsions:
REMARK  status: ('A' for Active; 'I' for Inactive)
REMARK    1  A    between atoms: C_2  and  C_3 
REMARK    2  A    between atoms: C_6  and  C_7 
REMARK    3  A    between atoms: C_7  and  C_8 
REMARK    4  A    between atoms: C_8  and  N_9 
REMARK       I    between atoms: N_9  and  C_10 
REMARK       I    between atoms: C_10  and  N_12 
REMARK    5  A    between atoms: N_12  and  C_13 
ROOT
HETATM    1  C   UNL     1     -39.516 -50.760  12.605  1.00  0.00     0.084 C 
ENDROOT
BRANCH   1   2
HETATM    2  C   UNL     1     -40.769 -51.438  13.069  1.00  0.00     0.053 A 
HETATM    3  N   UNL     1     -41.807 -50.814  13.582  1.00  0.00    -0.356 N 
HETATM    4  C   UNL     1     -42.802 -51.725  13.909  1.00  0.00     0.022 A 
ATOM      5  HN  UNL     1     -41.871 -49.806  13.721  1.00  0.00     0.166 HD
HETATM    6  C   UNL     1     -42.490 -53.048  13.637  1.00  0.00     0.003 A 
HETATM    7  S   UNL     1     -40.924 -53.143  12.947  1.00  0.00    -0.080 SA
HETATM    8  C   UNL     1     -43.297 -54.278  13.862  1.00  0.00     0.058 C 
BRANCH   4   9
HETATM    9  C   UNL     1     -44.068 -51.204  14.513  1.00  0.00     0.054 C 
HETATM   10  C   UNL     1     -45.220 -51.175  13.521  1.00  0.00     0.011 C 
ENDBRANCH   4   9
ENDBRANCH   1   2
BRANCH   1  11
HETATM   11  C   UNL     1     -39.746 -49.265  12.384  1.00  0.00     0.131 C 
BRANCH  11  12
HETATM   12  N   UNL     1     -40.312 -48.976  11.073  1.00  0.00    -0.343 N 
HETATM   13  C   UNL     1     -41.549 -48.392  10.953  1.00  0.00     0.316 C 
HETATM   14  O   UNL     1     -42.255 -48.109  11.913  1.00  0.00    -0.247 OA
HETATM   15  N   UNL     1     -41.897 -48.172   9.640  1.00  0.00    -0.339 N 
HETATM   16  H   UNL     1     -41.347 -48.634   8.933  1.00  0.00     0.164 HD
HETATM   17  H   UNL     1     -39.686 -48.936  10.283  1.00  0.00     0.164 HD
BRANCH  15  18
HETATM   18  C   UNL     1     -43.196 -47.691   9.271  1.00  0.00     0.086 A 
HETATM   19  C   UNL     1     -43.652 -47.757   7.839  1.00  0.00     0.027 A 
HETATM   20  C   UNL     1     -43.360 -46.428   8.474  1.00  0.00     0.027 A 
ENDBRANCH  15  18
ENDBRANCH  11  12
ENDBRANCH   1  11
TORSDOF 5
ENDMDL
MODEL 4
REMARK VINA RESULT:      -5.0      3.621      4.337
REMARK  5 active torsions:
REMARK  status: ('A' for Active; 'I' for Inactive)
REMARK    1  A    between atoms: C_2  and  C_3 
REMARK    2  A    between atoms: C_6  and  C_7 
REMARK    3  A    between atoms: C_7  and  C_8 
REMARK    4  A    between atoms: C_8  and  N_9 
REMARK       I    between atoms: N_9  and  C_10 
REMARK       I    between atoms: C_10  and  N_12 
REMARK    5  A    between atoms: N_12  and  C_13 
ROOT
HETATM    1  C   UNL     1     -42.762 -54.117  14.562  1.00  0.00     0.084 C 
ENDROOT
BRANCH   1   2
HETATM    2  C   UNL     1     -44.006 -53.372  14.184  1.00  0.00     0.053 A 
HETATM    3  N   UNL     1     -44.803 -52.773  15.041  1.00  0.00    -0.356 N 
HETATM    4  C   UNL     1     -45.865 -52.175  14.373  1.00  0.00     0.022 A 
ATOM      5  HN  UNL     1     -44.663 -52.750  16.051  1.00  0.00     0.166 HD
HETATM    6  C   UNL     1     -45.852 -52.343  12.997  1.00  0.00     0.003 A 
HETATM    7  S   UNL     1     -44.477 -53.257  12.537  1.00  0.00    -0.080 SA
HETATM    8  C   UNL     1     -46.820 -51.861  11.975  1.00  0.00     0.058 C 
BRANCH   4   9
HETATM    9  C   UNL     1     -46.888 -51.442  15.182  1.00  0.00     0.054 C 
HETATM   10  C   UNL     1     -46.340 -50.958  16.516  1.00  0.00     0.011 C 
ENDBRANCH   4   9
ENDBRANCH   1   2
BRANCH   1  11
HETATM   11  C   UNL     1     -41.773 -54.166  13.397  1.00  0.00     0.131 C 
BRANCH  11  12
HETATM   12  N   UNL     1     -40.673 -53.226  13.560  1.00  0.00    -0.343 N 
HETATM   13  C   UNL     1     -40.464 -52.222  12.647  1.00  0.00     0.316 C 
HETATM   14  O   UNL     1     -41.152 -52.069  11.645  1.00  0.00    -0.247 OA
HETATM   15  N   UNL     1     -39.397 -51.421  12.987  1.00  0.00    -0.339 N 
HETATM   16  H   UNL     1     -38.775 -51.760  13.704  1.00  0.00     0.164 HD
HETATM   17  H   UNL     1     -40.255 -53.135  14.474  1.00  0.00     0.164 HD
BRANCH  15  18
HETATM   18  C   UNL     1     -38.916 -50.390  12.114  1.00  0.00     0.086 A 
HETATM   19  C   UNL     1     -37.474 -50.370  11.685  1.00  0.00     0.027 A 
HETATM   20  C   UNL     1     -37.994 -49.314  12.617  1.00  0.00     0.027 A 
ENDBRANCH  15  18
ENDBRANCH  11  12
ENDBRANCH   1  11
TORSDOF 5
ENDMDL
MODEL 5
REMARK VINA RESULT:      -5.0      2.657      6.689
REMARK  5 active torsions:
REMARK  status: ('A' for Active; 'I' for Inactive)
REMARK    1  A    between atoms: C_2  and  C_3 
REMARK    2  A    between atoms: C_6  and  C_7 
REMARK    3  A    between atoms: C_7  and  C_8 
REMARK    4  A    between atoms: C_8  and  N_9 
REMARK       I    between atoms: N_9  and  C_10 
REMARK       I    between atoms: C_10  and  N_12 
REMARK    5  A    between atoms: N_12  and  C_13 
ROOT
HETATM    1  C   UNL     1     -40.967 -50.490  12.589  1.00  0.00     0.084 C 
ENDROOT
BRANCH   1   2
HETATM    2  C   UNL     1     -41.319 -49.242  11.839  1.00  0.00     0.053 A 
HETATM    3  N   UNL     1     -42.447 -49.057  11.188  1.00  0.00    -0.356 N 
HETATM    4  C   UNL     1     -42.464 -47.798  10.603  1.00  0.00     0.022 A 
ATOM      5  HN  UNL     1     -43.201 -49.741  11.123  1.00  0.00     0.166 HD
HETATM    6  C   UNL     1     -41.323 -47.041  10.821  1.00  0.00     0.003 A 
HETATM    7  S   UNL     1     -40.219 -47.925  11.789  1.00  0.00    -0.080 SA
HETATM    8  C   UNL     1     -40.988 -45.672  10.345  1.00  0.00     0.058 C 
BRANCH   4   9
HETATM    9  C   UNL     1     -43.670 -47.401   9.811  1.00  0.00     0.054 C 
HETATM   10  C   UNL     1     -43.504 -47.663   8.323  1.00  0.00     0.011 C 
ENDBRANCH   4   9
ENDBRANCH   1   2
BRANCH   1  11
HETATM   11  C   UNL     1     -41.091 -51.724  11.695  1.00  0.00     0.131 C 
BRANCH  11  12
HETATM   12  N   UNL     1     -42.377 -52.390  11.839  1.00  0.00    -0.343 N 
HETATM   13  C   UNL     1     -42.627 -53.217  12.906  1.00  0.00     0.316 C 
HETATM   14  O   UNL     1     -41.798 -53.468  13.772  1.00  0.00    -0.247 OA
HETATM   15  N   UNL     1     -43.905 -53.729  12.882  1.00  0.00    -0.339 N 
HETATM   16  H   UNL     1     -44.425 -53.634  12.023  1.00  0.00     0.164 HD
HETATM   17  H   UNL     1     -43.164 -52.022  11.325  1.00  0.00     0.164 HD
BRANCH  15  18
HETATM   18  C   UNL     1     -44.343 -54.716  13.825  1.00  0.00     0.086 A 
HETATM   19  C   UNL     1     -45.805 -55.054  13.948  1.00  0.00     0.027 A 
HETATM   20  C   UNL     1     -45.106 -54.326  15.060  1.00  0.00     0.027 A 
ENDBRANCH  15  18
ENDBRANCH  11  12
ENDBRANCH   1  11
TORSDOF 5
ENDMDL
MODEL 6
REMARK VINA RESULT:      -5.0      3.831      6.125
REMARK  5 active torsions:
REMARK  status: ('A' for Active; 'I' for Inactive)
REMARK    1  A    between atoms: C_2  and  C_3 
REMARK    2  A    between atoms: C_6  and  C_7 
REMARK    3  A    between atoms: C_7  and  C_8 
REMARK    4  A    between atoms: C_8  and  N_9 
REMARK       I    between atoms: N_9  and  C_10 
REMARK       I    between atoms: C_10  and  N_12 
REMARK    5  A    between atoms: N_12  and  C_13 
ROOT
HETATM    1  C   UNL     1     -40.245 -53.386  13.912  1.00  0.00     0.084 C 
ENDROOT
BRANCH   1   2
HETATM    2  C   UNL     1     -39.931 -51.924  13.811  1.00  0.00     0.053 A 
HETATM    3  N   UNL     1     -39.080 -51.403  12.955  1.00  0.00    -0.356 N 
HETATM    4  C   UNL     1     -39.017 -50.025  13.119  1.00  0.00     0.022 A 
ATOM      5  HN  UNL     1     -38.542 -51.934  12.271  1.00  0.00     0.166 HD
HETATM    6  C   UNL     1     -39.834 -49.521  14.118  1.00  0.00     0.003 A 
HETATM    7  S   UNL     1     -40.704 -50.802  14.855  1.00  0.00    -0.080 SA
HETATM    8  C   UNL     1     -40.016 -48.117  14.577  1.00  0.00     0.058 C 
BRANCH   4   9
HETATM    9  C   UNL     1     -38.095 -49.248  12.232  1.00  0.00     0.054 C 
HETATM   10  C   UNL     1     -37.364 -50.131  11.233  1.00  0.00     0.011 C 
ENDBRANCH   4   9
ENDBRANCH   1   2
BRANCH   1  11
HETATM   11  C   UNL     1     -40.971 -53.881  12.662  1.00  0.00     0.131 C 
BRANCH  11  12
HETATM   12  N   UNL     1     -42.127 -53.063  12.326  1.00  0.00    -0.343 N 
HETATM   13  C   UNL     1     -43.370 -53.357  12.832  1.00  0.00     0.316 C 
HETATM   14  O   UNL     1     -43.590 -54.320  13.557  1.00  0.00    -0.247 OA
HETATM   15  N   UNL     1     -44.326 -52.454  12.426  1.00  0.00    -0.339 N 
HETATM   16  H   UNL     1     -44.085 -51.836  11.667  1.00  0.00     0.164 HD
HETATM   17  H   UNL     1     -41.965 -52.133  11.970  1.00  0.00     0.164 HD
BRANCH  15  18
HETATM   18  C   UNL     1     -45.716 -52.637  12.727  1.00  0.00     0.086 A 
HETATM   19  C   UNL     1     -46.767 -51.906  11.936  1.00  0.00     0.027 A 
HETATM   20  C   UNL     1     -46.522 -51.545  13.373  1.00  0.00     0.027 A 
ENDBRANCH  15  18
ENDBRANCH  11  12
ENDBRANCH   1  11
TORSDOF 5
ENDMDL
MODEL 7
REMARK VINA RESULT:      -4.9      2.558      3.116
REMARK  5 active torsions:
REMARK  status: ('A' for Active; 'I' for Inactive)
REMARK    1  A    between atoms: C_2  and  C_3 
REMARK    2  A    between atoms: C_6  and  C_7 
REMARK    3  A    between atoms: C_7  and  C_8 
REMARK    4  A    between atoms: C_8  and  N_9 
REMARK       I    between atoms: N_9  and  C_10 
REMARK       I    between atoms: C_10  and  N_12 
REMARK    5  A    between atoms: N_12  and  C_13 
ROOT
HETATM    1  C   UNL     1     -40.766 -51.516  11.755  1.00  0.00     0.084 C 
ENDROOT
BRANCH   1   2
HETATM    2  C   UNL     1     -42.119 -51.823  12.320  1.00  0.00     0.053 A 
HETATM    3  N   UNL     1     -42.699 -53.002  12.264  1.00  0.00    -0.356 N 
HETATM    4  C   UNL     1     -43.943 -52.955  12.879  1.00  0.00     0.022 A 
ATOM      5  HN  UNL     1     -42.293 -53.831  11.831  1.00  0.00     0.166 HD
HETATM    6  C   UNL     1     -44.290 -51.716  13.393  1.00  0.00     0.003 A 
HETATM    7  S   UNL     1     -43.024 -50.596  13.109  1.00  0.00    -0.080 SA
HETATM    8  C   UNL     1     -45.532 -51.296  14.097  1.00  0.00     0.058 C 
BRANCH   4   9
HETATM    9  C   UNL     1     -44.763 -54.207  12.914  1.00  0.00     0.054 C 
HETATM   10  C   UNL     1     -44.635 -54.953  14.232  1.00  0.00     0.011 C 
ENDBRANCH   4   9
ENDBRANCH   1   2
BRANCH   1  11
HETATM   11  C   UNL     1     -40.172 -50.261  12.395  1.00  0.00     0.131 C 
BRANCH  11  12
HETATM   12  N   UNL     1     -39.913 -49.209  11.423  1.00  0.00    -0.343 N 
HETATM   13  C   UNL     1     -40.293 -47.912  11.670  1.00  0.00     0.316 C 
HETATM   14  O   UNL     1     -40.886 -47.567  12.685  1.00  0.00    -0.247 OA
HETATM   15  N   UNL     1     -39.936 -47.060  10.650  1.00  0.00    -0.339 N 
HETATM   16  H   UNL     1     -39.651 -47.478   9.778  1.00  0.00     0.164 HD
HETATM   17  H   UNL     1     -39.211 -49.374  10.718  1.00  0.00     0.164 HD
BRANCH  15  18
HETATM   18  C   UNL     1     -40.344 -45.686  10.634  1.00  0.00     0.086 A 
HETATM   19  C   UNL     1     -39.500 -44.651   9.940  1.00  0.00     0.027 A 
HETATM   20  C   UNL     1     -39.612 -44.648  11.438  1.00  0.00     0.027 A 
ENDBRANCH  15  18
ENDBRANCH  11  12
ENDBRANCH   1  11
TORSDOF 5
ENDMDL
MODEL 8
REMARK VINA RESULT:      -4.9      4.845      7.439
REMARK  5 active torsions:
REMARK  status: ('A' for Active; 'I' for Inactive)
REMARK    1  A    between atoms: C_2  and  C_3 
REMARK    2  A    between atoms: C_6  and  C_7 
REMARK    3  A    between atoms: C_7  and  C_8 
REMARK    4  A    between atoms: C_8  and  N_9 
REMARK       I    between atoms: N_9  and  C_10 
REMARK       I    between atoms: C_10  and  N_12 
REMARK    5  A    between atoms: N_12  and  C_13 
ROOT
HETATM    1  C   UNL     1     -42.642 -46.342   9.535  1.00  0.00     0.084 C 
ENDROOT
BRANCH   1   2
HETATM    2  C   UNL     1     -42.104 -45.500  10.652  1.00  0.00     0.053 A 
HETATM    3  N   UNL     1     -42.835 -44.992  11.620  1.00  0.00    -0.356 N 
HETATM    4  C   UNL     1     -42.038 -44.264  12.493  1.00  0.00     0.022 A 
ATOM      5  HN  UNL     1     -43.843 -45.115  11.715  1.00  0.00     0.166 HD
HETATM    6  C   UNL     1     -40.693 -44.229  12.158  1.00  0.00     0.003 A 
HETATM    7  S   UNL     1     -40.428 -45.138  10.729  1.00  0.00    -0.080 SA
HETATM    8  C   UNL     1     -39.563 -43.546  12.845  1.00  0.00     0.058 C 
BRANCH   4   9
HETATM    9  C   UNL     1     -42.692 -43.602  13.664  1.00  0.00     0.054 C 
HETATM   10  C   UNL     1     -42.785 -44.517  14.876  1.00  0.00     0.011 C 
ENDBRANCH   4   9
ENDBRANCH   1   2
BRANCH   1  11
HETATM   11  C   UNL     1     -42.798 -47.799   9.969  1.00  0.00     0.131 C 
BRANCH  11  12
HETATM   12  N   UNL     1     -41.542 -48.534   9.918  1.00  0.00    -0.343 N 
HETATM   13  C   UNL     1     -40.956 -49.008  11.066  1.00  0.00     0.316 C 
HETATM   14  O   UNL     1     -41.422 -48.825  12.184  1.00  0.00    -0.247 OA
HETATM   15  N   UNL     1     -39.794 -49.700  10.812  1.00  0.00    -0.339 N 
HETATM   16  H   UNL     1     -39.392 -49.606   9.892  1.00  0.00     0.164 HD
HETATM   17  H   UNL     1     -41.263 -48.939   9.037  1.00  0.00     0.164 HD
BRANCH  15  18
HETATM   18  C   UNL     1     -38.947 -50.173  11.868  1.00  0.00     0.086 A 
HETATM   19  C   UNL     1     -37.906 -49.268  12.469  1.00  0.00     0.027 A 
HETATM   20  C   UNL     1     -37.487 -50.442  11.632  1.00  0.00     0.027 A 
ENDBRANCH  15  18
ENDBRANCH  11  12
ENDBRANCH   1  11
TORSDOF 5
ENDMDL
MODEL 9
REMARK VINA RESULT:      -4.6      3.448      7.165
REMARK  5 active torsions:
REMARK  status: ('A' for Active; 'I' for Inactive)
REMARK    1  A    between atoms: C_2  and  C_3 
REMARK    2  A    between atoms: C_6  and  C_7 
REMARK    3  A    between atoms: C_7  and  C_8 
REMARK    4  A    between atoms: C_8  and  N_9 
REMARK       I    between atoms: N_9  and  C_10 
REMARK       I    between atoms: C_10  and  N_12 
REMARK    5  A    between atoms: N_12  and  C_13 
ROOT
HETATM    1  C   UNL     1     -39.588 -49.705  12.505  1.00  0.00     0.084 C 
ENDROOT
BRANCH   1   2
HETATM    2  C   UNL     1     -39.662 -48.214  12.379  1.00  0.00     0.053 A 
HETATM    3  N   UNL     1     -40.152 -47.578  11.337  1.00  0.00    -0.356 N 
HETATM    4  C   UNL     1     -40.076 -46.205  11.532  1.00  0.00     0.022 A 
ATOM      5  HN  UNL     1     -40.532 -48.029  10.505  1.00  0.00     0.166 HD
HETATM    6  C   UNL     1     -39.514 -45.821  12.739  1.00  0.00     0.003 A 
HETATM    7  S   UNL     1     -39.086 -47.210  13.647  1.00  0.00    -0.080 SA
HETATM    8  C   UNL     1     -39.264 -44.456  13.277  1.00  0.00     0.058 C 
BRANCH   4   9
HETATM    9  C   UNL     1     -40.584 -45.307  10.448  1.00  0.00     0.054 C 
HETATM   10  C   UNL     1     -42.048 -45.555  10.123  1.00  0.00     0.011 C 
ENDBRANCH   4   9
ENDBRANCH   1   2
BRANCH   1  11
HETATM   11  C   UNL     1     -40.304 -50.393  11.344  1.00  0.00     0.131 C 
BRANCH  11  12
HETATM   12  N   UNL     1     -41.633 -50.864  11.708  1.00  0.00    -0.343 N 
HETATM   13  C   UNL     1     -41.847 -52.179  12.042  1.00  0.00     0.316 C 
HETATM   14  O   UNL     1     -40.965 -53.029  12.029  1.00  0.00    -0.247 OA
HETATM   15  N   UNL     1     -43.158 -52.424  12.383  1.00  0.00    -0.339 N 
HETATM   16  H   UNL     1     -43.835 -51.713  12.153  1.00  0.00     0.164 HD
HETATM   17  H   UNL     1     -42.319 -50.181  11.992  1.00  0.00     0.164 HD
BRANCH  15  18
HETATM   18  C   UNL     1     -43.638 -53.750  12.642  1.00  0.00     0.086 A 
HETATM   19  C   UNL     1     -45.012 -53.961  13.218  1.00  0.00     0.027 A 
HETATM   20  C   UNL     1     -43.796 -54.258  14.048  1.00  0.00     0.027 A 
ENDBRANCH  15  18
ENDBRANCH  11  12
ENDBRANCH   1  11
TORSDOF 5
ENDMDL
