MODEL 1
REMARK VINA RESULT:      -5.6      0.000      0.000
REMARK  4 active torsions:
REMARK  status: ('A' for Active; 'I' for Inactive)
REMARK    1  A    between atoms: C_2  and  C_3 
REMARK       I    between atoms: C_2  and  N_11 
REMARK    2  A    between atoms: C_3  and  O_4 
REMARK    3  A    between atoms: O_4  and  C_5 
REMARK    4  A    between atoms: N_11  and  C_12 
ROOT
HETATM    1  O   UNL     1     -40.421 -51.619  12.474  1.00  0.00    -0.271 OA
HETATM    2  C   UNL     1     -41.605 -51.417  12.213  1.00  0.00     0.246 C 
HETATM    3  N   UNL     1     -42.171 -50.224  11.815  1.00  0.00    -0.310 N 
HETATM    4  H   UNL     1     -43.162 -50.232  11.618  1.00  0.00     0.170 HD
ENDROOT
BRANCH   2   5
HETATM    5  C   UNL     1     -42.610 -52.560  12.412  1.00  0.00     0.271 C 
BRANCH   5   6
HETATM    6  O   UNL     1     -43.750 -52.293  13.219  1.00  0.00    -0.377 OA
BRANCH   6   7
HETATM    7  C   UNL     1     -44.959 -52.890  12.698  1.00  0.00     0.122 C 
HETATM    8  C   UNL     1     -46.167 -51.937  12.666  1.00  0.00     0.032 C 
HETATM    9  C   UNL     1     -46.552 -51.463  14.065  1.00  0.00     0.002 C 
HETATM   10  C   UNL     1     -46.851 -52.644  14.985  1.00  0.00     0.000 C 
HETATM   11  C   UNL     1     -45.718 -53.669  14.994  1.00  0.00     0.002 C 
HETATM   12  C   UNL     1     -45.313 -54.095  13.580  1.00  0.00     0.032 C 
ENDBRANCH   6   7
ENDBRANCH   5   6
ENDBRANCH   2   5
BRANCH   3  13
HETATM   13  C   UNL     1     -41.448 -49.031  11.630  1.00  0.00     0.123 A 
HETATM   14  C   UNL     1     -41.799 -48.165  10.594  1.00  0.00     0.136 A 
HETATM   15  N   UNL     1     -41.153 -47.000  10.328  1.00  0.00    -0.371 N 
HETATM   16  C   UNL     1     -40.117 -46.720  11.149  1.00  0.00     0.104 A 
ATOM     17  HN  UNL     1     -41.429 -46.383   9.564  1.00  0.00     0.164 HD
HETATM   18  C   UNL     1     -39.759 -47.560  12.185  1.00  0.00     0.106 A 
HETATM   19  N   UNL     1     -40.415 -48.715  12.440  1.00  0.00    -0.350 N 
ATOM     20  HN  UNL     1     -40.141 -49.322  13.212  1.00  0.00     0.166 HD
ENDBRANCH   3  13
TORSDOF 4
ENDMDL
MODEL 2
REMARK VINA RESULT:      -5.6      2.091      2.337
REMARK  4 active torsions:
REMARK  status: ('A' for Active; 'I' for Inactive)
REMARK    1  A    between atoms: C_2  and  C_3 
REMARK       I    between atoms: C_2  and  N_11 
REMARK    2  A    between atoms: C_3  and  O_4 
REMARK    3  A    between atoms: O_4  and  C_5 
REMARK    4  A    between atoms: N_11  and  C_12 
ROOT
HETATM    1  O   UNL     1     -40.147 -54.167  13.004  1.00  0.00    -0.271 OA
HETATM    2  C   UNL     1     -41.108 -53.411  13.126  1.00  0.00     0.246 C 
HETATM    3  N   UNL     1     -41.117 -52.047  12.919  1.00  0.00    -0.310 N 
HETATM    4  H   UNL     1     -42.001 -51.572  13.042  1.00  0.00     0.170 HD
ENDROOT
BRANCH   2   5
HETATM    5  C   UNL     1     -42.438 -53.983  13.634  1.00  0.00     0.271 C 
BRANCH   5   6
HETATM    6  O   UNL     1     -43.562 -53.111  13.645  1.00  0.00    -0.377 OA
BRANCH   6   7
HETATM    7  C   UNL     1     -44.679 -53.624  12.885  1.00  0.00     0.122 C 
HETATM    8  C   UNL     1     -45.763 -52.576  12.575  1.00  0.00     0.032 C 
HETATM    9  C   UNL     1     -46.395 -52.023  13.850  1.00  0.00     0.002 C 
HETATM   10  C   UNL     1     -46.988 -53.142  14.703  1.00  0.00     0.000 C 
HETATM   11  C   UNL     1     -45.978 -54.256  14.974  1.00  0.00     0.002 C 
HETATM   12  C   UNL     1     -45.319 -54.764  13.690  1.00  0.00     0.032 C 
ENDBRANCH   6   7
ENDBRANCH   5   6
ENDBRANCH   2   5
BRANCH   3  13
HETATM   13  C   UNL     1     -39.994 -51.303  12.511  1.00  0.00     0.123 A 
HETATM   14  C   UNL     1     -40.103 -50.423  11.436  1.00  0.00     0.136 A 
HETATM   15  N   UNL     1     -39.073 -49.674  10.961  1.00  0.00    -0.371 N 
HETATM   16  C   UNL     1     -37.900 -49.838  11.611  1.00  0.00     0.104 A 
ATOM     17  HN  UNL     1     -39.178 -49.035  10.173  1.00  0.00     0.164 HD
HETATM   18  C   UNL     1     -37.774 -50.700  12.683  1.00  0.00     0.106 A 
HETATM   19  N   UNL     1     -38.810 -51.435  13.146  1.00  0.00    -0.350 N 
ATOM     20  HN  UNL     1     -38.701 -52.063  13.941  1.00  0.00     0.166 HD
ENDBRANCH   3  13
TORSDOF 4
ENDMDL
MODEL 3
REMARK VINA RESULT:      -5.3      1.403      1.983
REMARK  4 active torsions:
REMARK  status: ('A' for Active; 'I' for Inactive)
REMARK    1  A    between atoms: C_2  and  C_3 
REMARK       I    between atoms: C_2  and  N_11 
REMARK    2  A    between atoms: C_3  and  O_4 
REMARK    3  A    between atoms: O_4  and  C_5 
REMARK    4  A    between atoms: N_11  and  C_12 
ROOT
HETATM    1  O   UNL     1     -39.881 -50.072  12.330  1.00  0.00    -0.271 OA
HETATM    2  C   UNL     1     -40.976 -50.480  11.947  1.00  0.00     0.246 C 
HETATM    3  N   UNL     1     -41.988 -49.728  11.388  1.00  0.00    -0.310 N 
HETATM    4  H   UNL     1     -42.823 -50.223  11.107  1.00  0.00     0.170 HD
ENDROOT
BRANCH   2   5
HETATM    5  C   UNL     1     -41.331 -51.957  12.165  1.00  0.00     0.271 C 
BRANCH   5   6
HETATM    6  O   UNL     1     -42.696 -52.328  12.017  1.00  0.00    -0.377 OA
BRANCH   6   7
HETATM    7  C   UNL     1     -43.240 -52.951  13.202  1.00  0.00     0.122 C 
HETATM    8  C   UNL     1     -44.577 -53.679  12.971  1.00  0.00     0.032 C 
HETATM    9  C   UNL     1     -45.672 -52.719  12.512  1.00  0.00     0.002 C 
HETATM   10  C   UNL     1     -45.868 -51.585  13.515  1.00  0.00     0.000 C 
HETATM   11  C   UNL     1     -44.555 -50.876  13.848  1.00  0.00     0.002 C 
HETATM   12  C   UNL     1     -43.456 -51.859  14.259  1.00  0.00     0.032 C 
ENDBRANCH   6   7
ENDBRANCH   5   6
ENDBRANCH   2   5
BRANCH   3  13
HETATM   13  C   UNL     1     -41.904 -48.342  11.154  1.00  0.00     0.123 A 
HETATM   14  C   UNL     1     -43.058 -47.562  11.213  1.00  0.00     0.136 A 
HETATM   15  N   UNL     1     -43.080 -46.222  10.987  1.00  0.00    -0.371 N 
HETATM   16  C   UNL     1     -41.881 -45.672  10.693  1.00  0.00     0.104 A 
ATOM     17  HN  UNL     1     -43.937 -45.672  11.037  1.00  0.00     0.164 HD
HETATM   18  C   UNL     1     -40.726 -46.427  10.638  1.00  0.00     0.106 A 
HETATM   19  N   UNL     1     -40.721 -47.759  10.869  1.00  0.00    -0.350 N 
ATOM     20  HN  UNL     1     -39.858 -48.301  10.829  1.00  0.00     0.166 HD
ENDBRANCH   3  13
TORSDOF 4
ENDMDL
MODEL 4
REMARK VINA RESULT:      -5.1      2.947      3.694
REMARK  4 active torsions:
REMARK  status: ('A' for Active; 'I' for Inactive)
REMARK    1  A    between atoms: C_2  and  C_3 
REMARK       I    between atoms: C_2  and  N_11 
REMARK    2  A    between atoms: C_3  and  O_4 
REMARK    3  A    between atoms: O_4  and  C_5 
REMARK    4  A    between atoms: N_11  and  C_12 
ROOT
HETATM    1  O   UNL     1     -41.673 -50.126  13.108  1.00  0.00    -0.271 OA
HETATM    2  C   UNL     1     -41.315 -50.622  12.042  1.00  0.00     0.246 C 
HETATM    3  N   UNL     1     -41.013 -49.946  10.878  1.00  0.00    -0.310 N 
HETATM    4  H   UNL     1     -40.713 -50.505  10.090  1.00  0.00     0.170 HD
ENDROOT
BRANCH   2   5
HETATM    5  C   UNL     1     -41.259 -52.151  11.919  1.00  0.00     0.271 C 
BRANCH   5   6
HETATM    6  O   UNL     1     -40.193 -52.819  12.582  1.00  0.00    -0.377 OA
BRANCH   6   7
HETATM    7  C   UNL     1     -40.585 -54.099  13.126  1.00  0.00     0.122 C 
HETATM    8  C   UNL     1     -41.819 -54.041  14.044  1.00  0.00     0.032 C 
HETATM    9  C   UNL     1     -41.570 -53.168  15.272  1.00  0.00     0.002 C 
HETATM   10  C   UNL     1     -40.361 -53.661  16.063  1.00  0.00     0.000 C 
HETATM   11  C   UNL     1     -39.122 -53.819  15.184  1.00  0.00     0.002 C 
HETATM   12  C   UNL     1     -39.404 -54.656  13.933  1.00  0.00     0.032 C 
ENDBRANCH   6   7
ENDBRANCH   5   6
ENDBRANCH   2   5
BRANCH   3  13
HETATM   13  C   UNL     1     -41.059 -48.546  10.744  1.00  0.00     0.123 A 
HETATM   14  C   UNL     1     -42.107 -47.954  10.040  1.00  0.00     0.136 A 
HETATM   15  N   UNL     1     -42.229 -46.614   9.846  1.00  0.00    -0.371 N 
HETATM   16  C   UNL     1     -41.244 -45.866  10.389  1.00  0.00     0.104 A 
ATOM     17  HN  UNL     1     -43.006 -46.205   9.328  1.00  0.00     0.164 HD
HETATM   18  C   UNL     1     -40.202 -46.433  11.095  1.00  0.00     0.106 A 
HETATM   19  N   UNL     1     -40.097 -47.768  11.284  1.00  0.00    -0.350 N 
ATOM     20  HN  UNL     1     -39.323 -48.170  11.812  1.00  0.00     0.166 HD
ENDBRANCH   3  13
TORSDOF 4
ENDMDL
MODEL 5
REMARK VINA RESULT:      -5.1      2.006      2.812
REMARK  4 active torsions:
REMARK  status: ('A' for Active; 'I' for Inactive)
REMARK    1  A    between atoms: C_2  and  C_3 
REMARK       I    between atoms: C_2  and  N_11 
REMARK    2  A    between atoms: C_3  and  O_4 
REMARK    3  A    between atoms: O_4  and  C_5 
REMARK    4  A    between atoms: N_11  and  C_12 
ROOT
HETATM    1  O   UNL     1     -43.050 -48.837  14.108  1.00  0.00    -0.271 OA
HETATM    2  C   UNL     1     -43.369 -49.474  13.106  1.00  0.00     0.246 C 
HETATM    3  N   UNL     1     -43.198 -49.087  11.793  1.00  0.00    -0.310 N 
HETATM    4  H   UNL     1     -43.498 -49.740  11.082  1.00  0.00     0.170 HD
ENDROOT
BRANCH   2   5
HETATM    5  C   UNL     1     -44.108 -50.807  13.282  1.00  0.00     0.271 C 
BRANCH   5   6
HETATM    6  O   UNL     1     -43.381 -51.885  13.859  1.00  0.00    -0.377 OA
BRANCH   6   7
HETATM    7  C   UNL     1     -43.256 -53.017  12.971  1.00  0.00     0.122 C 
HETATM    8  C   UNL     1     -44.444 -53.994  13.027  1.00  0.00     0.032 C 
HETATM    9  C   UNL     1     -44.600 -54.617  14.413  1.00  0.00     0.002 C 
HETATM   10  C   UNL     1     -43.323 -55.332  14.843  1.00  0.00     0.000 C 
HETATM   11  C   UNL     1     -42.092 -54.434  14.729  1.00  0.00     0.002 C 
HETATM   12  C   UNL     1     -41.979 -53.781  13.348  1.00  0.00     0.032 C 
ENDBRANCH   6   7
ENDBRANCH   5   6
ENDBRANCH   2   5
BRANCH   3  13
HETATM   13  C   UNL     1     -42.601 -47.875  11.399  1.00  0.00     0.123 A 
HETATM   14  C   UNL     1     -41.373 -47.894  10.738  1.00  0.00     0.136 A 
HETATM   15  N   UNL     1     -40.713 -46.777  10.332  1.00  0.00    -0.371 N 
HETATM   16  C   UNL     1     -41.334 -45.612  10.616  1.00  0.00     0.104 A 
ATOM     17  HN  UNL     1     -39.816 -46.817   9.849  1.00  0.00     0.164 HD
HETATM   18  C   UNL     1     -42.553 -45.573  11.263  1.00  0.00     0.106 A 
HETATM   19  N   UNL     1     -43.200 -46.693  11.657  1.00  0.00    -0.350 N 
ATOM     20  HN  UNL     1     -44.102 -46.647  12.129  1.00  0.00     0.166 HD
ENDBRANCH   3  13
TORSDOF 4
ENDMDL
MODEL 6
REMARK VINA RESULT:      -5.1      1.835      2.338
REMARK  4 active torsions:
REMARK  status: ('A' for Active; 'I' for Inactive)
REMARK    1  A    between atoms: C_2  and  C_3 
REMARK       I    between atoms: C_2  and  N_11 
REMARK    2  A    between atoms: C_3  and  O_4 
REMARK    3  A    between atoms: O_4  and  C_5 
REMARK    4  A    between atoms: N_11  and  C_12 
ROOT
HETATM    1  O   UNL     1     -42.987 -48.790  14.004  1.00  0.00    -0.271 OA
HETATM    2  C   UNL     1     -43.244 -49.405  12.971  1.00  0.00     0.246 C 
HETATM    3  N   UNL     1     -43.040 -48.968  11.678  1.00  0.00    -0.310 N 
HETATM    4  H   UNL     1     -43.286 -49.608  10.936  1.00  0.00     0.170 HD
ENDROOT
BRANCH   2   5
HETATM    5  C   UNL     1     -43.934 -50.771  13.075  1.00  0.00     0.271 C 
BRANCH   5   6
HETATM    6  O   UNL     1     -44.727 -51.014  14.231  1.00  0.00    -0.377 OA
BRANCH   6   7
HETATM    7  C   UNL     1     -46.103 -51.320  13.914  1.00  0.00     0.122 C 
HETATM    8  C   UNL     1     -46.980 -51.620  15.143  1.00  0.00     0.032 C 
HETATM    9  C   UNL     1     -46.485 -52.849  15.904  1.00  0.00     0.002 C 
HETATM   10  C   UNL     1     -46.431 -54.075  14.997  1.00  0.00     0.000 C 
HETATM   11  C   UNL     1     -45.641 -53.810  13.716  1.00  0.00     0.002 C 
HETATM   12  C   UNL     1     -46.119 -52.548  12.993  1.00  0.00     0.032 C 
ENDBRANCH   6   7
ENDBRANCH   5   6
ENDBRANCH   2   5
BRANCH   3  13
HETATM   13  C   UNL     1     -42.477 -47.721  11.346  1.00  0.00     0.123 A 
HETATM   14  C   UNL     1     -41.246 -47.671  10.693  1.00  0.00     0.136 A 
HETATM   15  N   UNL     1     -40.618 -46.517  10.345  1.00  0.00    -0.371 N 
HETATM   16  C   UNL     1     -41.275 -45.386  10.681  1.00  0.00     0.104 A 
ATOM     17  HN  UNL     1     -39.718 -46.507   9.867  1.00  0.00     0.164 HD
HETATM   18  C   UNL     1     -42.499 -45.414  11.321  1.00  0.00     0.106 A 
HETATM   19  N   UNL     1     -43.113 -46.571  11.657  1.00  0.00    -0.350 N 
ATOM     20  HN  UNL     1     -44.018 -46.575  12.125  1.00  0.00     0.166 HD
ENDBRANCH   3  13
TORSDOF 4
ENDMDL
MODEL 7
REMARK VINA RESULT:      -5.1      4.771      6.650
REMARK  4 active torsions:
REMARK  status: ('A' for Active; 'I' for Inactive)
REMARK    1  A    between atoms: C_2  and  C_3 
REMARK       I    between atoms: C_2  and  N_11 
REMARK    2  A    between atoms: C_3  and  O_4 
REMARK    3  A    between atoms: O_4  and  C_5 
REMARK    4  A    between atoms: N_11  and  C_12 
ROOT
HETATM    1  O   UNL     1     -41.502 -48.808  10.779  1.00  0.00    -0.271 OA
HETATM    2  C   UNL     1     -41.424 -47.593  10.608  1.00  0.00     0.246 C 
HETATM    3  N   UNL     1     -42.326 -46.795   9.936  1.00  0.00    -0.310 N 
HETATM    4  H   UNL     1     -42.124 -45.805   9.903  1.00  0.00     0.170 HD
ENDROOT
BRANCH   2   5
HETATM    5  C   UNL     1     -40.174 -46.855  11.106  1.00  0.00     0.271 C 
BRANCH   5   6
HETATM    6  O   UNL     1     -39.330 -47.544  12.020  1.00  0.00    -0.377 OA
BRANCH   6   7
HETATM    7  C   UNL     1     -39.659 -47.274  13.401  1.00  0.00     0.122 C 
HETATM    8  C   UNL     1     -38.497 -46.689  14.221  1.00  0.00     0.032 C 
HETATM    9  C   UNL     1     -37.315 -47.653  14.296  1.00  0.00     0.002 C 
HETATM   10  C   UNL     1     -37.736 -48.997  14.884  1.00  0.00     0.000 C 
HETATM   11  C   UNL     1     -38.943 -49.590  14.160  1.00  0.00     0.002 C 
HETATM   12  C   UNL     1     -40.100 -48.593  14.052  1.00  0.00     0.032 C 
ENDBRANCH   6   7
ENDBRANCH   5   6
ENDBRANCH   2   5
BRANCH   3  13
HETATM   13  C   UNL     1     -43.512 -47.270   9.344  1.00  0.00     0.123 A 
HETATM   14  C   UNL     1     -43.478 -47.781   8.047  1.00  0.00     0.136 A 
HETATM   15  N   UNL     1     -44.570 -48.248   7.387  1.00  0.00    -0.371 N 
HETATM   16  C   UNL     1     -45.727 -48.186   8.082  1.00  0.00     0.104 A 
ATOM     17  HN  UNL     1     -44.520 -48.618   6.438  1.00  0.00     0.164 HD
HETATM   18  C   UNL     1     -45.779 -47.690   9.370  1.00  0.00     0.106 A 
HETATM   19  N   UNL     1     -44.682 -47.233  10.014  1.00  0.00    -0.350 N 
ATOM     20  HN  UNL     1     -44.738 -46.874  10.967  1.00  0.00     0.166 HD
ENDBRANCH   3  13
TORSDOF 4
ENDMDL
MODEL 8
REMARK VINA RESULT:      -5.0      2.839      7.026
REMARK  4 active torsions:
REMARK  status: ('A' for Active; 'I' for Inactive)
REMARK    1  A    between atoms: C_2  and  C_3 
REMARK       I    between atoms: C_2  and  N_11 
REMARK    2  A    between atoms: C_3  and  O_4 
REMARK    3  A    between atoms: O_4  and  C_5 
REMARK    4  A    between atoms: N_11  and  C_12 
ROOT
HETATM    1  O   UNL     1     -42.303 -51.079  14.114  1.00  0.00    -0.271 OA
HETATM    2  C   UNL     1     -42.370 -51.264  12.900  1.00  0.00     0.246 C 
HETATM    3  N   UNL     1     -43.135 -52.210  12.252  1.00  0.00    -0.310 N 
HETATM    4  H   UNL     1     -43.093 -52.218  11.241  1.00  0.00     0.170 HD
ENDROOT
BRANCH   2   5
HETATM    5  C   UNL     1     -41.470 -50.435  11.975  1.00  0.00     0.271 C 
BRANCH   5   6
HETATM    6  O   UNL     1     -40.107 -50.828  11.866  1.00  0.00    -0.377 OA
BRANCH   6   7
HETATM    7  C   UNL     1     -39.195 -49.707  11.893  1.00  0.00     0.122 C 
HETATM    8  C   UNL     1     -37.726 -50.086  11.637  1.00  0.00     0.032 C 
HETATM    9  C   UNL     1     -37.191 -51.034  12.709  1.00  0.00     0.002 C 
HETATM   10  C   UNL     1     -37.333 -50.428  14.102  1.00  0.00     0.000 C 
HETATM   11  C   UNL     1     -38.758 -49.954  14.383  1.00  0.00     0.002 C 
HETATM   12  C   UNL     1     -39.294 -49.045  13.275  1.00  0.00     0.032 C 
ENDBRANCH   6   7
ENDBRANCH   5   6
ENDBRANCH   2   5
BRANCH   3  13
HETATM   13  C   UNL     1     -43.988 -53.120  12.906  1.00  0.00     0.123 A 
HETATM   14  C   UNL     1     -45.369 -52.947  12.830  1.00  0.00     0.136 A 
HETATM   15  N   UNL     1     -46.270 -53.762  13.438  1.00  0.00    -0.371 N 
HETATM   16  C   UNL     1     -45.733 -54.781  14.144  1.00  0.00     0.104 A 
ATOM     17  HN  UNL     1     -47.277 -53.615  13.367  1.00  0.00     0.164 HD
HETATM   18  C   UNL     1     -44.368 -54.973  14.225  1.00  0.00     0.106 A 
HETATM   19  N   UNL     1     -43.485 -54.155  13.610  1.00  0.00    -0.350 N 
ATOM     20  HN  UNL     1     -42.480 -54.314  13.676  1.00  0.00     0.166 HD
ENDBRANCH   3  13
TORSDOF 4
ENDMDL
MODEL 9
REMARK VINA RESULT:      -4.9      3.079      7.009
REMARK  4 active torsions:
REMARK  status: ('A' for Active; 'I' for Inactive)
REMARK    1  A    between atoms: C_2  and  C_3 
REMARK       I    between atoms: C_2  and  N_11 
REMARK    2  A    between atoms: C_3  and  O_4 
REMARK    3  A    between atoms: O_4  and  C_5 
REMARK    4  A    between atoms: N_11  and  C_12 
ROOT
HETATM    1  O   UNL     1     -41.630 -52.876  15.320  1.00  0.00    -0.271 OA
HETATM    2  C   UNL     1     -41.576 -53.326  14.177  1.00  0.00     0.246 C 
HETATM    3  N   UNL     1     -42.638 -53.759  13.411  1.00  0.00    -0.310 N 
HETATM    4  H   UNL     1     -42.425 -54.084  12.477  1.00  0.00     0.170 HD
ENDROOT
BRANCH   2   5
HETATM    5  C   UNL     1     -40.202 -53.520  13.523  1.00  0.00     0.271 C 
BRANCH   5   6
HETATM    6  O   UNL     1     -39.696 -52.447  12.738  1.00  0.00    -0.377 OA
BRANCH   6   7
HETATM    7  C   UNL     1     -39.273 -51.318  13.535  1.00  0.00     0.122 C 
HETATM    8  C   UNL     1     -39.937 -49.987  13.141  1.00  0.00     0.032 C 
HETATM    9  C   UNL     1     -39.594 -49.586  11.708  1.00  0.00     0.002 C 
HETATM   10  C   UNL     1     -38.084 -49.490  11.508  1.00  0.00     0.000 C 
HETATM   11  C   UNL     1     -37.360 -50.757  11.961  1.00  0.00     0.002 C 
HETATM   12  C   UNL     1     -37.753 -51.169  13.382  1.00  0.00     0.032 C 
ENDBRANCH   6   7
ENDBRANCH   5   6
ENDBRANCH   2   5
BRANCH   3  13
HETATM   13  C   UNL     1     -43.980 -53.733  13.834  1.00  0.00     0.123 A 
HETATM   14  C   UNL     1     -44.975 -53.321  12.949  1.00  0.00     0.136 A 
HETATM   15  N   UNL     1     -46.293 -53.248  13.269  1.00  0.00    -0.371 N 
HETATM   16  C   UNL     1     -46.594 -53.609  14.536  1.00  0.00     0.104 A 
ATOM     17  HN  UNL     1     -47.003 -52.944  12.603  1.00  0.00     0.164 HD
HETATM   18  C   UNL     1     -45.624 -54.028  15.425  1.00  0.00     0.106 A 
HETATM   19  N   UNL     1     -44.316 -54.098  15.089  1.00  0.00    -0.350 N 
ATOM     20  HN  UNL     1     -43.613 -54.414  15.757  1.00  0.00     0.166 HD
ENDBRANCH   3  13
TORSDOF 4
ENDMDL
