MODEL 1
REMARK VINA RESULT:      -6.0      0.000      0.000
REMARK  4 active torsions:
REMARK  status: ('A' for Active; 'I' for Inactive)
REMARK    1  A    between atoms: C_2  and  C_3 
REMARK    2  A    between atoms: C_3  and  N_5 
REMARK       I    between atoms: N_5  and  C_6 
REMARK       I    between atoms: C_6  and  N_8 
REMARK    3  A    between atoms: N_8  and  C_9 
REMARK    4  A    between atoms: C_12  and  N_16 
ROOT
HETATM    1  C   UNL     1     -39.528 -47.617  11.877  1.00  0.00     0.051 A 
HETATM    2  C   UNL     1     -38.805 -48.797  11.916  1.00  0.00     0.035 A 
HETATM    3  C   UNL     1     -38.061 -49.126  13.047  1.00  0.00     0.051 A 
HETATM    4  C   UNL     1     -38.041 -48.287  14.156  1.00  0.00     0.103 A 
HETATM    5  N   UNL     1     -38.707 -47.113  14.122  1.00  0.00    -0.350 N 
ATOM      6  HN  UNL     1     -38.667 -46.467  14.911  1.00  0.00     0.166 HD
HETATM    7  C   UNL     1     -39.435 -46.811  13.009  1.00  0.00     0.119 A 
ENDROOT
BRANCH   1   8
HETATM    8  N   UNL     1     -40.332 -47.237  10.775  1.00  0.00    -0.308 N 
HETATM    9  C   UNL     1     -41.612 -47.701  10.541  1.00  0.00     0.321 C 
HETATM   10  N   UNL     1     -42.179 -47.136   9.419  1.00  0.00    -0.339 N 
HETATM   11  O   UNL     1     -42.194 -48.560  11.189  1.00  0.00    -0.247 OA
HETATM   12  H   UNL     1     -41.916 -46.184   9.205  1.00  0.00     0.164 HD
HETATM   13  H   UNL     1     -39.885 -46.753  10.011  1.00  0.00     0.170 HD
BRANCH  10  14
HETATM   14  C   UNL     1     -43.503 -47.590   8.984  1.00  0.00     0.081 C 
HETATM   15  C   UNL     1     -43.447 -47.997   7.516  1.00  0.00     0.032 C 
BRANCH  14  16
HETATM   16  C   UNL     1     -44.582 -46.530   9.271  1.00  0.00     0.020 C 
HETATM   17  C   UNL     1     -46.001 -47.056   9.084  1.00  0.00     0.007 C 
ENDBRANCH  14  16
ENDBRANCH  10  14
ENDBRANCH   1   8
BRANCH   4  18
HETATM   18  N   UNL     1     -37.387 -48.659  15.304  1.00  0.00    -0.363 N 
HETATM   19  C   UNL     1     -37.064 -47.713  16.374  1.00  0.00     0.150 C 
HETATM   20  C   UNL     1     -35.595 -47.880  16.787  1.00  0.00     0.187 C 
HETATM   21  O   UNL     1     -35.297 -49.237  17.142  1.00  0.00    -0.388 OA
HETATM   22  C   UNL     1     -35.525 -50.102  16.013  1.00  0.00     0.187 C 
HETATM   23  C   UNL     1     -36.984 -50.046  15.533  1.00  0.00     0.150 C 
ENDBRANCH   4  18
TORSDOF 4
ENDMDL
MODEL 2
REMARK VINA RESULT:      -5.8      4.337      6.230
REMARK  4 active torsions:
REMARK  status: ('A' for Active; 'I' for Inactive)
REMARK    1  A    between atoms: C_2  and  C_3 
REMARK    2  A    between atoms: C_3  and  N_5 
REMARK       I    between atoms: N_5  and  C_6 
REMARK       I    between atoms: C_6  and  N_8 
REMARK    3  A    between atoms: N_8  and  C_9 
REMARK    4  A    between atoms: C_12  and  N_16 
ROOT
HETATM    1  C   UNL     1     -40.915 -49.079  11.311  1.00  0.00     0.051 A 
HETATM    2  C   UNL     1     -39.850 -48.691  12.105  1.00  0.00     0.035 A 
HETATM    3  C   UNL     1     -39.466 -47.352  12.158  1.00  0.00     0.051 A 
HETATM    4  C   UNL     1     -40.152 -46.386  11.431  1.00  0.00     0.103 A 
HETATM    5  N   UNL     1     -41.169 -46.750  10.620  1.00  0.00    -0.350 N 
ATOM      6  HN  UNL     1     -41.653 -46.059  10.047  1.00  0.00     0.166 HD
HETATM    7  C   UNL     1     -41.533 -48.064  10.585  1.00  0.00     0.119 A 
ENDROOT
BRANCH   1   8
HETATM    8  N   UNL     1     -41.379 -50.415  11.236  1.00  0.00    -0.308 N 
HETATM    9  C   UNL     1     -41.973 -51.099  12.280  1.00  0.00     0.321 C 
HETATM   10  N   UNL     1     -42.365 -52.371  11.919  1.00  0.00    -0.339 N 
HETATM   11  O   UNL     1     -42.102 -50.690  13.426  1.00  0.00    -0.247 OA
HETATM   12  H   UNL     1     -42.666 -52.500  10.963  1.00  0.00     0.164 HD
HETATM   13  H   UNL     1     -41.090 -50.970  10.445  1.00  0.00     0.170 HD
BRANCH  10  14
HETATM   14  C   UNL     1     -42.933 -53.257  12.939  1.00  0.00     0.081 C 
HETATM   15  C   UNL     1     -41.902 -54.309  13.333  1.00  0.00     0.032 C 
BRANCH  14  16
HETATM   16  C   UNL     1     -44.265 -53.869  12.471  1.00  0.00     0.020 C 
HETATM   17  C   UNL     1     -44.974 -54.662  13.563  1.00  0.00     0.007 C 
ENDBRANCH  14  16
ENDBRANCH  10  14
ENDBRANCH   1   8
BRANCH   4  18
HETATM   18  N   UNL     1     -39.835 -45.056  11.561  1.00  0.00    -0.363 N 
HETATM   19  C   UNL     1     -39.109 -44.524  12.716  1.00  0.00     0.150 C 
HETATM   20  C   UNL     1     -39.829 -43.279  13.253  1.00  0.00     0.187 C 
HETATM   21  O   UNL     1     -40.024 -42.298  12.224  1.00  0.00    -0.388 OA
HETATM   22  C   UNL     1     -40.842 -42.845  11.173  1.00  0.00     0.187 C 
HETATM   23  C   UNL     1     -40.197 -44.084  10.530  1.00  0.00     0.150 C 
ENDBRANCH   4  18
TORSDOF 4
ENDMDL
MODEL 3
REMARK VINA RESULT:      -5.5      4.786      6.477
REMARK  4 active torsions:
REMARK  status: ('A' for Active; 'I' for Inactive)
REMARK    1  A    between atoms: C_2  and  C_3 
REMARK    2  A    between atoms: C_3  and  N_5 
REMARK       I    between atoms: N_5  and  C_6 
REMARK       I    between atoms: C_6  and  N_8 
REMARK    3  A    between atoms: N_8  and  C_9 
REMARK    4  A    between atoms: C_12  and  N_16 
ROOT
HETATM    1  C   UNL     1     -40.988 -49.534  12.203  1.00  0.00     0.051 A 
HETATM    2  C   UNL     1     -42.000 -49.628  13.143  1.00  0.00     0.035 A 
HETATM    3  C   UNL     1     -42.653 -50.841  13.353  1.00  0.00     0.051 A 
HETATM    4  C   UNL     1     -42.292 -51.977  12.636  1.00  0.00     0.103 A 
HETATM    5  N   UNL     1     -41.335 -51.897  11.687  1.00  0.00    -0.350 N 
ATOM      6  HN  UNL     1     -41.090 -52.710  11.122  1.00  0.00     0.166 HD
HETATM    7  C   UNL     1     -40.704 -50.702  11.500  1.00  0.00     0.119 A 
ENDROOT
BRANCH   1   8
HETATM    8  N   UNL     1     -40.260 -48.343  11.964  1.00  0.00    -0.308 N 
HETATM    9  C   UNL     1     -40.713 -47.289  11.194  1.00  0.00     0.321 C 
HETATM   10  N   UNL     1     -39.819 -46.240  11.161  1.00  0.00    -0.339 N 
HETATM   11  O   UNL     1     -41.750 -47.267  10.545  1.00  0.00    -0.247 OA
HETATM   12  H   UNL     1     -39.266 -46.088  11.993  1.00  0.00     0.164 HD
HETATM   13  H   UNL     1     -39.280 -48.335  12.202  1.00  0.00     0.170 HD
BRANCH  10  14
HETATM   14  C   UNL     1     -40.113 -45.080  10.315  1.00  0.00     0.081 C 
HETATM   15  C   UNL     1     -38.941 -44.824   9.375  1.00  0.00     0.032 C 
BRANCH  14  16
HETATM   16  C   UNL     1     -40.482 -43.848  11.162  1.00  0.00     0.020 C 
HETATM   17  C   UNL     1     -39.688 -43.756  12.460  1.00  0.00     0.007 C 
ENDBRANCH  14  16
ENDBRANCH  10  14
ENDBRANCH   1   8
BRANCH   4  18
HETATM   18  N   UNL     1     -42.869 -53.192  12.913  1.00  0.00    -0.363 N 
HETATM   19  C   UNL     1     -44.212 -53.553  12.454  1.00  0.00     0.150 C 
HETATM   20  C   UNL     1     -45.019 -54.136  13.624  1.00  0.00     0.187 C 
HETATM   21  O   UNL     1     -44.333 -55.234  14.243  1.00  0.00    -0.388 OA
HETATM   22  C   UNL     1     -43.071 -54.787  14.775  1.00  0.00     0.187 C 
HETATM   23  C   UNL     1     -42.158 -54.214  13.679  1.00  0.00     0.150 C 
ENDBRANCH   4  18
TORSDOF 4
ENDMDL
MODEL 4
REMARK VINA RESULT:      -5.5      4.255      6.800
REMARK  4 active torsions:
REMARK  status: ('A' for Active; 'I' for Inactive)
REMARK    1  A    between atoms: C_2  and  C_3 
REMARK    2  A    between atoms: C_3  and  N_5 
REMARK       I    between atoms: N_5  and  C_6 
REMARK       I    between atoms: C_6  and  N_8 
REMARK    3  A    between atoms: N_8  and  C_9 
REMARK    4  A    between atoms: C_12  and  N_16 
ROOT
HETATM    1  C   UNL     1     -41.157 -48.546  11.023  1.00  0.00     0.051 A 
HETATM    2  C   UNL     1     -40.128 -47.788  11.553  1.00  0.00     0.035 A 
HETATM    3  C   UNL     1     -40.193 -46.397  11.521  1.00  0.00     0.051 A 
HETATM    4  C   UNL     1     -41.293 -45.748  10.972  1.00  0.00     0.103 A 
HETATM    5  N   UNL     1     -42.289 -46.469  10.414  1.00  0.00    -0.350 N 
ATOM      6  HN  UNL     1     -43.082 -46.007   9.968  1.00  0.00     0.166 HD
HETATM    7  C   UNL     1     -42.210 -47.830  10.459  1.00  0.00     0.119 A 
ENDROOT
BRANCH   1   8
HETATM    8  N   UNL     1     -41.172 -49.962  11.052  1.00  0.00    -0.308 N 
HETATM    9  C   UNL     1     -41.720 -50.720  12.069  1.00  0.00     0.321 C 
HETATM   10  N   UNL     1     -41.631 -52.073  11.822  1.00  0.00    -0.339 N 
HETATM   11  O   UNL     1     -42.183 -50.289  13.116  1.00  0.00    -0.247 OA
HETATM   12  H   UNL     1     -41.690 -52.365  10.856  1.00  0.00     0.164 HD
HETATM   13  H   UNL     1     -40.582 -50.452  10.396  1.00  0.00     0.170 HD
BRANCH  10  14
HETATM   14  C   UNL     1     -42.089 -53.016  12.847  1.00  0.00     0.081 C 
HETATM   15  C   UNL     1     -41.084 -54.154  12.979  1.00  0.00     0.032 C 
BRANCH  14  16
HETATM   16  C   UNL     1     -43.518 -53.509  12.557  1.00  0.00     0.020 C 
HETATM   17  C   UNL     1     -44.120 -54.305  13.710  1.00  0.00     0.007 C 
ENDBRANCH  14  16
ENDBRANCH  10  14
ENDBRANCH   1   8
BRANCH   4  18
HETATM   18  N   UNL     1     -41.400 -44.380  11.030  1.00  0.00    -0.363 N 
HETATM   19  C   UNL     1     -40.234 -43.494  11.038  1.00  0.00     0.150 C 
HETATM   20  C   UNL     1     -40.378 -42.458  12.162  1.00  0.00     0.187 C 
HETATM   21  O   UNL     1     -41.616 -41.740  12.062  1.00  0.00    -0.388 OA
HETATM   22  C   UNL     1     -42.724 -42.653  12.177  1.00  0.00     0.187 C 
HETATM   23  C   UNL     1     -42.704 -43.721  11.071  1.00  0.00     0.150 C 
ENDBRANCH   4  18
TORSDOF 4
ENDMDL
MODEL 5
REMARK VINA RESULT:      -5.5      4.057      7.228
REMARK  4 active torsions:
REMARK  status: ('A' for Active; 'I' for Inactive)
REMARK    1  A    between atoms: C_2  and  C_3 
REMARK    2  A    between atoms: C_3  and  N_5 
REMARK       I    between atoms: N_5  and  C_6 
REMARK       I    between atoms: C_6  and  N_8 
REMARK    3  A    between atoms: N_8  and  C_9 
REMARK    4  A    between atoms: C_12  and  N_16 
ROOT
HETATM    1  C   UNL     1     -40.136 -49.741  11.676  1.00  0.00     0.051 A 
HETATM    2  C   UNL     1     -39.436 -48.701  12.260  1.00  0.00     0.035 A 
HETATM    3  C   UNL     1     -39.673 -47.386  11.865  1.00  0.00     0.051 A 
HETATM    4  C   UNL     1     -40.623 -47.096  10.892  1.00  0.00     0.103 A 
HETATM    5  N   UNL     1     -41.289 -48.099  10.281  1.00  0.00    -0.350 N 
ATOM      6  HN  UNL     1     -41.956 -47.906   9.535  1.00  0.00     0.166 HD
HETATM    7  C   UNL     1     -41.046 -49.380  10.686  1.00  0.00     0.119 A 
ENDROOT
BRANCH   1   8
HETATM    8  N   UNL     1     -39.969 -51.096  12.053  1.00  0.00    -0.308 N 
HETATM    9  C   UNL     1     -40.570 -51.684  13.150  1.00  0.00     0.321 C 
HETATM   10  N   UNL     1     -40.266 -53.025  13.259  1.00  0.00    -0.339 N 
HETATM   11  O   UNL     1     -41.248 -51.111  13.991  1.00  0.00    -0.247 OA
HETATM   12  H   UNL     1     -40.130 -53.533  12.395  1.00  0.00     0.164 HD
HETATM   13  H   UNL     1     -39.223 -51.617  11.618  1.00  0.00     0.170 HD
BRANCH  10  14
HETATM   14  C   UNL     1     -40.755 -53.774  14.420  1.00  0.00     0.081 C 
HETATM   15  C   UNL     1     -39.666 -54.719  14.914  1.00  0.00     0.032 C 
BRANCH  14  16
HETATM   16  C   UNL     1     -42.078 -54.496  14.106  1.00  0.00     0.020 C 
HETATM   17  C   UNL     1     -42.742 -55.090  15.342  1.00  0.00     0.007 C 
ENDBRANCH  14  16
ENDBRANCH  10  14
ENDBRANCH   1   8
BRANCH   4  18
HETATM   18  N   UNL     1     -40.925 -45.794  10.574  1.00  0.00    -0.363 N 
HETATM   19  C   UNL     1     -39.897 -44.780  10.329  1.00  0.00     0.150 C 
HETATM   20  C   UNL     1     -40.222 -43.510  11.128  1.00  0.00     0.187 C 
HETATM   21  O   UNL     1     -41.546 -43.033  10.847  1.00  0.00    -0.388 OA
HETATM   22  C   UNL     1     -42.516 -44.032  11.217  1.00  0.00     0.187 C 
HETATM   23  C   UNL     1     -42.311 -45.345  10.446  1.00  0.00     0.150 C 
ENDBRANCH   4  18
TORSDOF 4
ENDMDL
MODEL 6
REMARK VINA RESULT:      -5.5      3.835      4.614
REMARK  4 active torsions:
REMARK  status: ('A' for Active; 'I' for Inactive)
REMARK    1  A    between atoms: C_2  and  C_3 
REMARK    2  A    between atoms: C_3  and  N_5 
REMARK       I    between atoms: N_5  and  C_6 
REMARK       I    between atoms: C_6  and  N_8 
REMARK    3  A    between atoms: N_8  and  C_9 
REMARK    4  A    between atoms: C_12  and  N_16 
ROOT
HETATM    1  C   UNL     1     -40.201 -51.205  11.967  1.00  0.00     0.051 A 
HETATM    2  C   UNL     1     -40.885 -52.378  12.234  1.00  0.00     0.035 A 
HETATM    3  C   UNL     1     -40.481 -53.204  13.281  1.00  0.00     0.051 A 
HETATM    4  C   UNL     1     -39.397 -52.859  14.082  1.00  0.00     0.103 A 
HETATM    5  N   UNL     1     -38.693 -51.739  13.814  1.00  0.00    -0.350 N 
ATOM      6  HN  UNL     1     -37.870 -51.495  14.364  1.00  0.00     0.166 HD
HETATM    7  C   UNL     1     -39.108 -50.941  12.788  1.00  0.00     0.119 A 
ENDROOT
BRANCH   1   8
HETATM    8  N   UNL     1     -40.578 -50.304  10.942  1.00  0.00    -0.308 N 
HETATM    9  C   UNL     1     -41.473 -49.263  11.102  1.00  0.00     0.321 C 
HETATM   10  N   UNL     1     -41.625 -48.520   9.951  1.00  0.00    -0.339 N 
HETATM   11  O   UNL     1     -42.126 -49.026  12.108  1.00  0.00    -0.247 OA
HETATM   12  H   UNL     1     -40.814 -48.432   9.355  1.00  0.00     0.164 HD
HETATM   13  H   UNL     1     -40.336 -50.544   9.992  1.00  0.00     0.170 HD
BRANCH  10  14
HETATM   14  C   UNL     1     -42.607 -47.431   9.931  1.00  0.00     0.081 C 
HETATM   15  C   UNL     1     -43.410 -47.492   8.637  1.00  0.00     0.032 C 
BRANCH  14  16
HETATM   16  C   UNL     1     -41.934 -46.065  10.156  1.00  0.00     0.020 C 
HETATM   17  C   UNL     1     -42.308 -45.428  11.490  1.00  0.00     0.007 C 
ENDBRANCH  14  16
ENDBRANCH  10  14
ENDBRANCH   1   8
BRANCH   4  18
HETATM   18  N   UNL     1     -39.062 -53.623  15.172  1.00  0.00    -0.363 N 
HETATM   19  C   UNL     1     -38.938 -55.081  15.109  1.00  0.00     0.150 C 
HETATM   20  C   UNL     1     -39.709 -55.717  16.275  1.00  0.00     0.187 C 
HETATM   21  O   UNL     1     -39.293 -55.181  17.539  1.00  0.00    -0.388 OA
HETATM   22  C   UNL     1     -39.547 -53.764  17.579  1.00  0.00     0.187 C 
HETATM   23  C   UNL     1     -38.790 -53.013  16.473  1.00  0.00     0.150 C 
ENDBRANCH   4  18
TORSDOF 4
ENDMDL
MODEL 7
REMARK VINA RESULT:      -5.3      4.480      7.827
REMARK  4 active torsions:
REMARK  status: ('A' for Active; 'I' for Inactive)
REMARK    1  A    between atoms: C_2  and  C_3 
REMARK    2  A    between atoms: C_3  and  N_5 
REMARK       I    between atoms: N_5  and  C_6 
REMARK       I    between atoms: C_6  and  N_8 
REMARK    3  A    between atoms: N_8  and  C_9 
REMARK    4  A    between atoms: C_12  and  N_16 
ROOT
HETATM    1  C   UNL     1     -40.860 -45.592  10.784  1.00  0.00     0.051 A 
HETATM    2  C   UNL     1     -40.028 -44.487  10.805  1.00  0.00     0.035 A 
HETATM    3  C   UNL     1     -40.555 -43.215  11.019  1.00  0.00     0.051 A 
HETATM    4  C   UNL     1     -41.919 -43.036  11.227  1.00  0.00     0.103 A 
HETATM    5  N   UNL     1     -42.753 -44.096  11.171  1.00  0.00    -0.350 N 
ATOM      6  HN  UNL     1     -43.759 -43.975  11.278  1.00  0.00     0.166 HD
HETATM    7  C   UNL     1     -42.216 -45.334  10.966  1.00  0.00     0.119 A 
ENDROOT
BRANCH   1   8
HETATM    8  N   UNL     1     -40.388 -46.916  10.607  1.00  0.00    -0.308 N 
HETATM    9  C   UNL     1     -39.785 -47.672  11.594  1.00  0.00     0.321 C 
HETATM   10  N   UNL     1     -39.459 -48.939  11.159  1.00  0.00    -0.339 N 
HETATM   11  O   UNL     1     -39.494 -47.286  12.717  1.00  0.00    -0.247 OA
HETATM   12  H   UNL     1     -40.073 -49.357  10.474  1.00  0.00     0.164 HD
HETATM   13  H   UNL     1     -40.306 -47.263   9.663  1.00  0.00     0.170 HD
BRANCH  10  14
HETATM   14  C   UNL     1     -38.732 -49.837  12.061  1.00  0.00     0.081 C 
HETATM   15  C   UNL     1     -37.397 -50.220  11.434  1.00  0.00     0.032 C 
BRANCH  14  16
HETATM   16  C   UNL     1     -39.587 -51.058  12.445  1.00  0.00     0.020 C 
HETATM   17  C   UNL     1     -39.059 -51.795  13.670  1.00  0.00     0.007 C 
ENDBRANCH  14  16
ENDBRANCH  10  14
ENDBRANCH   1   8
BRANCH   4  18
HETATM   18  N   UNL     1     -42.422 -41.796  11.534  1.00  0.00    -0.363 N 
HETATM   19  C   UNL     1     -41.569 -40.661  11.893  1.00  0.00     0.150 C 
HETATM   20  C   UNL     1     -42.110 -39.988  13.163  1.00  0.00     0.187 C 
HETATM   21  O   UNL     1     -43.489 -39.617  13.017  1.00  0.00    -0.388 OA
HETATM   22  C   UNL     1     -44.290 -40.791  12.780  1.00  0.00     0.187 C 
HETATM   23  C   UNL     1     -43.860 -41.531  11.503  1.00  0.00     0.150 C 
ENDBRANCH   4  18
TORSDOF 4
ENDMDL
MODEL 8
REMARK VINA RESULT:      -5.3      3.892      5.533
REMARK  4 active torsions:
REMARK  status: ('A' for Active; 'I' for Inactive)
REMARK    1  A    between atoms: C_2  and  C_3 
REMARK    2  A    between atoms: C_3  and  N_5 
REMARK       I    between atoms: N_5  and  C_6 
REMARK       I    between atoms: C_6  and  N_8 
REMARK    3  A    between atoms: N_8  and  C_9 
REMARK    4  A    between atoms: C_12  and  N_16 
ROOT
HETATM    1  C   UNL     1     -42.387 -46.203  10.856  1.00  0.00     0.051 A 
HETATM    2  C   UNL     1     -43.064 -47.311  11.334  1.00  0.00     0.035 A 
HETATM    3  C   UNL     1     -42.392 -48.517  11.523  1.00  0.00     0.051 A 
HETATM    4  C   UNL     1     -41.032 -48.624  11.250  1.00  0.00     0.103 A 
HETATM    5  N   UNL     1     -40.362 -47.566  10.746  1.00  0.00    -0.350 N 
ATOM      6  HN  UNL     1     -39.375 -47.642  10.500  1.00  0.00     0.166 HD
HETATM    7  C   UNL     1     -41.036 -46.393  10.573  1.00  0.00     0.119 A 
ENDROOT
BRANCH   1   8
HETATM    8  N   UNL     1     -42.999 -44.939  10.673  1.00  0.00    -0.308 N 
HETATM    9  C   UNL     1     -42.685 -43.804  11.395  1.00  0.00     0.321 C 
HETATM   10  N   UNL     1     -43.406 -42.703  10.983  1.00  0.00    -0.339 N 
HETATM   11  O   UNL     1     -41.912 -43.745  12.341  1.00  0.00    -0.247 OA
HETATM   12  H   UNL     1     -43.645 -42.656  10.002  1.00  0.00     0.164 HD
HETATM   13  H   UNL     1     -43.845 -44.901  10.124  1.00  0.00     0.170 HD
BRANCH  10  14
HETATM   14  C   UNL     1     -43.253 -41.439  11.709  1.00  0.00     0.081 C 
HETATM   15  C   UNL     1     -44.607 -40.746  11.819  1.00  0.00     0.032 C 
BRANCH  14  16
HETATM   16  C   UNL     1     -42.175 -40.549  11.063  1.00  0.00     0.020 C 
HETATM   17  C   UNL     1     -40.960 -40.340  11.959  1.00  0.00     0.007 C 
ENDBRANCH  14  16
ENDBRANCH  10  14
ENDBRANCH   1   8
BRANCH   4  18
HETATM   18  N   UNL     1     -40.352 -49.784  11.529  1.00  0.00    -0.363 N 
HETATM   19  C   UNL     1     -41.030 -51.047  11.827  1.00  0.00     0.150 C 
HETATM   20  C   UNL     1     -40.420 -51.678  13.087  1.00  0.00     0.187 C 
HETATM   21  O   UNL     1     -38.998 -51.829  12.968  1.00  0.00    -0.388 OA
HETATM   22  C   UNL     1     -38.381 -50.539  12.792  1.00  0.00     0.187 C 
HETATM   23  C   UNL     1     -38.890 -49.826  11.530  1.00  0.00     0.150 C 
ENDBRANCH   4  18
TORSDOF 4
ENDMDL
MODEL 9
REMARK VINA RESULT:      -5.1      4.270      5.546
REMARK  4 active torsions:
REMARK  status: ('A' for Active; 'I' for Inactive)
REMARK    1  A    between atoms: C_2  and  C_3 
REMARK    2  A    between atoms: C_3  and  N_5 
REMARK       I    between atoms: N_5  and  C_6 
REMARK       I    between atoms: C_6  and  N_8 
REMARK    3  A    between atoms: N_8  and  C_9 
REMARK    4  A    between atoms: C_12  and  N_16 
ROOT
HETATM    1  C   UNL     1     -39.992 -44.696  11.793  1.00  0.00     0.051 A 
HETATM    2  C   UNL     1     -39.851 -45.425  12.960  1.00  0.00     0.035 A 
HETATM    3  C   UNL     1     -39.705 -46.810  12.910  1.00  0.00     0.051 A 
HETATM    4  C   UNL     1     -39.685 -47.479  11.691  1.00  0.00     0.103 A 
HETATM    5  N   UNL     1     -39.861 -46.791  10.543  1.00  0.00    -0.350 N 
ATOM      6  HN  UNL     1     -39.891 -47.273   9.645  1.00  0.00     0.166 HD
HETATM    7  C   UNL     1     -39.996 -45.435  10.612  1.00  0.00     0.119 A 
ENDROOT
BRANCH   1   8
HETATM    8  N   UNL     1     -40.110 -43.285  11.769  1.00  0.00    -0.308 N 
HETATM    9  C   UNL     1     -41.224 -42.599  11.325  1.00  0.00     0.321 C 
HETATM   10  N   UNL     1     -41.083 -41.233  11.449  1.00  0.00    -0.339 N 
HETATM   11  O   UNL     1     -42.217 -43.095  10.813  1.00  0.00    -0.247 OA
HETATM   12  H   UNL     1     -40.535 -40.901  12.231  1.00  0.00     0.164 HD
HETATM   13  H   UNL     1     -39.270 -42.741  11.898  1.00  0.00     0.170 HD
BRANCH  10  14
HETATM   14  C   UNL     1     -42.144 -40.358  10.940  1.00  0.00     0.081 C 
HETATM   15  C   UNL     1     -41.532 -39.061  10.424  1.00  0.00     0.032 C 
BRANCH  14  16
HETATM   16  C   UNL     1     -43.236 -40.125  12.001  1.00  0.00     0.020 C 
HETATM   17  C   UNL     1     -44.602 -40.652  11.576  1.00  0.00     0.007 C 
ENDBRANCH  14  16
ENDBRANCH  10  14
ENDBRANCH   1   8
BRANCH   4  18
HETATM   18  N   UNL     1     -39.443 -48.830  11.639  1.00  0.00    -0.363 N 
HETATM   19  C   UNL     1     -40.451 -49.798  11.201  1.00  0.00     0.150 C 
HETATM   20  C   UNL     1     -40.524 -50.959  12.203  1.00  0.00     0.187 C 
HETATM   21  O   UNL     1     -39.237 -51.558  12.413  1.00  0.00    -0.388 OA
HETATM   22  C   UNL     1     -38.323 -50.583  12.952  1.00  0.00     0.187 C 
HETATM   23  C   UNL     1     -38.141 -49.384  12.007  1.00  0.00     0.150 C 
ENDBRANCH   4  18
TORSDOF 4
ENDMDL
