MODEL 1
REMARK VINA RESULT:      -5.8      0.000      0.000
REMARK  5 active torsions:
REMARK  status: ('A' for Active; 'I' for Inactive)
REMARK    1  A    between atoms: O_1  and  C_2 
REMARK    2  A    between atoms: C_2  and  C_3 
REMARK    3  A    between atoms: C_3  and  N_4 
REMARK    4  A    between atoms: C_5  and  C_6 
REMARK    5  A    between atoms: C_6  and  N_7 
ROOT
HETATM    1  N   UNL     1     -39.765 -50.509  12.409  1.00  0.00    -0.331 N 
HETATM    2  C   UNL     1     -40.854 -50.107  11.660  1.00  0.00     0.113 A 
HETATM    3  N   UNL     1     -41.829 -50.995  11.751  1.00  0.00    -0.342 N 
ATOM      4  HN  UNL     1     -42.756 -50.928  11.332  1.00  0.00     0.167 HD
HETATM    5  C   UNL     1     -41.350 -52.016  12.514  1.00  0.00     0.060 A 
HETATM    6  C   UNL     1     -41.961 -53.235  12.842  1.00  0.00     0.033 A 
HETATM    7  C   UNL     1     -41.267 -54.141  13.652  1.00  0.00     0.026 A 
HETATM    8  C   UNL     1     -39.997 -53.825  14.130  1.00  0.00     0.036 A 
HETATM    9 CL   UNL     1     -39.174 -54.954  15.141  1.00  0.00    -0.084 Cl
HETATM   10  C   UNL     1     -39.362 -52.617  13.804  1.00  0.00     0.056 A 
HETATM   11  C   UNL     1     -40.067 -51.733  12.975  1.00  0.00     0.064 A 
ENDROOT
BRANCH   2  12
HETATM   12  C   UNL     1     -40.911 -48.880  10.774  1.00  0.00     0.348 C 
BRANCH  12  13
HETATM   13  N   UNL     1     -41.328 -47.712  11.563  1.00  0.00     0.099 N 
HETATM   14  C   UNL     1     -42.621 -47.136  11.157  1.00  0.00     0.299 C 
HETATM   15  C   UNL     1     -42.515 -46.138   9.999  1.00  0.00     0.198 C 
HETATM   16  O   UNL     1     -41.605 -45.081  10.315  1.00  0.00    -0.388 OA
HETATM   17  C   UNL     1     -40.299 -45.613  10.568  1.00  0.00     0.198 C 
HETATM   18  C   UNL     1     -40.307 -46.664  11.689  1.00  0.00     0.299 C 
ENDBRANCH  12  13
ENDBRANCH   2  12
BRANCH   1  19
HETATM   19  C   UNL     1     -38.486 -49.831  12.517  1.00  0.00     0.156 C 
BRANCH  19  20
HETATM   20  C   UNL     1     -37.412 -50.456  11.638  1.00  0.00     0.184 C 
BRANCH  20  21
HETATM   21  O   UNL     1     -37.552 -50.015  10.292  1.00  0.00    -0.399 OA
HETATM   22  H   UNL     1     -37.411 -50.790   9.721  1.00  0.00     0.209 HD
ENDBRANCH  20  21
ENDBRANCH  19  20
ENDBRANCH   1  19
TORSDOF 5
ENDMDL
MODEL 2
REMARK VINA RESULT:      -5.5      3.260      6.353
REMARK  5 active torsions:
REMARK  status: ('A' for Active; 'I' for Inactive)
REMARK    1  A    between atoms: O_1  and  C_2 
REMARK    2  A    between atoms: C_2  and  C_3 
REMARK    3  A    between atoms: C_3  and  N_4 
REMARK    4  A    between atoms: C_5  and  C_6 
REMARK    5  A    between atoms: C_6  and  N_7 
ROOT
HETATM    1  N   UNL     1     -39.769 -49.452  11.867  1.00  0.00    -0.331 N 
HETATM    2  C   UNL     1     -40.711 -50.461  11.824  1.00  0.00     0.113 A 
HETATM    3  N   UNL     1     -41.879 -49.986  11.430  1.00  0.00    -0.342 N 
ATOM      4  HN  UNL     1     -42.734 -50.519  11.273  1.00  0.00     0.167 HD
HETATM    5  C   UNL     1     -41.716 -48.642  11.275  1.00  0.00     0.060 A 
HETATM    6  C   UNL     1     -42.671 -47.668  10.950  1.00  0.00     0.033 A 
HETATM    7  C   UNL     1     -42.264 -46.333  10.845  1.00  0.00     0.026 A 
HETATM    8  C   UNL     1     -40.930 -45.988  11.050  1.00  0.00     0.036 A 
HETATM    9 CL   UNL     1     -40.455 -44.337  10.896  1.00  0.00    -0.084 Cl
HETATM   10  C   UNL     1     -39.961 -46.943  11.390  1.00  0.00     0.056 A 
HETATM   11  C   UNL     1     -40.394 -48.272  11.509  1.00  0.00     0.064 A 
ENDROOT
BRANCH   2  12
HETATM   12  C   UNL     1     -40.487 -51.896  12.256  1.00  0.00     0.348 C 
BRANCH  12  13
HETATM   13  N   UNL     1     -40.542 -51.991  13.722  1.00  0.00     0.099 N 
HETATM   14  C   UNL     1     -39.331 -52.557  14.338  1.00  0.00     0.299 C 
HETATM   15  C   UNL     1     -39.319 -54.090  14.381  1.00  0.00     0.198 C 
HETATM   16  O   UNL     1     -40.475 -54.592  15.058  1.00  0.00    -0.388 OA
HETATM   17  C   UNL     1     -41.666 -54.172  14.382  1.00  0.00     0.198 C 
HETATM   18  C   UNL     1     -41.749 -52.643  14.247  1.00  0.00     0.299 C 
ENDBRANCH  12  13
ENDBRANCH   2  12
BRANCH   1  19
HETATM   19  C   UNL     1     -38.389 -49.567  12.302  1.00  0.00     0.156 C 
BRANCH  19  20
HETATM   20  C   UNL     1     -37.447 -49.962  11.175  1.00  0.00     0.184 C 
BRANCH  20  21
HETATM   21  O   UNL     1     -37.163 -51.355  11.228  1.00  0.00    -0.399 OA
HETATM   22  H   UNL     1     -37.756 -51.743  11.896  1.00  0.00     0.209 HD
ENDBRANCH  20  21
ENDBRANCH  19  20
ENDBRANCH   1  19
TORSDOF 5
ENDMDL
MODEL 3
REMARK VINA RESULT:      -5.5      3.217      4.793
REMARK  5 active torsions:
REMARK  status: ('A' for Active; 'I' for Inactive)
REMARK    1  A    between atoms: O_1  and  C_2 
REMARK    2  A    between atoms: C_2  and  C_3 
REMARK    3  A    between atoms: C_3  and  N_4 
REMARK    4  A    between atoms: C_5  and  C_6 
REMARK    5  A    between atoms: C_6  and  N_7 
ROOT
HETATM    1  N   UNL     1     -42.182 -52.716  12.747  1.00  0.00    -0.331 N 
HETATM    2  C   UNL     1     -41.971 -51.402  12.380  1.00  0.00     0.113 A 
HETATM    3  N   UNL     1     -43.043 -50.673  12.636  1.00  0.00    -0.342 N 
ATOM      4  HN  UNL     1     -43.145 -49.668  12.501  1.00  0.00     0.167 HD
HETATM    5  C   UNL     1     -43.986 -51.532  13.116  1.00  0.00     0.060 A 
HETATM    6  C   UNL     1     -45.321 -51.275  13.461  1.00  0.00     0.033 A 
HETATM    7  C   UNL     1     -46.109 -52.327  13.938  1.00  0.00     0.026 A 
HETATM    8  C   UNL     1     -45.566 -53.603  14.078  1.00  0.00     0.036 A 
HETATM    9 CL   UNL     1     -46.557 -54.877  14.687  1.00  0.00    -0.084 Cl
HETATM   10  C   UNL     1     -44.238 -53.886  13.728  1.00  0.00     0.056 A 
HETATM   11  C   UNL     1     -43.472 -52.820  13.232  1.00  0.00     0.064 A 
ENDROOT
BRANCH   2  12
HETATM   12  C   UNL     1     -40.733 -50.866  11.689  1.00  0.00     0.348 C 
BRANCH  12  13
HETATM   13  N   UNL     1     -40.050 -49.902  12.563  1.00  0.00     0.099 N 
HETATM   14  C   UNL     1     -39.016 -49.100  11.889  1.00  0.00     0.299 C 
HETATM   15  C   UNL     1     -37.648 -49.790  11.819  1.00  0.00     0.198 C 
HETATM   16  O   UNL     1     -37.191 -50.153  13.125  1.00  0.00    -0.388 OA
HETATM   17  C   UNL     1     -38.118 -51.055  13.741  1.00  0.00     0.198 C 
HETATM   18  C   UNL     1     -39.537 -50.470  13.815  1.00  0.00     0.299 C 
ENDBRANCH  12  13
ENDBRANCH   2  12
BRANCH   1  19
HETATM   19  C   UNL     1     -41.263 -53.826  12.572  1.00  0.00     0.156 C 
BRANCH  19  20
HETATM   20  C   UNL     1     -40.359 -54.039  13.779  1.00  0.00     0.184 C 
BRANCH  20  21
HETATM   21  O   UNL     1     -39.079 -54.505  13.365  1.00  0.00    -0.399 OA
HETATM   22  H   UNL     1     -38.584 -53.732  13.041  1.00  0.00     0.209 HD
ENDBRANCH  20  21
ENDBRANCH  19  20
ENDBRANCH   1  19
TORSDOF 5
ENDMDL
MODEL 4
REMARK VINA RESULT:      -5.4      3.692      6.238
REMARK  5 active torsions:
REMARK  status: ('A' for Active; 'I' for Inactive)
REMARK    1  A    between atoms: O_1  and  C_2 
REMARK    2  A    between atoms: C_2  and  C_3 
REMARK    3  A    between atoms: C_3  and  N_4 
REMARK    4  A    between atoms: C_5  and  C_6 
REMARK    5  A    between atoms: C_6  and  N_7 
ROOT
HETATM    1  N   UNL     1     -40.684 -52.433  13.536  1.00  0.00    -0.331 N 
HETATM    2  C   UNL     1     -41.763 -52.636  12.698  1.00  0.00     0.113 A 
HETATM    3  N   UNL     1     -41.844 -51.664  11.807  1.00  0.00    -0.342 N 
ATOM      4  HN  UNL     1     -42.519 -51.587  11.047  1.00  0.00     0.167 HD
HETATM    5  C   UNL     1     -40.848 -50.784  12.105  1.00  0.00     0.060 A 
HETATM    6  C   UNL     1     -40.555 -49.547  11.512  1.00  0.00     0.033 A 
HETATM    7  C   UNL     1     -39.467 -48.810  11.993  1.00  0.00     0.026 A 
HETATM    8  C   UNL     1     -38.686 -49.308  13.034  1.00  0.00     0.036 A 
HETATM    9 CL   UNL     1     -37.341 -48.385  13.593  1.00  0.00    -0.084 Cl
HETATM   10  C   UNL     1     -38.969 -50.536  13.650  1.00  0.00     0.056 A 
HETATM   11  C   UNL     1     -40.075 -51.249  13.166  1.00  0.00     0.064 A 
ENDROOT
BRANCH   2  12
HETATM   12  C   UNL     1     -42.781 -53.752  12.823  1.00  0.00     0.348 C 
BRANCH  12  13
HETATM   13  N   UNL     1     -44.065 -53.208  13.286  1.00  0.00     0.099 N 
HETATM   14  C   UNL     1     -44.079 -52.807  14.702  1.00  0.00     0.299 C 
HETATM   15  C   UNL     1     -44.381 -53.959  15.667  1.00  0.00     0.198 C 
HETATM   16  O   UNL     1     -45.624 -54.587  15.341  1.00  0.00    -0.388 OA
HETATM   17  C   UNL     1     -45.576 -55.117  14.011  1.00  0.00     0.198 C 
HETATM   18  C   UNL     1     -45.232 -54.042  12.968  1.00  0.00     0.299 C 
ENDBRANCH  12  13
ENDBRANCH   2  12
BRANCH   1  19
HETATM   19  C   UNL     1     -40.299 -53.252  14.672  1.00  0.00     0.156 C 
BRANCH  19  20
HETATM   20  C   UNL     1     -38.962 -53.949  14.468  1.00  0.00     0.184 C 
BRANCH  20  21
HETATM   21  O   UNL     1     -38.974 -54.709  13.265  1.00  0.00    -0.399 OA
HETATM   22  H   UNL     1     -38.070 -54.689  12.904  1.00  0.00     0.209 HD
ENDBRANCH  20  21
ENDBRANCH  19  20
ENDBRANCH   1  19
TORSDOF 5
ENDMDL
MODEL 5
REMARK VINA RESULT:      -5.4      2.952      3.783
REMARK  5 active torsions:
REMARK  status: ('A' for Active; 'I' for Inactive)
REMARK    1  A    between atoms: O_1  and  C_2 
REMARK    2  A    between atoms: C_2  and  C_3 
REMARK    3  A    between atoms: C_3  and  N_4 
REMARK    4  A    between atoms: C_5  and  C_6 
REMARK    5  A    between atoms: C_6  and  N_7 
ROOT
HETATM    1  N   UNL     1     -42.537 -51.462  13.387  1.00  0.00    -0.331 N 
HETATM    2  C   UNL     1     -42.876 -50.124  13.362  1.00  0.00     0.113 A 
HETATM    3  N   UNL     1     -44.181 -49.976  13.513  1.00  0.00    -0.342 N 
ATOM      4  HN  UNL     1     -44.693 -49.096  13.573  1.00  0.00     0.167 HD
HETATM    5  C   UNL     1     -44.706 -51.231  13.573  1.00  0.00     0.060 A 
HETATM    6  C   UNL     1     -46.051 -51.623  13.648  1.00  0.00     0.033 A 
HETATM    7  C   UNL     1     -46.353 -52.988  13.701  1.00  0.00     0.026 A 
HETATM    8  C   UNL     1     -45.330 -53.935  13.690  1.00  0.00     0.036 A 
HETATM    9 CL   UNL     1     -45.734 -55.609  13.774  1.00  0.00    -0.084 Cl
HETATM   10  C   UNL     1     -43.980 -53.566  13.602  1.00  0.00     0.056 A 
HETATM   11  C   UNL     1     -43.701 -52.193  13.531  1.00  0.00     0.064 A 
ENDROOT
BRANCH   2  12
HETATM   12  C   UNL     1     -41.922 -48.976  13.102  1.00  0.00     0.348 C 
BRANCH  12  13
HETATM   13  N   UNL     1     -41.728 -48.805  11.655  1.00  0.00     0.099 N 
HETATM   14  C   UNL     1     -40.355 -48.443  11.267  1.00  0.00     0.299 C 
HETATM   15  C   UNL     1     -40.070 -46.938  11.339  1.00  0.00     0.198 C 
HETATM   16  O   UNL     1     -40.999 -46.202  10.538  1.00  0.00    -0.388 OA
HETATM   17  C   UNL     1     -42.336 -46.428  10.998  1.00  0.00     0.198 C 
HETATM   18  C   UNL     1     -42.704 -47.920  11.008  1.00  0.00     0.299 C 
ENDBRANCH  12  13
ENDBRANCH   2  12
BRANCH   1  19
HETATM   19  C   UNL     1     -41.213 -52.027  13.199  1.00  0.00     0.156 C 
BRANCH  19  20
HETATM   20  C   UNL     1     -40.897 -52.313  11.738  1.00  0.00     0.184 C 
BRANCH  20  21
HETATM   21  O   UNL     1     -40.545 -53.681  11.563  1.00  0.00    -0.399 OA
HETATM   22  H   UNL     1     -41.278 -54.106  11.083  1.00  0.00     0.209 HD
ENDBRANCH  20  21
ENDBRANCH  19  20
ENDBRANCH   1  19
TORSDOF 5
ENDMDL
MODEL 6
REMARK VINA RESULT:      -5.4      5.031      6.620
REMARK  5 active torsions:
REMARK  status: ('A' for Active; 'I' for Inactive)
REMARK    1  A    between atoms: O_1  and  C_2 
REMARK    2  A    between atoms: C_2  and  C_3 
REMARK    3  A    between atoms: C_3  and  N_4 
REMARK    4  A    between atoms: C_5  and  C_6 
REMARK    5  A    between atoms: C_6  and  N_7 
ROOT
HETATM    1  N   UNL     1     -43.143 -53.302  14.055  1.00  0.00    -0.331 N 
HETATM    2  C   UNL     1     -42.910 -53.108  15.402  1.00  0.00     0.113 A 
HETATM    3  N   UNL     1     -43.944 -52.510  15.968  1.00  0.00    -0.342 N 
ATOM      4  HN  UNL     1     -44.054 -52.285  16.956  1.00  0.00     0.167 HD
HETATM    5  C   UNL     1     -44.834 -52.253  14.968  1.00  0.00     0.060 A 
HETATM    6  C   UNL     1     -46.054 -51.564  15.028  1.00  0.00     0.033 A 
HETATM    7  C   UNL     1     -46.807 -51.423  13.857  1.00  0.00     0.026 A 
HETATM    8  C   UNL     1     -46.351 -51.972  12.660  1.00  0.00     0.036 A 
HETATM    9 CL   UNL     1     -47.310 -51.798  11.236  1.00  0.00    -0.084 Cl
HETATM   10  C   UNL     1     -45.129 -52.654  12.575  1.00  0.00     0.056 A 
HETATM   11  C   UNL     1     -44.381 -52.766  13.756  1.00  0.00     0.064 A 
ENDROOT
BRANCH   2  12
HETATM   12  C   UNL     1     -41.623 -53.436  16.132  1.00  0.00     0.348 C 
BRANCH  12  13
HETATM   13  N   UNL     1     -41.009 -52.201  16.642  1.00  0.00     0.099 N 
HETATM   14  C   UNL     1     -40.553 -51.274  15.594  1.00  0.00     0.299 C 
HETATM   15  C   UNL     1     -39.149 -51.584  15.063  1.00  0.00     0.198 C 
HETATM   16  O   UNL     1     -38.193 -51.605  16.127  1.00  0.00    -0.388 OA
HETATM   17  C   UNL     1     -38.542 -52.609  17.086  1.00  0.00     0.198 C 
HETATM   18  C   UNL     1     -39.959 -52.411  17.647  1.00  0.00     0.299 C 
ENDBRANCH  12  13
ENDBRANCH   2  12
BRANCH   1  19
HETATM   19  C   UNL     1     -42.224 -53.875  13.087  1.00  0.00     0.156 C 
BRANCH  19  20
HETATM   20  C   UNL     1     -41.472 -52.818  12.292  1.00  0.00     0.184 C 
BRANCH  20  21
HETATM   21  O   UNL     1     -40.519 -53.429  11.429  1.00  0.00    -0.399 OA
HETATM   22  H   UNL     1     -39.997 -54.047  11.971  1.00  0.00     0.209 HD
ENDBRANCH  20  21
ENDBRANCH  19  20
ENDBRANCH   1  19
TORSDOF 5
ENDMDL
MODEL 7
REMARK VINA RESULT:      -5.3      3.726      6.472
REMARK  5 active torsions:
REMARK  status: ('A' for Active; 'I' for Inactive)
REMARK    1  A    between atoms: O_1  and  C_2 
REMARK    2  A    between atoms: C_2  and  C_3 
REMARK    3  A    between atoms: C_3  and  N_4 
REMARK    4  A    between atoms: C_5  and  C_6 
REMARK    5  A    between atoms: C_6  and  N_7 
ROOT
HETATM    1  N   UNL     1     -41.428 -49.799  12.832  1.00  0.00    -0.331 N 
HETATM    2  C   UNL     1     -42.715 -50.294  12.909  1.00  0.00     0.113 A 
HETATM    3  N   UNL     1     -43.539 -49.553  12.189  1.00  0.00    -0.342 N 
ATOM      4  HN  UNL     1     -44.534 -49.716  12.038  1.00  0.00     0.167 HD
HETATM    5  C   UNL     1     -42.795 -48.527  11.688  1.00  0.00     0.060 A 
HETATM    6  C   UNL     1     -43.211 -47.423  10.929  1.00  0.00     0.033 A 
HETATM    7  C   UNL     1     -42.255 -46.486  10.522  1.00  0.00     0.026 A 
HETATM    8  C   UNL     1     -40.914 -46.659  10.860  1.00  0.00     0.036 A 
HETATM    9 CL   UNL     1     -39.756 -45.496  10.329  1.00  0.00    -0.084 Cl
HETATM   10  C   UNL     1     -40.478 -47.748  11.630  1.00  0.00     0.056 A 
HETATM   11  C   UNL     1     -41.456 -48.664  12.043  1.00  0.00     0.064 A 
ENDROOT
BRANCH   2  12
HETATM   12  C   UNL     1     -43.162 -51.460  13.767  1.00  0.00     0.348 C 
BRANCH  12  13
HETATM   13  N   UNL     1     -43.264 -52.676  12.947  1.00  0.00     0.099 N 
HETATM   14  C   UNL     1     -44.635 -53.010  12.528  1.00  0.00     0.299 C 
HETATM   15  C   UNL     1     -45.418 -53.818  13.569  1.00  0.00     0.198 C 
HETATM   16  O   UNL     1     -44.722 -55.019  13.915  1.00  0.00    -0.388 OA
HETATM   17  C   UNL     1     -43.437 -54.704  14.466  1.00  0.00     0.198 C 
HETATM   18  C   UNL     1     -42.588 -53.851  13.510  1.00  0.00     0.299 C 
ENDBRANCH  12  13
ENDBRANCH   2  12
BRANCH   1  19
HETATM   19  C   UNL     1     -40.258 -50.305  13.527  1.00  0.00     0.156 C 
BRANCH  19  20
HETATM   20  C   UNL     1     -39.303 -51.050  12.606  1.00  0.00     0.184 C 
BRANCH  20  21
HETATM   21  O   UNL     1     -39.994 -52.069  11.891  1.00  0.00    -0.399 OA
HETATM   22  H   UNL     1     -40.734 -52.360  12.452  1.00  0.00     0.209 HD
ENDBRANCH  20  21
ENDBRANCH  19  20
ENDBRANCH   1  19
TORSDOF 5
ENDMDL
MODEL 8
REMARK VINA RESULT:      -5.1      3.033      4.893
REMARK  5 active torsions:
REMARK  status: ('A' for Active; 'I' for Inactive)
REMARK    1  A    between atoms: O_1  and  C_2 
REMARK    2  A    between atoms: C_2  and  C_3 
REMARK    3  A    between atoms: C_3  and  N_4 
REMARK    4  A    between atoms: C_5  and  C_6 
REMARK    5  A    between atoms: C_6  and  N_7 
ROOT
HETATM    1  N   UNL     1     -42.827 -50.560  12.873  1.00  0.00    -0.331 N 
HETATM    2  C   UNL     1     -41.855 -51.165  12.102  1.00  0.00     0.113 A 
HETATM    3  N   UNL     1     -42.178 -52.421  11.852  1.00  0.00    -0.342 N 
ATOM      4  HN  UNL     1     -41.660 -53.082  11.274  1.00  0.00     0.167 HD
HETATM    5  C   UNL     1     -43.342 -52.659  12.520  1.00  0.00     0.060 A 
HETATM    6  C   UNL     1     -44.059 -53.857  12.646  1.00  0.00     0.033 A 
HETATM    7  C   UNL     1     -45.243 -53.860  13.392  1.00  0.00     0.026 A 
HETATM    8  C   UNL     1     -45.701 -52.685  13.985  1.00  0.00     0.036 A 
HETATM    9 CL   UNL     1     -47.174 -52.715  14.882  1.00  0.00    -0.084 Cl
HETATM   10  C   UNL     1     -44.993 -51.478  13.883  1.00  0.00     0.056 A 
HETATM   11  C   UNL     1     -43.799 -51.503  13.148  1.00  0.00     0.064 A 
ENDROOT
BRANCH   2  12
HETATM   12  C   UNL     1     -40.547 -50.530  11.672  1.00  0.00     0.348 C 
BRANCH  12  13
HETATM   13  N   UNL     1     -39.435 -51.104  12.443  1.00  0.00     0.099 N 
HETATM   14  C   UNL     1     -39.654 -51.123  13.899  1.00  0.00     0.299 C 
HETATM   15  C   UNL     1     -39.275 -49.812  14.597  1.00  0.00     0.198 C 
HETATM   16  O   UNL     1     -37.914 -49.463  14.327  1.00  0.00    -0.388 OA
HETATM   17  C   UNL     1     -37.717 -49.294  12.918  1.00  0.00     0.198 C 
HETATM   18  C   UNL     1     -38.116 -50.546  12.121  1.00  0.00     0.299 C 
ENDBRANCH  12  13
ENDBRANCH   2  12
BRANCH   1  19
HETATM   19  C   UNL     1     -42.804 -49.206  13.398  1.00  0.00     0.156 C 
BRANCH  19  20
HETATM   20  C   UNL     1     -42.903 -48.150  12.307  1.00  0.00     0.184 C 
BRANCH  20  21
HETATM   21  O   UNL     1     -43.819 -48.561  11.298  1.00  0.00    -0.399 OA
HETATM   22  H   UNL     1     -43.759 -49.531  11.234  1.00  0.00     0.209 HD
ENDBRANCH  20  21
ENDBRANCH  19  20
ENDBRANCH   1  19
TORSDOF 5
ENDMDL
MODEL 9
REMARK VINA RESULT:      -5.1      4.958      8.198
REMARK  5 active torsions:
REMARK  status: ('A' for Active; 'I' for Inactive)
REMARK    1  A    between atoms: O_1  and  C_2 
REMARK    2  A    between atoms: C_2  and  C_3 
REMARK    3  A    between atoms: C_3  and  N_4 
REMARK    4  A    between atoms: C_5  and  C_6 
REMARK    5  A    between atoms: C_6  and  N_7 
ROOT
HETATM    1  N   UNL     1     -42.389 -54.179  13.864  1.00  0.00    -0.331 N 
HETATM    2  C   UNL     1     -42.185 -54.541  15.181  1.00  0.00     0.113 A 
HETATM    3  N   UNL     1     -43.292 -54.372  15.883  1.00  0.00    -0.342 N 
ATOM      4  HN  UNL     1     -43.432 -54.599  16.867  1.00  0.00     0.167 HD
HETATM    5  C   UNL     1     -44.209 -53.834  15.030  1.00  0.00     0.060 A 
HETATM    6  C   UNL     1     -45.514 -53.394  15.300  1.00  0.00     0.033 A 
HETATM    7  C   UNL     1     -46.279 -52.872  14.252  1.00  0.00     0.026 A 
HETATM    8  C   UNL     1     -45.752 -52.804  12.964  1.00  0.00     0.036 A 
HETATM    9 CL   UNL     1     -46.726 -52.172  11.689  1.00  0.00    -0.084 Cl
HETATM   10  C   UNL     1     -44.446 -53.226  12.674  1.00  0.00     0.056 A 
HETATM   11  C   UNL     1     -43.690 -53.728  13.744  1.00  0.00     0.064 A 
ENDROOT
BRANCH   2  12
HETATM   12  C   UNL     1     -40.865 -54.978  15.782  1.00  0.00     0.348 C 
BRANCH  12  13
HETATM   13  N   UNL     1     -41.099 -55.661  17.063  1.00  0.00     0.099 N 
HETATM   14  C   UNL     1     -40.602 -54.930  18.240  1.00  0.00     0.299 C 
HETATM   15  C   UNL     1     -39.120 -55.180  18.540  1.00  0.00     0.198 C 
HETATM   16  O   UNL     1     -38.860 -56.577  18.705  1.00  0.00    -0.388 OA
HETATM   17  C   UNL     1     -39.201 -57.288  17.509  1.00  0.00     0.198 C 
HETATM   18  C   UNL     1     -40.664 -57.063  17.096  1.00  0.00     0.299 C 
ENDBRANCH  12  13
ENDBRANCH   2  12
BRANCH   1  19
HETATM   19  C   UNL     1     -41.400 -54.170  12.802  1.00  0.00     0.156 C 
BRANCH  19  20
HETATM   20  C   UNL     1     -40.941 -52.766  12.435  1.00  0.00     0.184 C 
BRANCH  20  21
HETATM   21  O   UNL     1     -41.231 -52.489  11.069  1.00  0.00    -0.399 OA
HETATM   22  H   UNL     1     -40.414 -52.652  10.564  1.00  0.00     0.209 HD
ENDBRANCH  20  21
ENDBRANCH  19  20
ENDBRANCH   1  19
TORSDOF 5
ENDMDL
