MODEL 1
REMARK VINA RESULT:      -6.4      0.000      0.000
REMARK  4 active torsions:
REMARK  status: ('A' for Active; 'I' for Inactive)
REMARK    1  A    between atoms: C_2  and  O_3 
REMARK    2  A    between atoms: O_3  and  C_4 
REMARK    3  A    between atoms: C_10  and  N_11 
REMARK       I    between atoms: N_11  and  C_12 
REMARK       I    between atoms: C_12  and  N_14 
REMARK    4  A    between atoms: N_14  and  C_15 
ROOT
HETATM    1  N   UNL     1     -42.339 -48.155   9.463  1.00  0.00    -0.305 N 
HETATM    2  C   UNL     1     -41.774 -48.408  10.696  1.00  0.00     0.321 C 
HETATM    3  O   UNL     1     -42.151 -47.967  11.775  1.00  0.00    -0.247 OA
HETATM    4  N   UNL     1     -40.688 -49.255  10.622  1.00  0.00    -0.337 N 
HETATM    5  H   UNL     1     -41.760 -48.274   8.641  1.00  0.00     0.171 HD
HETATM    6  H   UNL     1     -40.554 -49.756   9.755  1.00  0.00     0.164 HD
ENDROOT
BRANCH   1   7
HETATM    7  C   UNL     1     -43.544 -47.431   9.244  1.00  0.00     0.087 A 
HETATM    8  C   UNL     1     -43.569 -46.028   9.274  1.00  0.00     0.169 A 
HETATM    9  N   UNL     1     -44.704 -45.291   9.159  1.00  0.00    -0.345 N 
HETATM   10  C   UNL     1     -45.856 -45.952   8.945  1.00  0.00     0.090 A 
ATOM     11  HN  UNL     1     -44.683 -44.273   9.231  1.00  0.00     0.167 HD
HETATM   12  C   UNL     1     -45.925 -47.322   8.803  1.00  0.00     0.019 A 
HETATM   13  C   UNL     1     -44.756 -48.063   8.956  1.00  0.00     0.035 A 
BRANCH   8  14
HETATM   14  O   UNL     1     -42.371 -45.339   9.422  1.00  0.00    -0.334 OA
BRANCH  14  15
HETATM   15  C   UNL     1     -42.304 -44.710  10.715  1.00  0.00     0.173 C 
HETATM   16  C   UNL     1     -40.861 -44.601  11.171  1.00  0.00     0.034 C 
ENDBRANCH  14  15
ENDBRANCH   8  14
ENDBRANCH   1   7
BRANCH   4  17
HETATM   17  C   UNL     1     -39.966 -49.729  11.808  1.00  0.00     0.101 C 
HETATM   18  C   UNL     1     -38.421 -49.654  11.687  1.00  0.00     0.041 C 
HETATM   19  C   UNL     1     -37.778 -50.793  12.482  1.00  0.00     0.142 C 
HETATM   20  S   UNL     1     -39.076 -51.560  13.410  1.00  0.00     0.146 S 
HETATM   21  O   UNL     1     -38.889 -52.995  13.426  1.00  0.00    -0.228 OA
HETATM   22  O   UNL     1     -39.283 -50.797  14.624  1.00  0.00    -0.228 OA
HETATM   23  C   UNL     1     -40.357 -51.134  12.260  1.00  0.00     0.165 C 
ENDBRANCH   4  17
TORSDOF 4
ENDMDL
MODEL 2
REMARK VINA RESULT:      -6.3      3.495      4.792
REMARK  4 active torsions:
REMARK  status: ('A' for Active; 'I' for Inactive)
REMARK    1  A    between atoms: C_2  and  O_3 
REMARK    2  A    between atoms: O_3  and  C_4 
REMARK    3  A    between atoms: C_10  and  N_11 
REMARK       I    between atoms: N_11  and  C_12 
REMARK       I    between atoms: C_12  and  N_14 
REMARK    4  A    between atoms: N_14  and  C_15 
ROOT
HETATM    1  N   UNL     1     -41.559 -49.617  11.156  1.00  0.00    -0.305 N 
HETATM    2  C   UNL     1     -42.145 -50.171  12.276  1.00  0.00     0.321 C 
HETATM    3  O   UNL     1     -42.376 -49.600  13.336  1.00  0.00    -0.247 OA
HETATM    4  N   UNL     1     -42.481 -51.496  12.103  1.00  0.00    -0.337 N 
HETATM    5  H   UNL     1     -41.110 -50.241  10.497  1.00  0.00     0.171 HD
HETATM    6  H   UNL     1     -42.471 -51.854  11.158  1.00  0.00     0.164 HD
ENDROOT
BRANCH   1   7
HETATM    7  C   UNL     1     -41.232 -48.242  10.994  1.00  0.00     0.087 A 
HETATM    8  C   UNL     1     -42.046 -47.381  10.243  1.00  0.00     0.169 A 
HETATM    9  N   UNL     1     -41.738 -46.084   9.984  1.00  0.00    -0.345 N 
HETATM   10  C   UNL     1     -40.613 -45.591  10.534  1.00  0.00     0.090 A 
ATOM     11  HN  UNL     1     -42.336 -45.505   9.394  1.00  0.00     0.167 HD
HETATM   12  C   UNL     1     -39.795 -46.325  11.367  1.00  0.00     0.019 A 
HETATM   13  C   UNL     1     -40.112 -47.662  11.594  1.00  0.00     0.035 A 
BRANCH   8  14
HETATM   14  O   UNL     1     -43.245 -47.867   9.733  1.00  0.00    -0.334 OA
BRANCH  14  15
HETATM   15  C   UNL     1     -43.589 -47.188   8.511  1.00  0.00     0.173 C 
HETATM   16  C   UNL     1     -43.488 -48.141   7.335  1.00  0.00     0.034 C 
ENDBRANCH  14  15
ENDBRANCH   8  14
ENDBRANCH   1   7
BRANCH   4  17
HETATM   17  C   UNL     1     -43.181 -52.281  13.126  1.00  0.00     0.101 C 
HETATM   18  C   UNL     1     -42.292 -53.323  13.852  1.00  0.00     0.041 C 
HETATM   19  C   UNL     1     -43.130 -54.542  14.247  1.00  0.00     0.142 C 
HETATM   20  S   UNL     1     -44.819 -54.121  13.927  1.00  0.00     0.146 S 
HETATM   21  O   UNL     1     -45.518 -55.267  13.385  1.00  0.00    -0.228 OA
HETATM   22  O   UNL     1     -45.327 -53.374  15.059  1.00  0.00    -0.228 OA
HETATM   23  C   UNL     1     -44.446 -52.975  12.626  1.00  0.00     0.165 C 
ENDBRANCH   4  17
TORSDOF 4
ENDMDL
MODEL 3
REMARK VINA RESULT:      -6.1      4.012      7.261
REMARK  4 active torsions:
REMARK  status: ('A' for Active; 'I' for Inactive)
REMARK    1  A    between atoms: C_2  and  O_3 
REMARK    2  A    between atoms: O_3  and  C_4 
REMARK    3  A    between atoms: C_10  and  N_11 
REMARK       I    between atoms: N_11  and  C_12 
REMARK       I    between atoms: C_12  and  N_14 
REMARK    4  A    between atoms: N_14  and  C_15 
ROOT
HETATM    1  N   UNL     1     -42.425 -51.820  12.079  1.00  0.00    -0.305 N 
HETATM    2  C   UNL     1     -42.604 -50.488  12.390  1.00  0.00     0.321 C 
HETATM    3  O   UNL     1     -43.090 -50.038  13.421  1.00  0.00    -0.247 OA
HETATM    4  N   UNL     1     -42.160 -49.644  11.395  1.00  0.00    -0.337 N 
HETATM    5  H   UNL     1     -42.351 -52.075  11.102  1.00  0.00     0.171 HD
HETATM    6  H   UNL     1     -41.578 -50.048  10.674  1.00  0.00     0.164 HD
ENDROOT
BRANCH   1   7
HETATM    7  C   UNL     1     -42.663 -52.909  12.964  1.00  0.00     0.087 A 
HETATM    8  C   UNL     1     -43.913 -53.543  13.023  1.00  0.00     0.169 A 
HETATM    9  N   UNL     1     -44.220 -54.527  13.907  1.00  0.00    -0.345 N 
HETATM   10  C   UNL     1     -43.242 -54.950  14.730  1.00  0.00     0.090 A 
ATOM     11  HN  UNL     1     -45.156 -54.931  13.947  1.00  0.00     0.167 HD
HETATM   12  C   UNL     1     -41.954 -54.461  14.686  1.00  0.00     0.019 A 
HETATM   13  C   UNL     1     -41.668 -53.431  13.795  1.00  0.00     0.035 A 
BRANCH   8  14
HETATM   14  O   UNL     1     -44.903 -53.159  12.126  1.00  0.00    -0.334 OA
BRANCH  14  15
HETATM   15  C   UNL     1     -45.942 -52.426  12.801  1.00  0.00     0.173 C 
HETATM   16  C   UNL     1     -46.881 -51.796  11.790  1.00  0.00     0.034 C 
ENDBRANCH  14  15
ENDBRANCH   8  14
ENDBRANCH   1   7
BRANCH   4  17
HETATM   17  C   UNL     1     -42.176 -48.182  11.524  1.00  0.00     0.101 C 
HETATM   18  C   UNL     1     -43.376 -47.492  10.825  1.00  0.00     0.041 C 
HETATM   19  C   UNL     1     -42.961 -46.110  10.314  1.00  0.00     0.142 C 
HETATM   20  S   UNL     1     -41.349 -45.790  10.971  1.00  0.00     0.146 S 
HETATM   21  O   UNL     1     -40.535 -45.123   9.977  1.00  0.00    -0.228 OA
HETATM   22  O   UNL     1     -41.496 -45.276  12.317  1.00  0.00    -0.228 OA
HETATM   23  C   UNL     1     -40.886 -47.499  11.076  1.00  0.00     0.165 C 
ENDBRANCH   4  17
TORSDOF 4
ENDMDL
MODEL 4
REMARK VINA RESULT:      -6.1      4.366      6.851
REMARK  4 active torsions:
REMARK  status: ('A' for Active; 'I' for Inactive)
REMARK    1  A    between atoms: C_2  and  O_3 
REMARK    2  A    between atoms: O_3  and  C_4 
REMARK    3  A    between atoms: C_10  and  N_11 
REMARK       I    between atoms: N_11  and  C_12 
REMARK       I    between atoms: C_12  and  N_14 
REMARK    4  A    between atoms: N_14  and  C_15 
ROOT
HETATM    1  N   UNL     1     -41.253 -51.527  11.479  1.00  0.00    -0.305 N 
HETATM    2  C   UNL     1     -42.211 -52.027  12.338  1.00  0.00     0.321 C 
HETATM    3  O   UNL     1     -42.433 -51.648  13.482  1.00  0.00    -0.247 OA
HETATM    4  N   UNL     1     -42.954 -53.042  11.776  1.00  0.00    -0.337 N 
HETATM    5  H   UNL     1     -40.932 -52.123  10.726  1.00  0.00     0.171 HD
HETATM    6  H   UNL     1     -42.882 -53.167  10.775  1.00  0.00     0.164 HD
ENDROOT
BRANCH   1   7
HETATM    7  C   UNL     1     -40.433 -50.393  11.734  1.00  0.00     0.087 A 
HETATM    8  C   UNL     1     -39.191 -50.518  12.374  1.00  0.00     0.169 A 
HETATM    9  N   UNL     1     -38.409 -49.462  12.719  1.00  0.00    -0.345 N 
HETATM   10  C   UNL     1     -38.833 -48.234  12.368  1.00  0.00     0.090 A 
ATOM     11  HN  UNL     1     -37.533 -49.595  13.225  1.00  0.00     0.167 HD
HETATM   12  C   UNL     1     -39.989 -48.011  11.652  1.00  0.00     0.019 A 
HETATM   13  C   UNL     1     -40.793 -49.103  11.336  1.00  0.00     0.035 A 
BRANCH   8  14
HETATM   14  O   UNL     1     -38.716 -51.790  12.674  1.00  0.00    -0.334 OA
BRANCH  14  15
HETATM   15  C   UNL     1     -38.823 -52.052  14.085  1.00  0.00     0.173 C 
HETATM   16  C   UNL     1     -39.215 -53.498  14.321  1.00  0.00     0.034 C 
ENDBRANCH  14  15
ENDBRANCH   8  14
ENDBRANCH   1   7
BRANCH   4  17
HETATM   17  C   UNL     1     -44.079 -53.682  12.466  1.00  0.00     0.101 C 
HETATM   18  C   UNL     1     -45.330 -52.779  12.623  1.00  0.00     0.041 C 
HETATM   19  C   UNL     1     -46.068 -53.126  13.918  1.00  0.00     0.142 C 
HETATM   20  S   UNL     1     -45.310 -54.593  14.556  1.00  0.00     0.146 S 
HETATM   21  O   UNL     1     -45.213 -54.510  15.998  1.00  0.00    -0.228 OA
HETATM   22  O   UNL     1     -45.893 -55.738  13.888  1.00  0.00    -0.228 OA
HETATM   23  C   UNL     1     -43.725 -54.273  13.829  1.00  0.00     0.165 C 
ENDBRANCH   4  17
TORSDOF 4
ENDMDL
MODEL 5
REMARK VINA RESULT:      -6.0      4.032      6.174
REMARK  4 active torsions:
REMARK  status: ('A' for Active; 'I' for Inactive)
REMARK    1  A    between atoms: C_2  and  O_3 
REMARK    2  A    between atoms: O_3  and  C_4 
REMARK    3  A    between atoms: C_10  and  N_11 
REMARK       I    between atoms: N_11  and  C_12 
REMARK       I    between atoms: C_12  and  N_14 
REMARK    4  A    between atoms: N_14  and  C_15 
ROOT
HETATM    1  N   UNL     1     -41.250 -51.658  11.463  1.00  0.00    -0.305 N 
HETATM    2  C   UNL     1     -42.197 -52.127  12.349  1.00  0.00     0.321 C 
HETATM    3  O   UNL     1     -42.341 -51.780  13.515  1.00  0.00    -0.247 OA
HETATM    4  N   UNL     1     -43.031 -53.071  11.788  1.00  0.00    -0.337 N 
HETATM    5  H   UNL     1     -41.004 -52.244  10.674  1.00  0.00     0.171 HD
HETATM    6  H   UNL     1     -43.014 -53.161  10.781  1.00  0.00     0.164 HD
ENDROOT
BRANCH   1   7
HETATM    7  C   UNL     1     -40.345 -50.589  11.717  1.00  0.00     0.087 A 
HETATM    8  C   UNL     1     -40.665 -49.265  11.379  1.00  0.00     0.169 A 
HETATM    9  N   UNL     1     -39.808 -48.222  11.518  1.00  0.00    -0.345 N 
HETATM   10  C   UNL     1     -38.605 -48.475  12.068  1.00  0.00     0.090 A 
ATOM     11  HN  UNL     1     -40.065 -47.281  11.218  1.00  0.00     0.167 HD
HETATM   12  C   UNL     1     -38.230 -49.721  12.523  1.00  0.00     0.019 A 
HETATM   13  C   UNL     1     -39.111 -50.784  12.341  1.00  0.00     0.035 A 
BRANCH   8  14
HETATM   14  O   UNL     1     -41.932 -48.989  10.878  1.00  0.00    -0.334 OA
BRANCH  14  15
HETATM   15  C   UNL     1     -41.989 -47.649  10.354  1.00  0.00     0.173 C 
HETATM   16  C   UNL     1     -43.037 -47.559   9.261  1.00  0.00     0.034 C 
ENDBRANCH  14  15
ENDBRANCH   8  14
ENDBRANCH   1   7
BRANCH   4  17
HETATM   17  C   UNL     1     -44.163 -53.663  12.509  1.00  0.00     0.101 C 
HETATM   18  C   UNL     1     -45.372 -52.710  12.694  1.00  0.00     0.041 C 
HETATM   19  C   UNL     1     -46.090 -53.024  14.010  1.00  0.00     0.142 C 
HETATM   20  S   UNL     1     -45.375 -54.519  14.633  1.00  0.00     0.146 S 
HETATM   21  O   UNL     1     -45.238 -54.436  16.072  1.00  0.00    -0.228 OA
HETATM   22  O   UNL     1     -46.020 -55.641  13.984  1.00  0.00    -0.228 OA
HETATM   23  C   UNL     1     -43.797 -54.264  13.864  1.00  0.00     0.165 C 
ENDBRANCH   4  17
TORSDOF 4
ENDMDL
MODEL 6
REMARK VINA RESULT:      -5.7      3.019      7.107
REMARK  4 active torsions:
REMARK  status: ('A' for Active; 'I' for Inactive)
REMARK    1  A    between atoms: C_2  and  O_3 
REMARK    2  A    between atoms: O_3  and  C_4 
REMARK    3  A    between atoms: C_10  and  N_11 
REMARK       I    between atoms: N_11  and  C_12 
REMARK       I    between atoms: C_12  and  N_14 
REMARK    4  A    between atoms: N_14  and  C_15 
ROOT
HETATM    1  N   UNL     1     -42.015 -51.417  11.921  1.00  0.00    -0.305 N 
HETATM    2  C   UNL     1     -42.062 -50.084  12.273  1.00  0.00     0.321 C 
HETATM    3  O   UNL     1     -41.996 -49.626  13.408  1.00  0.00    -0.247 OA
HETATM    4  N   UNL     1     -42.189 -49.249  11.183  1.00  0.00    -0.337 N 
HETATM    5  H   UNL     1     -42.419 -51.690  11.034  1.00  0.00     0.171 HD
HETATM    6  H   UNL     1     -42.021 -49.652  10.272  1.00  0.00     0.164 HD
ENDROOT
BRANCH   1   7
HETATM    7  C   UNL     1     -41.754 -52.494  12.814  1.00  0.00     0.087 A 
HETATM    8  C   UNL     1     -40.443 -52.900  13.106  1.00  0.00     0.169 A 
HETATM    9  N   UNL     1     -40.140 -53.974  13.881  1.00  0.00    -0.345 N 
HETATM   10  C   UNL     1     -41.163 -54.643  14.443  1.00  0.00     0.090 A 
ATOM     11  HN  UNL     1     -39.173 -54.261  14.032  1.00  0.00     0.167 HD
HETATM   12  C   UNL     1     -42.482 -54.268  14.298  1.00  0.00     0.019 A 
HETATM   13  C   UNL     1     -42.774 -53.184  13.474  1.00  0.00     0.035 A 
BRANCH   8  14
HETATM   14  O   UNL     1     -39.383 -52.167  12.586  1.00  0.00    -0.334 OA
BRANCH  14  15
HETATM   15  C   UNL     1     -38.617 -51.563  13.645  1.00  0.00     0.173 C 
HETATM   16  C   UNL     1     -37.607 -50.588  13.070  1.00  0.00     0.034 C 
ENDBRANCH  14  15
ENDBRANCH   8  14
ENDBRANCH   1   7
BRANCH   4  17
HETATM   17  C   UNL     1     -42.187 -47.786  11.296  1.00  0.00     0.101 C 
HETATM   18  C   UNL     1     -43.316 -47.082  10.498  1.00  0.00     0.041 C 
HETATM   19  C   UNL     1     -42.836 -45.714  10.008  1.00  0.00     0.142 C 
HETATM   20  S   UNL     1     -41.274 -45.416  10.786  1.00  0.00     0.146 S 
HETATM   21  O   UNL     1     -40.373 -44.775   9.852  1.00  0.00    -0.228 OA
HETATM   22  O   UNL     1     -41.516 -44.884  12.111  1.00  0.00    -0.228 OA
HETATM   23  C   UNL     1     -40.853 -47.132  10.944  1.00  0.00     0.165 C 
ENDBRANCH   4  17
TORSDOF 4
ENDMDL
MODEL 7
REMARK VINA RESULT:      -5.7      3.860      5.502
REMARK  4 active torsions:
REMARK  status: ('A' for Active; 'I' for Inactive)
REMARK    1  A    between atoms: C_2  and  O_3 
REMARK    2  A    between atoms: O_3  and  C_4 
REMARK    3  A    between atoms: C_10  and  N_11 
REMARK       I    between atoms: N_11  and  C_12 
REMARK       I    between atoms: C_12  and  N_14 
REMARK    4  A    between atoms: N_14  and  C_15 
ROOT
HETATM    1  N   UNL     1     -41.720 -50.275  11.475  1.00  0.00    -0.305 N 
HETATM    2  C   UNL     1     -42.358 -50.771  12.594  1.00  0.00     0.321 C 
HETATM    3  O   UNL     1     -42.567 -50.169  13.641  1.00  0.00    -0.247 OA
HETATM    4  N   UNL     1     -42.776 -52.075  12.436  1.00  0.00    -0.337 N 
HETATM    5  H   UNL     1     -41.303 -50.937  10.833  1.00  0.00     0.171 HD
HETATM    6  H   UNL     1     -42.775 -52.449  11.497  1.00  0.00     0.164 HD
ENDROOT
BRANCH   1   7
HETATM    7  C   UNL     1     -41.303 -48.927  11.297  1.00  0.00     0.087 A 
HETATM    8  C   UNL     1     -40.133 -48.439  11.898  1.00  0.00     0.169 A 
HETATM    9  N   UNL     1     -39.735 -47.142  11.833  1.00  0.00    -0.345 N 
HETATM   10  C   UNL     1     -40.483 -46.298  11.098  1.00  0.00     0.090 A 
ATOM     11  HN  UNL     1     -38.900 -46.819  12.322  1.00  0.00     0.167 HD
HETATM   12  C   UNL     1     -41.596 -46.698  10.390  1.00  0.00     0.019 A 
HETATM   13  C   UNL     1     -42.006 -48.024  10.495  1.00  0.00     0.035 A 
BRANCH   8  14
HETATM   14  O   UNL     1     -39.319 -49.323  12.597  1.00  0.00    -0.334 OA
BRANCH  14  15
HETATM   15  C   UNL     1     -37.945 -49.175  12.194  1.00  0.00     0.173 C 
HETATM   16  C   UNL     1     -37.436 -50.468  11.584  1.00  0.00     0.034 C 
ENDBRANCH  14  15
ENDBRANCH   8  14
ENDBRANCH   1   7
BRANCH   4  17
HETATM   17  C   UNL     1     -43.541 -52.796  13.460  1.00  0.00     0.101 C 
HETATM   18  C   UNL     1     -42.690 -53.743  14.345  1.00  0.00     0.041 C 
HETATM   19  C   UNL     1     -43.526 -54.953  14.771  1.00  0.00     0.142 C 
HETATM   20  S   UNL     1     -45.192 -54.619  14.275  1.00  0.00     0.146 S 
HETATM   21  O   UNL     1     -45.809 -55.830  13.776  1.00  0.00    -0.228 OA
HETATM   22  O   UNL     1     -45.817 -53.798  15.291  1.00  0.00    -0.228 OA
HETATM   23  C   UNL     1     -44.738 -53.573  12.916  1.00  0.00     0.165 C 
ENDBRANCH   4  17
TORSDOF 4
ENDMDL
MODEL 8
REMARK VINA RESULT:      -5.5      3.285      7.117
REMARK  4 active torsions:
REMARK  status: ('A' for Active; 'I' for Inactive)
REMARK    1  A    between atoms: C_2  and  O_3 
REMARK    2  A    between atoms: O_3  and  C_4 
REMARK    3  A    between atoms: C_10  and  N_11 
REMARK       I    between atoms: N_11  and  C_12 
REMARK       I    between atoms: C_12  and  N_14 
REMARK    4  A    between atoms: N_14  and  C_15 
ROOT
HETATM    1  N   UNL     1     -40.038 -48.953  11.003  1.00  0.00    -0.305 N 
HETATM    2  C   UNL     1     -40.458 -47.688  11.357  1.00  0.00     0.321 C 
HETATM    3  O   UNL     1     -40.480 -47.217  12.488  1.00  0.00    -0.247 OA
HETATM    4  N   UNL     1     -40.870 -46.940  10.275  1.00  0.00    -0.337 N 
HETATM    5  H   UNL     1     -40.383 -49.344  10.135  1.00  0.00     0.171 HD
HETATM    6  H   UNL     1     -40.631 -47.288   9.357  1.00  0.00     0.164 HD
ENDROOT
BRANCH   1   7
HETATM    7  C   UNL     1     -39.435 -49.896  11.883  1.00  0.00     0.087 A 
HETATM    8  C   UNL     1     -40.167 -50.963  12.423  1.00  0.00     0.169 A 
HETATM    9  N   UNL     1     -39.667 -51.839  13.333  1.00  0.00    -0.345 N 
HETATM   10  C   UNL     1     -38.376 -51.699  13.685  1.00  0.00     0.090 A 
ATOM     11  HN  UNL     1     -40.248 -52.575  13.734  1.00  0.00     0.167 HD
HETATM   12  C   UNL     1     -37.544 -50.744  13.141  1.00  0.00     0.019 A 
HETATM   13  C   UNL     1     -38.084 -49.836  12.233  1.00  0.00     0.035 A 
BRANCH   8  14
HETATM   14  O   UNL     1     -41.480 -51.154  12.007  1.00  0.00    -0.334 OA
BRANCH  14  15
HETATM   15  C   UNL     1     -42.392 -50.976  13.106  1.00  0.00     0.173 C 
HETATM   16  C   UNL     1     -43.166 -49.682  12.940  1.00  0.00     0.034 C 
ENDBRANCH  14  15
ENDBRANCH   8  14
ENDBRANCH   1   7
BRANCH   4  17
HETATM   17  C   UNL     1     -41.292 -45.540  10.389  1.00  0.00     0.101 C 
HETATM   18  C   UNL     1     -40.162 -44.564  10.806  1.00  0.00     0.041 C 
HETATM   19  C   UNL     1     -40.741 -43.415  11.637  1.00  0.00     0.142 C 
HETATM   20  S   UNL     1     -42.503 -43.563  11.546  1.00  0.00     0.146 S 
HETATM   21  O   UNL     1     -43.090 -43.249  12.832  1.00  0.00    -0.228 OA
HETATM   22  O   UNL     1     -42.953 -42.937  10.320  1.00  0.00    -0.228 OA
HETATM   23  C   UNL     1     -42.495 -45.320  11.303  1.00  0.00     0.165 C 
ENDBRANCH   4  17
TORSDOF 4
ENDMDL
MODEL 9
REMARK VINA RESULT:      -5.4      4.025      5.431
REMARK  4 active torsions:
REMARK  status: ('A' for Active; 'I' for Inactive)
REMARK    1  A    between atoms: C_2  and  O_3 
REMARK    2  A    between atoms: O_3  and  C_4 
REMARK    3  A    between atoms: C_10  and  N_11 
REMARK       I    between atoms: N_11  and  C_12 
REMARK       I    between atoms: C_12  and  N_14 
REMARK    4  A    between atoms: N_14  and  C_15 
ROOT
HETATM    1  N   UNL     1     -41.984 -49.937  11.621  1.00  0.00    -0.305 N 
HETATM    2  C   UNL     1     -42.901 -50.248  12.604  1.00  0.00     0.321 C 
HETATM    3  O   UNL     1     -43.274 -49.514  13.511  1.00  0.00    -0.247 OA
HETATM    4  N   UNL     1     -43.407 -51.524  12.478  1.00  0.00    -0.337 N 
HETATM    5  H   UNL     1     -41.505 -50.701  11.159  1.00  0.00     0.171 HD
HETATM    6  H   UNL     1     -43.237 -52.003  11.604  1.00  0.00     0.164 HD
ENDROOT
BRANCH   1   7
HETATM    7  C   UNL     1     -41.400 -48.656  11.417  1.00  0.00     0.087 A 
HETATM    8  C   UNL     1     -41.957 -47.734  10.519  1.00  0.00     0.169 A 
HETATM    9  N   UNL     1     -41.394 -46.534  10.221  1.00  0.00    -0.345 N 
HETATM   10  C   UNL     1     -40.268 -46.197  10.876  1.00  0.00     0.090 A 
ATOM     11  HN  UNL     1     -41.809 -45.912   9.528  1.00  0.00     0.167 HD
HETATM   12  C   UNL     1     -39.694 -46.988  11.848  1.00  0.00     0.019 A 
HETATM   13  C   UNL     1     -40.268 -48.228  12.115  1.00  0.00     0.035 A 
BRANCH   8  14
HETATM   14  O   UNL     1     -43.159 -48.048   9.894  1.00  0.00    -0.334 OA
BRANCH  14  15
HETATM   15  C   UNL     1     -43.384 -47.186   8.764  1.00  0.00     0.173 C 
HETATM   16  C   UNL     1     -43.506 -48.007   7.494  1.00  0.00     0.034 C 
ENDBRANCH  14  15
ENDBRANCH   8  14
ENDBRANCH   1   7
BRANCH   4  17
HETATM   17  C   UNL     1     -44.450 -52.058  13.360  1.00  0.00     0.101 C 
HETATM   18  C   UNL     1     -45.845 -51.408  13.167  1.00  0.00     0.041 C 
HETATM   19  C   UNL     1     -46.599 -51.380  14.499  1.00  0.00     0.142 C 
HETATM   20  S   UNL     1     -45.647 -52.340  15.641  1.00  0.00     0.146 S 
HETATM   21  O   UNL     1     -45.664 -51.713  16.945  1.00  0.00    -0.228 OA
HETATM   22  O   UNL     1     -45.979 -53.737  15.453  1.00  0.00    -0.228 OA
HETATM   23  C   UNL     1     -44.093 -52.026  14.844  1.00  0.00     0.165 C 
ENDBRANCH   4  17
TORSDOF 4
ENDMDL
