MODEL 1
REMARK VINA RESULT:      -5.8      0.000      0.000
REMARK  4 active torsions:
REMARK  status: ('A' for Active; 'I' for Inactive)
REMARK    1  A    between atoms: C_2  and  C_3 
REMARK    2  A    between atoms: C_6  and  N_7 
REMARK       I    between atoms: N_7  and  C_8 
REMARK       I    between atoms: C_8  and  N_10 
REMARK    3  A    between atoms: N_10  and  C_11 
REMARK    4  A    between atoms: C_11  and  C_12 
ROOT
HETATM    1  N   UNL     1     -41.845 -48.255   9.800  1.00  0.00    -0.289 N 
HETATM    2  C   UNL     1     -41.628 -48.797  11.039  1.00  0.00     0.322 C 
HETATM    3  O   UNL     1     -42.411 -48.804  11.981  1.00  0.00    -0.247 OA
HETATM    4  N   UNL     1     -40.385 -49.396  11.130  1.00  0.00    -0.342 N 
HETATM    5  H   UNL     1     -41.341 -48.621   9.010  1.00  0.00     0.172 HD
HETATM    6  H   UNL     1     -39.651 -49.027  10.540  1.00  0.00     0.164 HD
ENDROOT
BRANCH   1   7
HETATM    7  C   UNL     1     -42.978 -47.534   9.552  1.00  0.00     0.152 A 
HETATM    8  S   UNL     1     -42.734 -45.866   9.289  1.00  0.00    -0.064 SA
HETATM    9  C   UNL     1     -44.419 -45.694   8.990  1.00  0.00     0.078 A 
HETATM   10  C   UNL     1     -45.057 -46.907   9.177  1.00  0.00     0.017 A 
HETATM   11  N   UNL     1     -44.215 -47.951   9.510  1.00  0.00    -0.340 N 
ATOM     12  HN  UNL     1     -44.516 -48.908   9.696  1.00  0.00     0.168 HD
BRANCH  10  13
HETATM   13  C   UNL     1     -46.516 -47.195   9.052  1.00  0.00     0.053 C 
HETATM   14  C   UNL     1     -46.792 -48.658   8.749  1.00  0.00     0.011 C 
ENDBRANCH  10  13
ENDBRANCH   1   7
BRANCH   4  15
HETATM   15  C   UNL     1     -39.963 -49.985  12.390  1.00  0.00     0.139 C 
BRANCH  15  16
HETATM   16  C   UNL     1     -39.980 -51.519  12.427  1.00  0.00     0.065 C 
HETATM   17  C   UNL     1     -41.339 -52.199  12.263  1.00  0.00     0.017 C 
HETATM   18  C   UNL     1     -41.300 -53.612  12.859  1.00  0.00     0.011 C 
HETATM   19  C   UNL     1     -39.981 -53.855  13.577  1.00  0.00     0.074 C 
HETATM   20  S   UNL     1     -39.393 -52.205  14.004  1.00  0.00    -0.163 SA
ENDBRANCH  15  16
ENDBRANCH   4  15
TORSDOF 4
ENDMDL
MODEL 2
REMARK VINA RESULT:      -5.7      1.921      2.765
REMARK  4 active torsions:
REMARK  status: ('A' for Active; 'I' for Inactive)
REMARK    1  A    between atoms: C_2  and  C_3 
REMARK    2  A    between atoms: C_6  and  N_7 
REMARK       I    between atoms: N_7  and  C_8 
REMARK       I    between atoms: C_8  and  N_10 
REMARK    3  A    between atoms: N_10  and  C_11 
REMARK    4  A    between atoms: C_11  and  C_12 
ROOT
HETATM    1  N   UNL     1     -41.954 -48.230   9.526  1.00  0.00    -0.289 N 
HETATM    2  C   UNL     1     -41.646 -48.802  10.732  1.00  0.00     0.322 C 
HETATM    3  O   UNL     1     -42.357 -48.835  11.729  1.00  0.00    -0.247 OA
HETATM    4  N   UNL     1     -40.399 -49.399  10.717  1.00  0.00    -0.342 N 
HETATM    5  H   UNL     1     -41.510 -48.575   8.693  1.00  0.00     0.172 HD
HETATM    6  H   UNL     1     -39.711 -49.014  10.083  1.00  0.00     0.164 HD
ENDROOT
BRANCH   1   7
HETATM    7  C   UNL     1     -43.104 -47.507   9.381  1.00  0.00     0.152 A 
HETATM    8  S   UNL     1     -42.887 -45.820   9.249  1.00  0.00    -0.064 SA
HETATM    9  C   UNL     1     -44.584 -45.646   9.028  1.00  0.00     0.078 A 
HETATM   10  C   UNL     1     -45.202 -46.879   9.137  1.00  0.00     0.017 A 
HETATM   11  N   UNL     1     -44.337 -47.935   9.350  1.00  0.00    -0.340 N 
ATOM     12  HN  UNL     1     -44.621 -48.909   9.467  1.00  0.00     0.168 HD
BRANCH  10  13
HETATM   13  C   UNL     1     -46.661 -47.175   9.042  1.00  0.00     0.053 C 
HETATM   14  C   UNL     1     -46.940 -48.662   8.891  1.00  0.00     0.011 C 
ENDBRANCH  10  13
ENDBRANCH   1   7
BRANCH   4  15
HETATM   15  C   UNL     1     -39.884 -50.018  11.926  1.00  0.00     0.139 C 
BRANCH  15  16
HETATM   16  C   UNL     1     -38.770 -49.234  12.633  1.00  0.00     0.065 C 
HETATM   17  C   UNL     1     -37.915 -50.003  13.640  1.00  0.00     0.017 C 
HETATM   18  C   UNL     1     -37.263 -49.032  14.632  1.00  0.00     0.011 C 
HETATM   19  C   UNL     1     -37.788 -47.619  14.424  1.00  0.00     0.074 C 
HETATM   20  S   UNL     1     -39.392 -47.850  13.632  1.00  0.00    -0.163 SA
ENDBRANCH  15  16
ENDBRANCH   4  15
TORSDOF 4
ENDMDL
MODEL 3
REMARK VINA RESULT:      -5.7      4.236      6.555
REMARK  4 active torsions:
REMARK  status: ('A' for Active; 'I' for Inactive)
REMARK    1  A    between atoms: C_2  and  C_3 
REMARK    2  A    between atoms: C_6  and  N_7 
REMARK       I    between atoms: N_7  and  C_8 
REMARK       I    between atoms: C_8  and  N_10 
REMARK    3  A    between atoms: N_10  and  C_11 
REMARK    4  A    between atoms: C_11  and  C_12 
ROOT
HETATM    1  N   UNL     1     -41.931 -51.584  11.543  1.00  0.00    -0.289 N 
HETATM    2  C   UNL     1     -42.495 -52.412  12.478  1.00  0.00     0.322 C 
HETATM    3  O   UNL     1     -42.108 -52.588  13.627  1.00  0.00    -0.247 OA
HETATM    4  N   UNL     1     -43.623 -53.046  11.993  1.00  0.00    -0.342 N 
HETATM    5  H   UNL     1     -42.506 -51.216  10.806  1.00  0.00     0.172 HD
HETATM    6  H   UNL     1     -43.666 -53.210  10.996  1.00  0.00     0.164 HD
ENDROOT
BRANCH   1   7
HETATM    7  C   UNL     1     -40.751 -50.948  11.809  1.00  0.00     0.152 A 
HETATM    8  S   UNL     1     -40.705 -49.298  11.379  1.00  0.00    -0.064 SA
HETATM    9  C   UNL     1     -39.118 -49.200  12.033  1.00  0.00     0.078 A 
HETATM   10  C   UNL     1     -38.711 -50.447  12.473  1.00  0.00     0.017 A 
HETATM   11  N   UNL     1     -39.659 -51.442  12.326  1.00  0.00    -0.340 N 
ATOM     12  HN  UNL     1     -39.524 -52.420  12.585  1.00  0.00     0.168 HD
BRANCH  10  13
HETATM   13  C   UNL     1     -37.397 -50.813  13.078  1.00  0.00     0.053 C 
HETATM   14  C   UNL     1     -37.236 -50.263  14.486  1.00  0.00     0.011 C 
ENDBRANCH  10  13
ENDBRANCH   1   7
BRANCH   4  15
HETATM   15  C   UNL     1     -44.329 -53.999  12.832  1.00  0.00     0.139 C 
BRANCH  15  16
HETATM   16  C   UNL     1     -45.561 -53.440  13.556  1.00  0.00     0.065 C 
HETATM   17  C   UNL     1     -45.986 -52.016  13.198  1.00  0.00     0.017 C 
HETATM   18  C   UNL     1     -46.822 -51.411  14.334  1.00  0.00     0.011 C 
HETATM   19  C   UNL     1     -46.840 -52.340  15.538  1.00  0.00     0.074 C 
HETATM   20  S   UNL     1     -45.351 -53.339  15.357  1.00  0.00    -0.163 SA
ENDBRANCH  15  16
ENDBRANCH   4  15
TORSDOF 4
ENDMDL
MODEL 4
REMARK VINA RESULT:      -5.6      2.694      3.837
REMARK  4 active torsions:
REMARK  status: ('A' for Active; 'I' for Inactive)
REMARK    1  A    between atoms: C_2  and  C_3 
REMARK    2  A    between atoms: C_6  and  N_7 
REMARK       I    between atoms: N_7  and  C_8 
REMARK       I    between atoms: C_8  and  N_10 
REMARK    3  A    between atoms: N_10  and  C_11 
REMARK    4  A    between atoms: C_11  and  C_12 
ROOT
HETATM    1  N   UNL     1     -41.570 -49.233  10.560  1.00  0.00    -0.289 N 
HETATM    2  C   UNL     1     -41.093 -49.940  11.632  1.00  0.00     0.322 C 
HETATM    3  O   UNL     1     -40.696 -49.478  12.694  1.00  0.00    -0.247 OA
HETATM    4  N   UNL     1     -41.128 -51.304  11.408  1.00  0.00    -0.342 N 
HETATM    5  H   UNL     1     -42.209 -49.679   9.925  1.00  0.00     0.172 HD
HETATM    6  H   UNL     1     -41.053 -51.616  10.449  1.00  0.00     0.164 HD
ENDROOT
BRANCH   1   7
HETATM    7  C   UNL     1     -41.521 -47.868  10.558  1.00  0.00     0.152 A 
HETATM    8  S   UNL     1     -43.037 -47.088  10.514  1.00  0.00    -0.064 SA
HETATM    9  C   UNL     1     -42.230 -45.573  10.617  1.00  0.00     0.078 A 
HETATM   10  C   UNL     1     -40.861 -45.766  10.611  1.00  0.00     0.017 A 
HETATM   11  N   UNL     1     -40.471 -47.091  10.565  1.00  0.00    -0.340 N 
ATOM     12  HN  UNL     1     -39.504 -47.416  10.542  1.00  0.00     0.168 HD
BRANCH  10  13
HETATM   13  C   UNL     1     -39.795 -44.723  10.654  1.00  0.00     0.053 C 
HETATM   14  C   UNL     1     -38.984 -44.672   9.370  1.00  0.00     0.011 C 
ENDBRANCH  10  13
ENDBRANCH   1   7
BRANCH   4  15
HETATM   15  C   UNL     1     -40.617 -52.212  12.421  1.00  0.00     0.139 C 
BRANCH  15  16
HETATM   16  C   UNL     1     -41.664 -52.732  13.416  1.00  0.00     0.065 C 
HETATM   17  C   UNL     1     -41.413 -54.111  14.025  1.00  0.00     0.017 C 
HETATM   18  C   UNL     1     -42.732 -54.718  14.522  1.00  0.00     0.011 C 
HETATM   19  C   UNL     1     -43.910 -53.846  14.115  1.00  0.00     0.074 C 
HETATM   20  S   UNL     1     -43.314 -52.927  12.683  1.00  0.00    -0.163 SA
ENDBRANCH  15  16
ENDBRANCH   4  15
TORSDOF 4
ENDMDL
MODEL 5
REMARK VINA RESULT:      -5.5      2.076      6.608
REMARK  4 active torsions:
REMARK  status: ('A' for Active; 'I' for Inactive)
REMARK    1  A    between atoms: C_2  and  C_3 
REMARK    2  A    between atoms: C_6  and  N_7 
REMARK       I    between atoms: N_7  and  C_8 
REMARK       I    between atoms: C_8  and  N_10 
REMARK    3  A    between atoms: N_10  and  C_11 
REMARK    4  A    between atoms: C_11  and  C_12 
ROOT
HETATM    1  N   UNL     1     -41.142 -51.404  11.358  1.00  0.00    -0.289 N 
HETATM    2  C   UNL     1     -41.408 -50.095  11.664  1.00  0.00     0.322 C 
HETATM    3  O   UNL     1     -42.075 -49.686  12.606  1.00  0.00    -0.247 OA
HETATM    4  N   UNL     1     -40.799 -49.224  10.780  1.00  0.00    -0.342 N 
HETATM    5  H   UNL     1     -40.310 -51.625  10.838  1.00  0.00     0.172 HD
HETATM    6  H   UNL     1     -40.634 -49.561   9.841  1.00  0.00     0.164 HD
ENDROOT
BRANCH   1   7
HETATM    7  C   UNL     1     -41.739 -52.411  12.061  1.00  0.00     0.152 A 
HETATM    8  S   UNL     1     -40.682 -53.370  12.995  1.00  0.00    -0.064 SA
HETATM    9  C   UNL     1     -42.039 -54.249  13.580  1.00  0.00     0.078 A 
HETATM   10  C   UNL     1     -43.194 -53.792  12.972  1.00  0.00     0.017 A 
HETATM   11  N   UNL     1     -43.002 -52.743  12.094  1.00  0.00    -0.340 N 
ATOM     12  HN  UNL     1     -43.739 -52.293  11.550  1.00  0.00     0.168 HD
BRANCH  10  13
HETATM   13  C   UNL     1     -44.585 -54.297  13.168  1.00  0.00     0.053 C 
HETATM   14  C   UNL     1     -45.622 -53.192  13.050  1.00  0.00     0.011 C 
ENDBRANCH  10  13
ENDBRANCH   1   7
BRANCH   4  15
HETATM   15  C   UNL     1     -41.008 -47.793  10.922  1.00  0.00     0.139 C 
BRANCH  15  16
HETATM   16  C   UNL     1     -42.359 -47.280  10.404  1.00  0.00     0.065 C 
HETATM   17  C   UNL     1     -42.811 -47.787   9.034  1.00  0.00     0.017 C 
HETATM   18  C   UNL     1     -43.828 -46.816   8.420  1.00  0.00     0.011 C 
HETATM   19  C   UNL     1     -43.959 -45.565   9.275  1.00  0.00     0.074 C 
HETATM   20  S   UNL     1     -42.404 -45.477  10.182  1.00  0.00    -0.163 SA
ENDBRANCH  15  16
ENDBRANCH   4  15
TORSDOF 4
ENDMDL
MODEL 6
REMARK VINA RESULT:      -5.5      2.974      6.585
REMARK  4 active torsions:
REMARK  status: ('A' for Active; 'I' for Inactive)
REMARK    1  A    between atoms: C_2  and  C_3 
REMARK    2  A    between atoms: C_6  and  N_7 
REMARK       I    between atoms: N_7  and  C_8 
REMARK       I    between atoms: C_8  and  N_10 
REMARK    3  A    between atoms: N_10  and  C_11 
REMARK    4  A    between atoms: C_11  and  C_12 
ROOT
HETATM    1  N   UNL     1     -41.034 -51.228  11.382  1.00  0.00    -0.289 N 
HETATM    2  C   UNL     1     -41.486 -49.943  11.529  1.00  0.00     0.322 C 
HETATM    3  O   UNL     1     -42.356 -49.558  12.301  1.00  0.00    -0.247 OA
HETATM    4  N   UNL     1     -40.815 -49.062  10.703  1.00  0.00    -0.342 N 
HETATM    5  H   UNL     1     -40.102 -51.382  11.040  1.00  0.00     0.172 HD
HETATM    6  H   UNL     1     -40.443 -49.433   9.838  1.00  0.00     0.164 HD
ENDROOT
BRANCH   1   7
HETATM    7  C   UNL     1     -41.646 -52.254  12.044  1.00  0.00     0.152 A 
HETATM    8  S   UNL     1     -40.626 -53.176  13.053  1.00  0.00    -0.064 SA
HETATM    9  C   UNL     1     -41.991 -54.099  13.545  1.00  0.00     0.078 A 
HETATM   10  C   UNL     1     -43.115 -53.682  12.856  1.00  0.00     0.017 A 
HETATM   11  N   UNL     1     -42.896 -52.627  11.990  1.00  0.00    -0.340 N 
ATOM     12  HN  UNL     1     -43.608 -52.202  11.395  1.00  0.00     0.168 HD
BRANCH  10  13
HETATM   13  C   UNL     1     -44.499 -54.231  12.956  1.00  0.00     0.053 C 
HETATM   14  C   UNL     1     -44.720 -55.009  14.243  1.00  0.00     0.011 C 
ENDBRANCH  10  13
ENDBRANCH   1   7
BRANCH   4  15
HETATM   15  C   UNL     1     -41.193 -47.659  10.690  1.00  0.00     0.139 C 
BRANCH  15  16
HETATM   16  C   UNL     1     -40.155 -46.700  11.290  1.00  0.00     0.065 C 
HETATM   17  C   UNL     1     -39.824 -46.881  12.771  1.00  0.00     0.017 C 
HETATM   18  C   UNL     1     -39.246 -45.581  13.347  1.00  0.00     0.011 C 
HETATM   19  C   UNL     1     -39.328 -44.459  12.323  1.00  0.00     0.074 C 
HETATM   20  S   UNL     1     -40.661 -44.957  11.216  1.00  0.00    -0.163 SA
ENDBRANCH  15  16
ENDBRANCH   4  15
TORSDOF 4
ENDMDL
MODEL 7
REMARK VINA RESULT:      -5.4      2.152      3.342
REMARK  4 active torsions:
REMARK  status: ('A' for Active; 'I' for Inactive)
REMARK    1  A    between atoms: C_2  and  C_3 
REMARK    2  A    between atoms: C_6  and  N_7 
REMARK       I    between atoms: N_7  and  C_8 
REMARK       I    between atoms: C_8  and  N_10 
REMARK    3  A    between atoms: N_10  and  C_11 
REMARK    4  A    between atoms: C_11  and  C_12 
ROOT
HETATM    1  N   UNL     1     -40.569 -50.447  11.031  1.00  0.00    -0.289 N 
HETATM    2  C   UNL     1     -41.253 -51.302  11.854  1.00  0.00     0.322 C 
HETATM    3  O   UNL     1     -42.293 -51.062  12.456  1.00  0.00    -0.247 OA
HETATM    4  N   UNL     1     -40.648 -52.542  11.930  1.00  0.00    -0.342 N 
HETATM    5  H   UNL     1     -39.983 -50.829  10.308  1.00  0.00     0.172 HD
HETATM    6  H   UNL     1     -39.646 -52.576  11.789  1.00  0.00     0.164 HD
ENDROOT
BRANCH   1   7
HETATM    7  C   UNL     1     -40.961 -49.145  10.910  1.00  0.00     0.152 A 
HETATM    8  S   UNL     1     -40.007 -48.017  11.763  1.00  0.00    -0.064 SA
HETATM    9  C   UNL     1     -40.969 -46.750  11.112  1.00  0.00     0.078 A 
HETATM   10  C   UNL     1     -41.989 -47.280  10.343  1.00  0.00     0.017 A 
HETATM   11  N   UNL     1     -41.976 -48.658  10.246  1.00  0.00    -0.340 N 
ATOM     12  HN  UNL     1     -42.659 -49.215   9.732  1.00  0.00     0.168 HD
BRANCH  10  13
HETATM   13  C   UNL     1     -43.064 -46.537   9.622  1.00  0.00     0.053 C 
HETATM   14  C   UNL     1     -43.600 -47.310   8.429  1.00  0.00     0.011 C 
ENDBRANCH  10  13
ENDBRANCH   1   7
BRANCH   4  15
HETATM   15  C   UNL     1     -41.210 -53.565  12.795  1.00  0.00     0.139 C 
BRANCH  15  16
HETATM   16  C   UNL     1     -40.476 -53.762  14.129  1.00  0.00     0.065 C 
HETATM   17  C   UNL     1     -39.223 -54.636  14.106  1.00  0.00     0.017 C 
HETATM   18  C   UNL     1     -38.935 -55.188  15.509  1.00  0.00     0.011 C 
HETATM   19  C   UNL     1     -40.066 -54.838  16.464  1.00  0.00     0.074 C 
HETATM   20  S   UNL     1     -41.494 -54.578  15.393  1.00  0.00    -0.163 SA
ENDBRANCH  15  16
ENDBRANCH   4  15
TORSDOF 4
ENDMDL
MODEL 8
REMARK VINA RESULT:      -5.3      1.947      2.480
REMARK  4 active torsions:
REMARK  status: ('A' for Active; 'I' for Inactive)
REMARK    1  A    between atoms: C_2  and  C_3 
REMARK    2  A    between atoms: C_6  and  N_7 
REMARK       I    between atoms: N_7  and  C_8 
REMARK       I    between atoms: C_8  and  N_10 
REMARK    3  A    between atoms: N_10  and  C_11 
REMARK    4  A    between atoms: C_11  and  C_12 
ROOT
HETATM    1  N   UNL     1     -40.929 -49.232  10.528  1.00  0.00    -0.289 N 
HETATM    2  C   UNL     1     -41.163 -50.095  11.566  1.00  0.00     0.322 C 
HETATM    3  O   UNL     1     -42.127 -50.084  12.322  1.00  0.00    -0.247 OA
HETATM    4  N   UNL     1     -40.174 -51.053  11.674  1.00  0.00    -0.342 N 
HETATM    5  H   UNL     1     -40.359 -49.536   9.758  1.00  0.00     0.172 HD
HETATM    6  H   UNL     1     -39.250 -50.801  11.349  1.00  0.00     0.164 HD
ENDROOT
BRANCH   1   7
HETATM    7  C   UNL     1     -41.748 -48.157  10.327  1.00  0.00     0.152 A 
HETATM    8  S   UNL     1     -41.132 -46.664  10.876  1.00  0.00    -0.064 SA
HETATM    9  C   UNL     1     -42.535 -45.888  10.254  1.00  0.00     0.078 A 
HETATM   10  C   UNL     1     -43.402 -46.829   9.731  1.00  0.00     0.017 A 
HETATM   11  N   UNL     1     -42.938 -48.130   9.792  1.00  0.00    -0.340 N 
ATOM     12  HN  UNL     1     -43.451 -48.949   9.465  1.00  0.00     0.168 HD
BRANCH  10  13
HETATM   13  C   UNL     1     -44.743 -46.591   9.121  1.00  0.00     0.053 C 
HETATM   14  C   UNL     1     -45.611 -47.838   9.129  1.00  0.00     0.011 C 
ENDBRANCH  10  13
ENDBRANCH   1   7
BRANCH   4  15
HETATM   15  C   UNL     1     -40.232 -52.029  12.750  1.00  0.00     0.139 C 
BRANCH  15  16
HETATM   16  C   UNL     1     -39.334 -51.720  13.956  1.00  0.00     0.065 C 
HETATM   17  C   UNL     1     -39.931 -50.843  15.056  1.00  0.00     0.017 C 
HETATM   18  C   UNL     1     -38.813 -50.178  15.869  1.00  0.00     0.011 C 
HETATM   19  C   UNL     1     -37.456 -50.456  15.241  1.00  0.00     0.074 C 
HETATM   20  S   UNL     1     -37.826 -50.810  13.513  1.00  0.00    -0.163 SA
ENDBRANCH  15  16
ENDBRANCH   4  15
TORSDOF 4
ENDMDL
MODEL 9
REMARK VINA RESULT:      -5.2      3.773      5.861
REMARK  4 active torsions:
REMARK  status: ('A' for Active; 'I' for Inactive)
REMARK    1  A    between atoms: C_2  and  C_3 
REMARK    2  A    between atoms: C_6  and  N_7 
REMARK       I    between atoms: N_7  and  C_8 
REMARK       I    between atoms: C_8  and  N_10 
REMARK    3  A    between atoms: N_10  and  C_11 
REMARK    4  A    between atoms: C_11  and  C_12 
ROOT
HETATM    1  N   UNL     1     -42.706 -52.333  11.848  1.00  0.00    -0.289 N 
HETATM    2  C   UNL     1     -41.679 -51.630  12.422  1.00  0.00     0.322 C 
HETATM    3  O   UNL     1     -41.627 -51.222  13.576  1.00  0.00    -0.247 OA
HETATM    4  N   UNL     1     -40.632 -51.434  11.541  1.00  0.00    -0.342 N 
HETATM    5  H   UNL     1     -42.509 -52.938  11.070  1.00  0.00     0.172 HD
HETATM    6  H   UNL     1     -40.859 -51.397  10.556  1.00  0.00     0.164 HD
ENDROOT
BRANCH   1   7
HETATM    7  C   UNL     1     -43.869 -52.537  12.535  1.00  0.00     0.152 A 
HETATM    8  S   UNL     1     -44.216 -54.166  12.904  1.00  0.00    -0.064 SA
HETATM    9  C   UNL     1     -45.620 -53.647  13.750  1.00  0.00     0.078 A 
HETATM   10  C   UNL     1     -45.760 -52.276  13.635  1.00  0.00     0.017 A 
HETATM   11  N   UNL     1     -44.750 -51.656  12.924  1.00  0.00    -0.340 N 
ATOM     12  HN  UNL     1     -44.700 -50.655  12.731  1.00  0.00     0.168 HD
BRANCH  10  13
HETATM   13  C   UNL     1     -46.852 -51.424  14.189  1.00  0.00     0.053 C 
HETATM   14  C   UNL     1     -47.083 -51.672  15.671  1.00  0.00     0.011 C 
ENDBRANCH  10  13
ENDBRANCH   1   7
BRANCH   4  15
HETATM   15  C   UNL     1     -39.472 -50.666  11.963  1.00  0.00     0.139 C 
BRANCH  15  16
HETATM   16  C   UNL     1     -39.513 -49.175  11.598  1.00  0.00     0.065 C 
HETATM   17  C   UNL     1     -39.269 -48.180  12.732  1.00  0.00     0.017 C 
HETATM   18  C   UNL     1     -39.870 -46.814  12.376  1.00  0.00     0.011 C 
HETATM   19  C   UNL     1     -40.667 -46.899  11.083  1.00  0.00     0.074 C 
HETATM   20  S   UNL     1     -41.124 -48.639  10.953  1.00  0.00    -0.163 SA
ENDBRANCH  15  16
ENDBRANCH   4  15
TORSDOF 4
ENDMDL
