MODEL 1
REMARK VINA RESULT:      -4.5      0.000      0.000
REMARK  3 active torsions:
REMARK  status: ('A' for Active; 'I' for Inactive)
REMARK       I    between atoms: N_1  and  C_2 
REMARK    1  A    between atoms: C_2  and  C_4 
REMARK    2  A    between atoms: C_4  and  C_5 
REMARK    3  A    between atoms: C_8  and  N_9 
ROOT
HETATM    1  C   UNL     1     -42.528 -47.210  10.070  1.00  0.00     0.026 A 
HETATM    2  C   UNL     1     -41.792 -46.461  10.968  1.00  0.00     0.078 A 
HETATM    3  S   UNL     1     -40.526 -47.411  11.625  1.00  0.00    -0.064 SA
HETATM    4  C   UNL     1     -41.039 -48.741  10.673  1.00  0.00     0.142 A 
HETATM    5  N   UNL     1     -42.090 -48.523   9.923  1.00  0.00    -0.340 N 
ATOM      6  HN  UNL     1     -42.527 -49.217   9.317  1.00  0.00     0.168 HD
ENDROOT
BRANCH   1   7
HETATM    7  C   UNL     1     -43.712 -46.753   9.278  1.00  0.00     0.160 C 
BRANCH   7   8
HETATM    8  C   UNL     1     -44.131 -47.734   8.196  1.00  0.00     0.221 C 
HETATM    9  N   UNL     1     -45.428 -48.157   8.211  1.00  0.00    -0.370 N 
HETATM   10  H   UNL     1     -45.724 -48.848   7.537  1.00  0.00     0.159 HD
HETATM   11  H   UNL     1     -46.015 -47.970   9.021  1.00  0.00     0.159 HD
HETATM   12  O   UNL     1     -43.376 -48.080   7.290  1.00  0.00    -0.273 OA
ENDBRANCH   7   8
ENDBRANCH   1   7
BRANCH   4  13
HETATM   13  N   UNL     1     -40.405 -49.922  10.706  1.00  0.00    -0.380 N 
HETATM   14  H   UNL     1     -40.916 -50.742  10.398  1.00  0.00     0.158 HD
HETATM   15  H   UNL     1     -39.431 -49.910  10.424  1.00  0.00     0.158 HD
ENDBRANCH   4  13
TORSDOF 3
ENDMDL
MODEL 2
REMARK VINA RESULT:      -4.3      6.495      7.294
REMARK  3 active torsions:
REMARK  status: ('A' for Active; 'I' for Inactive)
REMARK       I    between atoms: N_1  and  C_2 
REMARK    1  A    between atoms: C_2  and  C_4 
REMARK    2  A    between atoms: C_4  and  C_5 
REMARK    3  A    between atoms: C_8  and  N_9 
ROOT
HETATM    1  C   UNL     1     -42.923 -53.934  13.921  1.00  0.00     0.026 A 
HETATM    2  C   UNL     1     -42.146 -53.173  14.773  1.00  0.00     0.078 A 
HETATM    3  S   UNL     1     -41.027 -52.240  13.869  1.00  0.00    -0.064 SA
HETATM    4  C   UNL     1     -41.654 -52.905  12.420  1.00  0.00     0.142 A 
HETATM    5  N   UNL     1     -42.618 -53.778  12.572  1.00  0.00    -0.340 N 
ATOM      6  HN  UNL     1     -43.080 -54.274  11.810  1.00  0.00     0.168 HD
ENDROOT
BRANCH   1   7
HETATM    7  C   UNL     1     -44.018 -54.878  14.307  1.00  0.00     0.160 C 
BRANCH   7   8
HETATM    8  C   UNL     1     -45.346 -54.570  13.637  1.00  0.00     0.221 C 
HETATM    9  N   UNL     1     -46.477 -54.956  14.297  1.00  0.00    -0.370 N 
HETATM   10  H   UNL     1     -47.373 -54.813  13.855  1.00  0.00     0.159 HD
HETATM   11  H   UNL     1     -46.412 -55.586  15.094  1.00  0.00     0.159 HD
HETATM   12  O   UNL     1     -45.426 -53.932  12.591  1.00  0.00    -0.273 OA
ENDBRANCH   7   8
ENDBRANCH   1   7
BRANCH   4  13
HETATM   13  N   UNL     1     -41.178 -52.553  11.216  1.00  0.00    -0.380 N 
HETATM   14  H   UNL     1     -40.478 -53.151  10.791  1.00  0.00     0.158 HD
HETATM   15  H   UNL     1     -41.858 -52.181  10.562  1.00  0.00     0.158 HD
ENDBRANCH   4  13
TORSDOF 3
ENDMDL
MODEL 3
REMARK VINA RESULT:      -4.2      6.559      7.054
REMARK  3 active torsions:
REMARK  status: ('A' for Active; 'I' for Inactive)
REMARK       I    between atoms: N_1  and  C_2 
REMARK    1  A    between atoms: C_2  and  C_4 
REMARK    2  A    between atoms: C_4  and  C_5 
REMARK    3  A    between atoms: C_8  and  N_9 
ROOT
HETATM    1  C   UNL     1     -44.343 -52.735  13.057  1.00  0.00     0.026 A 
HETATM    2  C   UNL     1     -43.893 -51.696  13.849  1.00  0.00     0.078 A 
HETATM    3  S   UNL     1     -42.317 -51.228  13.364  1.00  0.00    -0.064 SA
HETATM    4  C   UNL     1     -42.345 -52.428  12.140  1.00  0.00     0.142 A 
HETATM    5  N   UNL     1     -43.435 -53.153  12.089  1.00  0.00    -0.340 N 
ATOM      6  HN  UNL     1     -43.596 -53.916  11.432  1.00  0.00     0.168 HD
ENDROOT
BRANCH   1   7
HETATM    7  C   UNL     1     -45.666 -53.427  13.150  1.00  0.00     0.160 C 
BRANCH   7   8
HETATM    8  C   UNL     1     -45.649 -54.647  14.054  1.00  0.00     0.221 C 
HETATM    9  N   UNL     1     -46.855 -55.106  14.498  1.00  0.00    -0.370 N 
HETATM   10  H   UNL     1     -46.874 -55.884  15.143  1.00  0.00     0.159 HD
HETATM   11  H   UNL     1     -47.691 -54.538  14.381  1.00  0.00     0.159 HD
HETATM   12  O   UNL     1     -44.617 -55.258  14.320  1.00  0.00    -0.273 OA
ENDBRANCH   7   8
ENDBRANCH   1   7
BRANCH   4  13
HETATM   13  N   UNL     1     -41.314 -52.609  11.303  1.00  0.00    -0.380 N 
HETATM   14  H   UNL     1     -40.477 -53.049  11.671  1.00  0.00     0.158 HD
HETATM   15  H   UNL     1     -41.553 -52.898  10.361  1.00  0.00     0.158 HD
ENDBRANCH   4  13
TORSDOF 3
ENDMDL
MODEL 4
REMARK VINA RESULT:      -4.2      5.549      6.128
REMARK  3 active torsions:
REMARK  status: ('A' for Active; 'I' for Inactive)
REMARK       I    between atoms: N_1  and  C_2 
REMARK    1  A    between atoms: C_2  and  C_4 
REMARK    2  A    between atoms: C_4  and  C_5 
REMARK    3  A    between atoms: C_8  and  N_9 
ROOT
HETATM    1  C   UNL     1     -43.326 -53.409  12.748  1.00  0.00     0.026 A 
HETATM    2  C   UNL     1     -42.367 -54.088  13.475  1.00  0.00     0.078 A 
HETATM    3  S   UNL     1     -40.806 -53.498  13.083  1.00  0.00    -0.064 SA
HETATM    4  C   UNL     1     -41.510 -52.386  11.985  1.00  0.00     0.142 A 
HETATM    5  N   UNL     1     -42.815 -52.444  11.886  1.00  0.00    -0.340 N 
ATOM      6  HN  UNL     1     -43.377 -51.863  11.264  1.00  0.00     0.168 HD
ENDROOT
BRANCH   1   7
HETATM    7  C   UNL     1     -44.807 -53.617  12.799  1.00  0.00     0.160 C 
BRANCH   7   8
HETATM    8  C   UNL     1     -45.603 -52.331  12.660  1.00  0.00     0.221 C 
HETATM    9  N   UNL     1     -46.628 -52.331  11.760  1.00  0.00    -0.370 N 
HETATM   10  H   UNL     1     -47.144 -51.477  11.606  1.00  0.00     0.159 HD
HETATM   11  H   UNL     1     -46.717 -53.092  11.089  1.00  0.00     0.159 HD
HETATM   12  O   UNL     1     -45.404 -51.350  13.373  1.00  0.00    -0.273 OA
ENDBRANCH   7   8
ENDBRANCH   1   7
BRANCH   4  13
HETATM   13  N   UNL     1     -40.766 -51.525  11.276  1.00  0.00    -0.380 N 
HETATM   14  H   UNL     1     -40.203 -51.898  10.519  1.00  0.00     0.158 HD
HETATM   15  H   UNL     1     -41.198 -50.632  11.069  1.00  0.00     0.158 HD
ENDBRANCH   4  13
TORSDOF 3
ENDMDL
MODEL 5
REMARK VINA RESULT:      -4.1      5.054      5.753
REMARK  3 active torsions:
REMARK  status: ('A' for Active; 'I' for Inactive)
REMARK       I    between atoms: N_1  and  C_2 
REMARK    1  A    between atoms: C_2  and  C_4 
REMARK    2  A    between atoms: C_4  and  C_5 
REMARK    3  A    between atoms: C_8  and  N_9 
ROOT
HETATM    1  C   UNL     1     -39.972 -50.059  12.255  1.00  0.00     0.026 A 
HETATM    2  C   UNL     1     -40.717 -49.772  13.383  1.00  0.00     0.078 A 
HETATM    3  S   UNL     1     -42.055 -50.838  13.490  1.00  0.00    -0.064 SA
HETATM    4  C   UNL     1     -41.552 -51.604  12.042  1.00  0.00     0.142 A 
HETATM    5  N   UNL     1     -40.474 -51.107  11.488  1.00  0.00    -0.340 N 
ATOM      6  HN  UNL     1     -40.061 -51.440  10.617  1.00  0.00     0.168 HD
ENDROOT
BRANCH   1   7
HETATM    7  C   UNL     1     -38.727 -49.367  11.800  1.00  0.00     0.160 C 
BRANCH   7   8
HETATM    8  C   UNL     1     -37.654 -50.319  11.300  1.00  0.00     0.221 C 
HETATM    9  N   UNL     1     -37.105 -50.049  10.081  1.00  0.00    -0.370 N 
HETATM   10  H   UNL     1     -36.427 -50.691   9.697  1.00  0.00     0.159 HD
HETATM   11  H   UNL     1     -37.538 -49.360   9.468  1.00  0.00     0.159 HD
HETATM   12  O   UNL     1     -37.225 -51.248  11.981  1.00  0.00    -0.273 OA
ENDBRANCH   7   8
ENDBRANCH   1   7
BRANCH   4  13
HETATM   13  N   UNL     1     -42.226 -52.638  11.518  1.00  0.00    -0.380 N 
HETATM   14  H   UNL     1     -42.255 -52.719  10.507  1.00  0.00     0.158 HD
HETATM   15  H   UNL     1     -42.127 -53.523  12.002  1.00  0.00     0.158 HD
ENDBRANCH   4  13
TORSDOF 3
ENDMDL
MODEL 6
REMARK VINA RESULT:      -3.9      6.159      7.316
REMARK  3 active torsions:
REMARK  status: ('A' for Active; 'I' for Inactive)
REMARK       I    between atoms: N_1  and  C_2 
REMARK    1  A    between atoms: C_2  and  C_4 
REMARK    2  A    between atoms: C_4  and  C_5 
REMARK    3  A    between atoms: C_8  and  N_9 
ROOT
HETATM    1  C   UNL     1     -43.575 -53.673  13.299  1.00  0.00     0.026 A 
HETATM    2  C   UNL     1     -44.243 -54.402  14.264  1.00  0.00     0.078 A 
HETATM    3  S   UNL     1     -45.929 -54.112  14.156  1.00  0.00    -0.064 SA
HETATM    4  C   UNL     1     -45.655 -53.049  12.839  1.00  0.00     0.142 A 
HETATM    5  N   UNL     1     -44.401 -52.891  12.497  1.00  0.00    -0.340 N 
ATOM      6  HN  UNL     1     -44.075 -52.279  11.749  1.00  0.00     0.168 HD
ENDROOT
BRANCH   1   7
HETATM    7  C   UNL     1     -42.099 -53.649  13.053  1.00  0.00     0.160 C 
BRANCH   7   8
HETATM    8  C   UNL     1     -41.633 -52.417  12.295  1.00  0.00     0.221 C 
HETATM    9  N   UNL     1     -41.121 -52.616  11.046  1.00  0.00    -0.370 N 
HETATM   10  H   UNL     1     -40.754 -51.824  10.537  1.00  0.00     0.159 HD
HETATM   11  H   UNL     1     -40.890 -53.557  10.733  1.00  0.00     0.159 HD
HETATM   12  O   UNL     1     -41.777 -51.278  12.732  1.00  0.00    -0.273 OA
ENDBRANCH   7   8
ENDBRANCH   1   7
BRANCH   4  13
HETATM   13  N   UNL     1     -46.662 -52.424  12.213  1.00  0.00    -0.380 N 
HETATM   14  H   UNL     1     -47.543 -52.919  12.123  1.00  0.00     0.158 HD
HETATM   15  H   UNL     1     -46.761 -51.435  12.411  1.00  0.00     0.158 HD
ENDBRANCH   4  13
TORSDOF 3
ENDMDL
MODEL 7
REMARK VINA RESULT:      -3.7      3.156      4.306
REMARK  3 active torsions:
REMARK  status: ('A' for Active; 'I' for Inactive)
REMARK       I    between atoms: N_1  and  C_2 
REMARK    1  A    between atoms: C_2  and  C_4 
REMARK    2  A    between atoms: C_4  and  C_5 
REMARK    3  A    between atoms: C_8  and  N_9 
ROOT
HETATM    1  C   UNL     1     -41.291 -46.164  11.431  1.00  0.00     0.026 A 
HETATM    2  C   UNL     1     -42.080 -46.876  12.314  1.00  0.00     0.078 A 
HETATM    3  S   UNL     1     -43.059 -47.992  11.457  1.00  0.00    -0.064 SA
HETATM    4  C   UNL     1     -42.367 -47.457   9.983  1.00  0.00     0.142 A 
HETATM    5  N   UNL     1     -41.479 -46.502  10.094  1.00  0.00    -0.340 N 
ATOM      6  HN  UNL     1     -40.994 -46.065   9.310  1.00  0.00     0.168 HD
ENDROOT
BRANCH   1   7
HETATM    7  C   UNL     1     -40.296 -45.100  11.772  1.00  0.00     0.160 C 
BRANCH   7   8
HETATM    8  C   UNL     1     -40.129 -44.057  10.681  1.00  0.00     0.221 C 
HETATM    9  N   UNL     1     -40.493 -42.778  10.986  1.00  0.00    -0.370 N 
HETATM   10  H   UNL     1     -40.443 -42.070  10.266  1.00  0.00     0.159 HD
HETATM   11  H   UNL     1     -41.026 -42.588  11.832  1.00  0.00     0.159 HD
HETATM   12  O   UNL     1     -39.615 -44.313   9.594  1.00  0.00    -0.273 OA
ENDBRANCH   7   8
ENDBRANCH   1   7
BRANCH   4  13
HETATM   13  N   UNL     1     -42.723 -47.984   8.803  1.00  0.00    -0.380 N 
HETATM   14  H   UNL     1     -43.679 -47.848   8.492  1.00  0.00     0.158 HD
HETATM   15  H   UNL     1     -42.034 -47.919   8.062  1.00  0.00     0.158 HD
ENDBRANCH   4  13
TORSDOF 3
ENDMDL
MODEL 8
REMARK VINA RESULT:      -3.7      4.725      5.916
REMARK  3 active torsions:
REMARK  status: ('A' for Active; 'I' for Inactive)
REMARK       I    between atoms: N_1  and  C_2 
REMARK    1  A    between atoms: C_2  and  C_4 
REMARK    2  A    between atoms: C_4  and  C_5 
REMARK    3  A    between atoms: C_8  and  N_9 
ROOT
HETATM    1  C   UNL     1     -41.763 -52.297  12.719  1.00  0.00     0.026 A 
HETATM    2  C   UNL     1     -41.904 -51.269  13.631  1.00  0.00     0.078 A 
HETATM    3  S   UNL     1     -41.320 -49.805  12.958  1.00  0.00    -0.064 SA
HETATM    4  C   UNL     1     -40.928 -50.634  11.510  1.00  0.00     0.142 A 
HETATM    5  N   UNL     1     -41.188 -51.917  11.510  1.00  0.00    -0.340 N 
ATOM      6  HN  UNL     1     -40.995 -52.550  10.733  1.00  0.00     0.168 HD
ENDROOT
BRANCH   1   7
HETATM    7  C   UNL     1     -42.155 -53.729  12.911  1.00  0.00     0.160 C 
BRANCH   7   8
HETATM    8  C   UNL     1     -43.655 -53.934  13.035  1.00  0.00     0.221 C 
HETATM    9  N   UNL     1     -44.112 -54.467  14.205  1.00  0.00    -0.370 N 
HETATM   10  H   UNL     1     -45.098 -54.665  14.299  1.00  0.00     0.159 HD
HETATM   11  H   UNL     1     -43.458 -54.880  14.867  1.00  0.00     0.159 HD
HETATM   12  O   UNL     1     -44.446 -53.568  12.169  1.00  0.00    -0.273 OA
ENDBRANCH   7   8
ENDBRANCH   1   7
BRANCH   4  13
HETATM   13  N   UNL     1     -40.387 -50.003  10.458  1.00  0.00    -0.380 N 
HETATM   14  H   UNL     1     -41.016 -49.548   9.805  1.00  0.00     0.158 HD
HETATM   15  H   UNL     1     -39.534 -49.486  10.641  1.00  0.00     0.158 HD
ENDBRANCH   4  13
TORSDOF 3
ENDMDL
MODEL 9
REMARK VINA RESULT:      -3.5      6.470      6.672
REMARK  3 active torsions:
REMARK  status: ('A' for Active; 'I' for Inactive)
REMARK       I    between atoms: N_1  and  C_2 
REMARK    1  A    between atoms: C_2  and  C_4 
REMARK    2  A    between atoms: C_4  and  C_5 
REMARK    3  A    between atoms: C_8  and  N_9 
ROOT
HETATM    1  C   UNL     1     -44.980 -51.459  13.503  1.00  0.00     0.026 A 
HETATM    2  C   UNL     1     -44.125 -50.708  14.286  1.00  0.00     0.078 A 
HETATM    3  S   UNL     1     -42.507 -50.925  13.761  1.00  0.00    -0.064 SA
HETATM    4  C   UNL     1     -43.055 -51.992  12.536  1.00  0.00     0.142 A 
HETATM    5  N   UNL     1     -44.347 -52.202  12.511  1.00  0.00    -0.340 N 
ATOM      6  HN  UNL     1     -44.823 -52.823  11.856  1.00  0.00     0.168 HD
ENDROOT
BRANCH   1   7
HETATM    7  C   UNL     1     -46.469 -51.546  13.628  1.00  0.00     0.160 C 
BRANCH   7   8
HETATM    8  C   UNL     1     -46.931 -52.536  14.684  1.00  0.00     0.221 C 
HETATM    9  N   UNL     1     -46.932 -53.855  14.337  1.00  0.00    -0.370 N 
HETATM   10  H   UNL     1     -47.282 -54.534  14.998  1.00  0.00     0.159 HD
HETATM   11  H   UNL     1     -46.815 -54.127  13.363  1.00  0.00     0.159 HD
HETATM   12  O   UNL     1     -47.216 -52.195  15.829  1.00  0.00    -0.273 OA
ENDBRANCH   7   8
ENDBRANCH   1   7
BRANCH   4  13
HETATM   13  N   UNL     1     -42.209 -52.570  11.672  1.00  0.00    -0.380 N 
HETATM   14  H   UNL     1     -42.314 -52.349  10.687  1.00  0.00     0.158 HD
HETATM   15  H   UNL     1     -41.246 -52.648  11.978  1.00  0.00     0.158 HD
ENDBRANCH   4  13
TORSDOF 3
ENDMDL
