MODEL 1
REMARK VINA RESULT:      -5.2      0.000      0.000
REMARK  5 active torsions:
REMARK  status: ('A' for Active; 'I' for Inactive)
REMARK    1  A    between atoms: C_2  and  C_3 
REMARK    2  A    between atoms: C_7  and  C_8 
REMARK    3  A    between atoms: C_8  and  C_9 
REMARK    4  A    between atoms: C_9  and  N_10 
REMARK    5  A    between atoms: N_10  and  C_11 
ROOT
HETATM    1  C   UNL     1     -41.068 -48.488  11.321  1.00  0.00     0.095 C 
ENDROOT
BRANCH   1   2
HETATM    2  C   UNL     1     -42.191 -48.160  10.382  1.00  0.00     0.052 A 
HETATM    3  N   UNL     1     -42.108 -48.137   9.068  1.00  0.00    -0.363 N 
HETATM    4  C   UNL     1     -43.291 -47.702   8.521  1.00  0.00     0.103 A 
ATOM      5  HN  UNL     1     -41.283 -48.405   8.532  1.00  0.00     0.165 HD
HETATM    6  C   UNL     1     -44.284 -47.391   9.425  1.00  0.00    -0.001 A 
HETATM    7  S   UNL     1     -43.720 -47.681  11.017  1.00  0.00    -0.080 SA
BRANCH   6   8
HETATM    8  C   UNL     1     -45.654 -46.867   9.163  1.00  0.00     0.043 C 
HETATM    9  C   UNL     1     -46.666 -47.991   9.012  1.00  0.00     0.010 C 
ENDBRANCH   6   8
ENDBRANCH   1   2
BRANCH   1  10
HETATM   10  C   UNL     1     -40.313 -49.783  10.984  1.00  0.00     0.276 C 
BRANCH  10  11
HETATM   11  N   UNL     1     -40.989 -50.988  11.447  1.00  0.00     0.089 N 
HETATM   12  H   UNL     1     -40.648 -51.839  11.002  1.00  0.00     0.316 HD
BRANCH  11  13
HETATM   13  C   UNL     1     -41.108 -51.137  12.898  1.00  0.00     0.229 C 
HETATM   14  C   UNL     1     -40.291 -52.317  13.455  1.00  0.00     0.037 C 
HETATM   15  C   UNL     1     -40.722 -53.674  12.898  1.00  0.00     0.012 C 
HETATM   16  C   UNL     1     -42.162 -54.026  13.253  1.00  0.00     0.074 C 
HETATM   17  S   UNL     1     -43.358 -52.816  12.623  1.00  0.00    -0.167 SA
HETATM   18  C   UNL     1     -42.596 -51.290  13.281  1.00  0.00     0.109 C 
ENDBRANCH  11  13
ENDBRANCH  10  11
ENDBRANCH   1  10
TORSDOF 5
ENDMDL
MODEL 2
REMARK VINA RESULT:      -4.9      3.601      5.771
REMARK  5 active torsions:
REMARK  status: ('A' for Active; 'I' for Inactive)
REMARK    1  A    between atoms: C_2  and  C_3 
REMARK    2  A    between atoms: C_7  and  C_8 
REMARK    3  A    between atoms: C_8  and  C_9 
REMARK    4  A    between atoms: C_9  and  N_10 
REMARK    5  A    between atoms: N_10  and  C_11 
ROOT
HETATM    1  C   UNL     1     -41.909 -52.560  13.293  1.00  0.00     0.095 C 
ENDROOT
BRANCH   1   2
HETATM    2  C   UNL     1     -40.992 -51.545  12.678  1.00  0.00     0.052 A 
HETATM    3  N   UNL     1     -41.270 -50.799  11.629  1.00  0.00    -0.363 N 
HETATM    4  C   UNL     1     -40.175 -50.050  11.271  1.00  0.00     0.103 A 
ATOM      5  HN  UNL     1     -42.170 -50.779  11.151  1.00  0.00     0.165 HD
HETATM    6  C   UNL     1     -39.054 -50.225  12.053  1.00  0.00    -0.001 A 
HETATM    7  S   UNL     1     -39.396 -51.352  13.299  1.00  0.00    -0.080 SA
BRANCH   6   8
HETATM    8  C   UNL     1     -37.710 -49.597  11.913  1.00  0.00     0.043 C 
HETATM    9  C   UNL     1     -37.025 -50.019  10.623  1.00  0.00     0.010 C 
ENDBRANCH   6   8
ENDBRANCH   1   2
BRANCH   1  10
HETATM   10  C   UNL     1     -43.131 -52.919  12.435  1.00  0.00     0.276 C 
BRANCH  10  11
HETATM   11  N   UNL     1     -44.298 -52.091  12.708  1.00  0.00     0.089 N 
HETATM   12  H   UNL     1     -44.303 -51.216  12.187  1.00  0.00     0.316 HD
BRANCH  11  13
HETATM   13  C   UNL     1     -45.592 -52.772  12.648  1.00  0.00     0.229 C 
HETATM   14  C   UNL     1     -46.772 -51.867  13.047  1.00  0.00     0.037 C 
HETATM   15  C   UNL     1     -46.683 -51.346  14.482  1.00  0.00     0.012 C 
HETATM   16  C   UNL     1     -46.714 -52.463  15.517  1.00  0.00     0.074 C 
HETATM   17  S   UNL     1     -45.348 -53.643  15.320  1.00  0.00    -0.167 SA
HETATM   18  C   UNL     1     -45.556 -54.028  13.545  1.00  0.00     0.109 C 
ENDBRANCH  11  13
ENDBRANCH  10  11
ENDBRANCH   1  10
TORSDOF 5
ENDMDL
MODEL 3
REMARK VINA RESULT:      -4.9      2.700      3.208
REMARK  5 active torsions:
REMARK  status: ('A' for Active; 'I' for Inactive)
REMARK    1  A    between atoms: C_2  and  C_3 
REMARK    2  A    between atoms: C_7  and  C_8 
REMARK    3  A    between atoms: C_8  and  C_9 
REMARK    4  A    between atoms: C_9  and  N_10 
REMARK    5  A    between atoms: N_10  and  C_11 
ROOT
HETATM    1  C   UNL     1     -41.174 -47.868  10.670  1.00  0.00     0.095 C 
ENDROOT
BRANCH   1   2
HETATM    2  C   UNL     1     -42.458 -47.806   9.896  1.00  0.00     0.052 A 
HETATM    3  N   UNL     1     -42.574 -47.954   8.593  1.00  0.00    -0.363 N 
HETATM    4  C   UNL     1     -43.873 -47.741   8.201  1.00  0.00     0.103 A 
ATOM      5  HN  UNL     1     -41.807 -48.194   7.964  1.00  0.00     0.165 HD
HETATM    6  C   UNL     1     -44.755 -47.428   9.212  1.00  0.00    -0.001 A 
HETATM    7  S   UNL     1     -43.927 -47.428  10.713  1.00  0.00    -0.080 SA
BRANCH   6   8
HETATM    8  C   UNL     1     -46.207 -47.109   9.120  1.00  0.00     0.043 C 
HETATM    9  C   UNL     1     -47.041 -48.357   8.879  1.00  0.00     0.010 C 
ENDBRANCH   6   8
ENDBRANCH   1   2
BRANCH   1  10
HETATM   10  C   UNL     1     -40.804 -49.268  11.180  1.00  0.00     0.276 C 
BRANCH  10  11
HETATM   11  N   UNL     1     -40.139 -49.260  12.477  1.00  0.00     0.089 N 
HETATM   12  H   UNL     1     -40.148 -50.166  12.941  1.00  0.00     0.316 HD
BRANCH  11  13
HETATM   13  C   UNL     1     -38.815 -48.638  12.512  1.00  0.00     0.229 C 
HETATM   14  C   UNL     1     -37.674 -49.624  12.204  1.00  0.00     0.037 C 
HETATM   15  C   UNL     1     -37.578 -50.777  13.204  1.00  0.00     0.012 C 
HETATM   16  C   UNL     1     -37.280 -50.303  14.621  1.00  0.00     0.074 C 
HETATM   17  S   UNL     1     -38.546 -49.175  15.268  1.00  0.00    -0.167 SA
HETATM   18  C   UNL     1     -38.592 -47.976  13.888  1.00  0.00     0.109 C 
ENDBRANCH  11  13
ENDBRANCH  10  11
ENDBRANCH   1  10
TORSDOF 5
ENDMDL
MODEL 4
REMARK VINA RESULT:      -4.8      4.183      6.210
REMARK  5 active torsions:
REMARK  status: ('A' for Active; 'I' for Inactive)
REMARK    1  A    between atoms: C_2  and  C_3 
REMARK    2  A    between atoms: C_7  and  C_8 
REMARK    3  A    between atoms: C_8  and  C_9 
REMARK    4  A    between atoms: C_9  and  N_10 
REMARK    5  A    between atoms: N_10  and  C_11 
ROOT
HETATM    1  C   UNL     1     -41.506 -53.454  13.801  1.00  0.00     0.095 C 
ENDROOT
BRANCH   1   2
HETATM    2  C   UNL     1     -40.354 -52.553  13.465  1.00  0.00     0.052 A 
HETATM    3  N   UNL     1     -39.184 -52.549  14.068  1.00  0.00    -0.363 N 
HETATM    4  C   UNL     1     -38.396 -51.535  13.580  1.00  0.00     0.103 A 
ATOM      5  HN  UNL     1     -38.902 -53.206  14.796  1.00  0.00     0.165 HD
HETATM    6  C   UNL     1     -38.969 -50.760  12.594  1.00  0.00    -0.001 A 
HETATM    7  S   UNL     1     -40.545 -51.343  12.252  1.00  0.00    -0.080 SA
BRANCH   6   8
HETATM    8  C   UNL     1     -38.402 -49.577  11.888  1.00  0.00     0.043 C 
HETATM    9  C   UNL     1     -37.242 -49.965  10.986  1.00  0.00     0.010 C 
ENDBRANCH   6   8
ENDBRANCH   1   2
BRANCH   1  10
HETATM   10  C   UNL     1     -42.693 -53.359  12.832  1.00  0.00     0.276 C 
BRANCH  10  11
HETATM   11  N   UNL     1     -43.849 -52.672  13.392  1.00  0.00     0.089 N 
HETATM   12  H   UNL     1     -43.761 -51.657  13.381  1.00  0.00     0.316 HD
BRANCH  11  13
HETATM   13  C   UNL     1     -45.155 -53.114  12.901  1.00  0.00     0.229 C 
HETATM   14  C   UNL     1     -46.218 -52.001  12.919  1.00  0.00     0.037 C 
HETATM   15  C   UNL     1     -46.505 -51.453  14.317  1.00  0.00     0.012 C 
HETATM   16  C   UNL     1     -47.067 -52.510  15.260  1.00  0.00     0.074 C 
HETATM   17  S   UNL     1     -45.945 -53.918  15.488  1.00  0.00    -0.167 SA
HETATM   18  C   UNL     1     -45.636 -54.324  13.731  1.00  0.00     0.109 C 
ENDBRANCH  11  13
ENDBRANCH  10  11
ENDBRANCH   1  10
TORSDOF 5
ENDMDL
MODEL 5
REMARK VINA RESULT:      -4.7      2.976      4.302
REMARK  5 active torsions:
REMARK  status: ('A' for Active; 'I' for Inactive)
REMARK    1  A    between atoms: C_2  and  C_3 
REMARK    2  A    between atoms: C_7  and  C_8 
REMARK    3  A    between atoms: C_8  and  C_9 
REMARK    4  A    between atoms: C_9  and  N_10 
REMARK    5  A    between atoms: N_10  and  C_11 
ROOT
HETATM    1  C   UNL     1     -43.017 -49.699  13.290  1.00  0.00     0.095 C 
ENDROOT
BRANCH   1   2
HETATM    2  C   UNL     1     -42.575 -48.753  12.213  1.00  0.00     0.052 A 
HETATM    3  N   UNL     1     -42.210 -49.096  10.996  1.00  0.00    -0.363 N 
HETATM    4  C   UNL     1     -41.772 -47.996  10.299  1.00  0.00     0.103 A 
ATOM      5  HN  UNL     1     -42.246 -50.045  10.623  1.00  0.00     0.165 HD
HETATM    6  C   UNL     1     -41.805 -46.804  10.990  1.00  0.00    -0.001 A 
HETATM    7  S   UNL     1     -42.434 -47.071  12.562  1.00  0.00    -0.080 SA
BRANCH   6   8
HETATM    8  C   UNL     1     -41.374 -45.450  10.540  1.00  0.00     0.043 C 
HETATM    9  C   UNL     1     -39.860 -45.332  10.487  1.00  0.00     0.010 C 
ENDBRANCH   6   8
ENDBRANCH   1   2
BRANCH   1  10
HETATM   10  C   UNL     1     -42.911 -51.185  12.917  1.00  0.00     0.276 C 
BRANCH  10  11
HETATM   11  N   UNL     1     -43.813 -52.042  13.676  1.00  0.00     0.089 N 
HETATM   12  H   UNL     1     -44.063 -51.660  14.587  1.00  0.00     0.316 HD
BRANCH  11  13
HETATM   13  C   UNL     1     -44.982 -52.540  12.951  1.00  0.00     0.229 C 
HETATM   14  C   UNL     1     -46.205 -51.613  13.063  1.00  0.00     0.037 C 
HETATM   15  C   UNL     1     -46.700 -51.427  14.498  1.00  0.00     0.012 C 
HETATM   16  C   UNL     1     -47.170 -52.731  15.132  1.00  0.00     0.074 C 
HETATM   17  S   UNL     1     -45.864 -53.989  15.205  1.00  0.00    -0.167 SA
HETATM   18  C   UNL     1     -45.337 -53.956  13.454  1.00  0.00     0.109 C 
ENDBRANCH  11  13
ENDBRANCH  10  11
ENDBRANCH   1  10
TORSDOF 5
ENDMDL
MODEL 6
REMARK VINA RESULT:      -4.6      2.623      5.596
REMARK  5 active torsions:
REMARK  status: ('A' for Active; 'I' for Inactive)
REMARK    1  A    between atoms: C_2  and  C_3 
REMARK    2  A    between atoms: C_7  and  C_8 
REMARK    3  A    between atoms: C_8  and  C_9 
REMARK    4  A    between atoms: C_9  and  N_10 
REMARK    5  A    between atoms: N_10  and  C_11 
ROOT
HETATM    1  C   UNL     1     -41.783 -52.685  12.641  1.00  0.00     0.095 C 
ENDROOT
BRANCH   1   2
HETATM    2  C   UNL     1     -43.269 -52.634  12.846  1.00  0.00     0.052 A 
HETATM    3  N   UNL     1     -44.174 -53.073  11.997  1.00  0.00    -0.363 N 
HETATM    4  C   UNL     1     -45.437 -52.783  12.450  1.00  0.00     0.103 A 
ATOM      5  HN  UNL     1     -43.966 -53.559  11.124  1.00  0.00     0.165 HD
HETATM    6  C   UNL     1     -45.497 -52.119  13.656  1.00  0.00    -0.001 A 
HETATM    7  S   UNL     1     -43.909 -51.873  14.254  1.00  0.00    -0.080 SA
BRANCH   6   8
HETATM    8  C   UNL     1     -46.695 -51.635  14.399  1.00  0.00     0.043 C 
HETATM    9  C   UNL     1     -46.352 -51.248  15.828  1.00  0.00     0.010 C 
ENDBRANCH   6   8
ENDBRANCH   1   2
BRANCH   1  10
HETATM   10  C   UNL     1     -41.107 -51.311  12.531  1.00  0.00     0.276 C 
BRANCH  10  11
HETATM   11  N   UNL     1     -41.833 -50.371  11.687  1.00  0.00     0.089 N 
HETATM   12  H   UNL     1     -42.560 -50.810  11.124  1.00  0.00     0.316 HD
BRANCH  11  13
HETATM   13  C   UNL     1     -42.311 -49.155  12.348  1.00  0.00     0.229 C 
HETATM   14  C   UNL     1     -43.032 -48.189  11.391  1.00  0.00     0.037 C 
HETATM   15  C   UNL     1     -42.144 -47.678  10.256  1.00  0.00     0.012 C 
HETATM   16  C   UNL     1     -40.951 -46.875  10.757  1.00  0.00     0.074 C 
HETATM   17  S   UNL     1     -39.868 -47.831  11.856  1.00  0.00    -0.167 SA
HETATM   18  C   UNL     1     -41.126 -48.442  13.035  1.00  0.00     0.109 C 
ENDBRANCH  11  13
ENDBRANCH  10  11
ENDBRANCH   1  10
TORSDOF 5
ENDMDL
MODEL 7
REMARK VINA RESULT:      -4.6      3.836      5.491
REMARK  5 active torsions:
REMARK  status: ('A' for Active; 'I' for Inactive)
REMARK    1  A    between atoms: C_2  and  C_3 
REMARK    2  A    between atoms: C_7  and  C_8 
REMARK    3  A    between atoms: C_8  and  C_9 
REMARK    4  A    between atoms: C_9  and  N_10 
REMARK    5  A    between atoms: N_10  and  C_11 
ROOT
HETATM    1  C   UNL     1     -41.829 -54.029  13.892  1.00  0.00     0.095 C 
ENDROOT
BRANCH   1   2
HETATM    2  C   UNL     1     -43.212 -53.549  13.564  1.00  0.00     0.052 A 
HETATM    3  N   UNL     1     -43.895 -53.862  12.483  1.00  0.00    -0.363 N 
HETATM    4  C   UNL     1     -45.083 -53.173  12.450  1.00  0.00     0.103 A 
ATOM      5  HN  UNL     1     -43.585 -54.523  11.770  1.00  0.00     0.165 HD
HETATM    6  C   UNL     1     -45.309 -52.328  13.515  1.00  0.00    -0.001 A 
HETATM    7  S   UNL     1     -43.993 -52.423  14.610  1.00  0.00    -0.080 SA
BRANCH   6   8
HETATM    8  C   UNL     1     -46.469 -51.426  13.762  1.00  0.00     0.043 C 
HETATM    9  C   UNL     1     -46.930 -51.488  15.209  1.00  0.00     0.010 C 
ENDBRANCH   6   8
ENDBRANCH   1   2
BRANCH   1  10
HETATM   10  C   UNL     1     -40.799 -53.819  12.774  1.00  0.00     0.276 C 
BRANCH  10  11
HETATM   11  N   UNL     1     -40.470 -52.419  12.540  1.00  0.00     0.089 N 
HETATM   12  H   UNL     1     -41.194 -51.913  12.033  1.00  0.00     0.316 HD
BRANCH  11  13
HETATM   13  C   UNL     1     -39.992 -51.672  13.704  1.00  0.00     0.229 C 
HETATM   14  C   UNL     1     -40.654 -50.291  13.851  1.00  0.00     0.037 C 
HETATM   15  C   UNL     1     -40.390 -49.358  12.669  1.00  0.00     0.012 C 
HETATM   16  C   UNL     1     -38.911 -49.038  12.490  1.00  0.00     0.074 C 
HETATM   17  S   UNL     1     -37.899 -50.517  12.205  1.00  0.00    -0.167 SA
HETATM   18  C   UNL     1     -38.457 -51.523  13.627  1.00  0.00     0.109 C 
ENDBRANCH  11  13
ENDBRANCH  10  11
ENDBRANCH   1  10
TORSDOF 5
ENDMDL
MODEL 8
REMARK VINA RESULT:      -4.6      3.516      5.303
REMARK  5 active torsions:
REMARK  status: ('A' for Active; 'I' for Inactive)
REMARK    1  A    between atoms: C_2  and  C_3 
REMARK    2  A    between atoms: C_7  and  C_8 
REMARK    3  A    between atoms: C_8  and  C_9 
REMARK    4  A    between atoms: C_9  and  N_10 
REMARK    5  A    between atoms: N_10  and  C_11 
ROOT
HETATM    1  C   UNL     1     -41.395 -52.653  12.871  1.00  0.00     0.095 C 
ENDROOT
BRANCH   1   2
HETATM    2  C   UNL     1     -42.894 -52.699  12.914  1.00  0.00     0.052 A 
HETATM    3  N   UNL     1     -43.648 -53.620  12.352  1.00  0.00    -0.363 N 
HETATM    4  C   UNL     1     -44.977 -53.307  12.500  1.00  0.00     0.103 A 
ATOM      5  HN  UNL     1     -43.295 -54.450  11.875  1.00  0.00     0.165 HD
HETATM    6  C   UNL     1     -45.240 -52.138  13.180  1.00  0.00    -0.001 A 
HETATM    7  S   UNL     1     -43.764 -51.420  13.675  1.00  0.00    -0.080 SA
BRANCH   6   8
HETATM    8  C   UNL     1     -46.556 -51.505  13.478  1.00  0.00     0.043 C 
HETATM    9  C   UNL     1     -46.833 -51.462  14.971  1.00  0.00     0.010 C 
ENDBRANCH   6   8
ENDBRANCH   1   2
BRANCH   1  10
HETATM   10  C   UNL     1     -40.816 -51.714  11.803  1.00  0.00     0.276 C 
BRANCH  10  11
HETATM   11  N   UNL     1     -40.467 -50.395  12.315  1.00  0.00     0.089 N 
HETATM   12  H   UNL     1     -40.377 -50.365  13.329  1.00  0.00     0.316 HD
BRANCH  11  13
HETATM   13  C   UNL     1     -39.350 -49.726  11.646  1.00  0.00     0.229 C 
HETATM   14  C   UNL     1     -37.974 -50.262  12.081  1.00  0.00     0.037 C 
HETATM   15  C   UNL     1     -37.690 -50.075  13.572  1.00  0.00     0.012 C 
HETATM   16  C   UNL     1     -37.659 -48.609  13.986  1.00  0.00     0.074 C 
HETATM   17  S   UNL     1     -39.224 -47.751  13.657  1.00  0.00    -0.167 SA
HETATM   18  C   UNL     1     -39.434 -48.205  11.897  1.00  0.00     0.109 C 
ENDBRANCH  11  13
ENDBRANCH  10  11
ENDBRANCH   1  10
TORSDOF 5
ENDMDL
MODEL 9
REMARK VINA RESULT:      -4.4      3.878      6.344
REMARK  5 active torsions:
REMARK  status: ('A' for Active; 'I' for Inactive)
REMARK    1  A    between atoms: C_2  and  C_3 
REMARK    2  A    between atoms: C_7  and  C_8 
REMARK    3  A    between atoms: C_8  and  C_9 
REMARK    4  A    between atoms: C_9  and  N_10 
REMARK    5  A    between atoms: N_10  and  C_11 
ROOT
HETATM    1  C   UNL     1     -40.989 -53.391  12.670  1.00  0.00     0.095 C 
ENDROOT
BRANCH   1   2
HETATM    2  C   UNL     1     -42.182 -53.928  13.404  1.00  0.00     0.052 A 
HETATM    3  N   UNL     1     -42.146 -54.600  14.535  1.00  0.00    -0.363 N 
HETATM    4  C   UNL     1     -43.405 -55.027  14.880  1.00  0.00     0.103 A 
ATOM      5  HN  UNL     1     -41.302 -54.779  15.079  1.00  0.00     0.165 HD
HETATM    6  C   UNL     1     -44.411 -54.676  14.005  1.00  0.00    -0.001 A 
HETATM    7  S   UNL     1     -43.753 -53.755  12.717  1.00  0.00    -0.080 SA
BRANCH   6   8
HETATM    8  C   UNL     1     -45.863 -55.006  14.069  1.00  0.00     0.043 C 
HETATM    9  C   UNL     1     -46.581 -54.178  15.122  1.00  0.00     0.010 C 
ENDBRANCH   6   8
ENDBRANCH   1   2
BRANCH   1  10
HETATM   10  C   UNL     1     -41.228 -52.054  11.955  1.00  0.00     0.276 C 
BRANCH  10  11
HETATM   11  N   UNL     1     -40.016 -51.268  11.767  1.00  0.00     0.089 N 
HETATM   12  H   UNL     1     -39.524 -51.484  10.902  1.00  0.00     0.316 HD
BRANCH  11  13
HETATM   13  C   UNL     1     -40.150 -49.825  11.976  1.00  0.00     0.229 C 
HETATM   14  C   UNL     1     -38.850 -49.050  11.701  1.00  0.00     0.037 C 
HETATM   15  C   UNL     1     -37.692 -49.457  12.613  1.00  0.00     0.012 C 
HETATM   16  C   UNL     1     -37.977 -49.185  14.085  1.00  0.00     0.074 C 
HETATM   17  S   UNL     1     -39.439 -50.070  14.695  1.00  0.00    -0.167 SA
HETATM   18  C   UNL     1     -40.639 -49.555  13.415  1.00  0.00     0.109 C 
ENDBRANCH  11  13
ENDBRANCH  10  11
ENDBRANCH   1  10
TORSDOF 5
ENDMDL
