MODEL 1
REMARK VINA RESULT:      -6.0      0.000      0.000
REMARK  2 active torsions:
REMARK  status: ('A' for Active; 'I' for Inactive)
REMARK    1  A    between atoms: C_5  and  N_8 
REMARK       I    between atoms: N_8  and  C_9 
REMARK       I    between atoms: C_9  and  N_11 
REMARK    2  A    between atoms: N_11  and  C_12 
ROOT
HETATM    1  N   UNL     1     -40.096 -48.927  11.326  1.00  0.00    -0.338 N 
HETATM    2  C   UNL     1     -40.944 -47.974  10.811  1.00  0.00     0.322 C 
HETATM    3  O   UNL     1     -40.738 -46.769  10.924  1.00  0.00    -0.247 OA
HETATM    4  N   UNL     1     -42.058 -48.539  10.237  1.00  0.00    -0.293 N 
HETATM    5  H   UNL     1     -40.026 -49.774  10.783  1.00  0.00     0.164 HD
HETATM    6  H   UNL     1     -42.390 -49.397  10.648  1.00  0.00     0.172 HD
ENDROOT
BRANCH   1   7
HETATM    7  C   UNL     1     -38.935 -48.520  12.113  1.00  0.00     0.086 C 
HETATM    8  C   UNL     1     -37.746 -49.472  11.933  1.00  0.00     0.026 C 
HETATM    9  C   UNL     1     -37.936 -50.803  12.657  1.00  0.00     0.006 C 
HETATM   10  C   UNL     1     -38.287 -50.636  14.141  1.00  0.00    -0.019 C 
HETATM   11  C   UNL     1     -37.082 -50.163  14.959  1.00  0.00     0.010 C 
HETATM   12  C   UNL     1     -39.490 -49.696  14.310  1.00  0.00     0.006 C 
HETATM   13  C   UNL     1     -39.315 -48.358  13.589  1.00  0.00     0.026 C 
ENDBRANCH   1   7
BRANCH   4  14
HETATM   14  C   UNL     1     -43.061 -47.745   9.715  1.00  0.00     0.132 A 
HETATM   15  C   UNL     1     -44.430 -47.750  10.059  1.00  0.00     0.084 A 
HETATM   16  C   UNL     1     -45.008 -46.876   9.177  1.00  0.00     0.076 A 
HETATM   17  C   UNL     1     -46.396 -46.463   8.913  1.00  0.00     0.079 C 
HETATM   18  O   UNL     1     -44.039 -46.327   8.396  1.00  0.00    -0.241 OA
HETATM   19  N   UNL     1     -42.804 -46.836   8.770  1.00  0.00    -0.245 N 
ATOM     20  HN  UNL     1     -41.890 -46.572   8.401  1.00  0.00     0.196 HD
ENDBRANCH   4  14
TORSDOF 2
ENDMDL
MODEL 2
REMARK VINA RESULT:      -5.8      4.355      5.531
REMARK  2 active torsions:
REMARK  status: ('A' for Active; 'I' for Inactive)
REMARK    1  A    between atoms: C_5  and  N_8 
REMARK       I    between atoms: N_8  and  C_9 
REMARK       I    between atoms: C_9  and  N_11 
REMARK    2  A    between atoms: N_11  and  C_12 
ROOT
HETATM    1  N   UNL     1     -43.482 -50.651  12.543  1.00  0.00    -0.338 N 
HETATM    2  C   UNL     1     -43.072 -49.337  12.557  1.00  0.00     0.322 C 
HETATM    3  O   UNL     1     -43.125 -48.636  13.563  1.00  0.00    -0.247 OA
HETATM    4  N   UNL     1     -42.681 -48.911  11.310  1.00  0.00    -0.293 N 
HETATM    5  H   UNL     1     -42.956 -51.255  11.930  1.00  0.00     0.164 HD
HETATM    6  H   UNL     1     -43.157 -49.325  10.523  1.00  0.00     0.172 HD
ENDROOT
BRANCH   1   7
HETATM    7  C   UNL     1     -44.081 -51.241  13.737  1.00  0.00     0.086 C 
HETATM    8  C   UNL     1     -43.365 -52.523  14.176  1.00  0.00     0.026 C 
HETATM    9  C   UNL     1     -43.673 -53.716  13.273  1.00  0.00     0.006 C 
HETATM   10  C   UNL     1     -45.176 -53.959  13.092  1.00  0.00    -0.019 C 
HETATM   11  C   UNL     1     -45.815 -54.533  14.360  1.00  0.00     0.010 C 
HETATM   12  C   UNL     1     -45.882 -52.674  12.634  1.00  0.00     0.006 C 
HETATM   13  C   UNL     1     -45.582 -51.471  13.529  1.00  0.00     0.026 C 
ENDBRANCH   1   7
BRANCH   4  14
HETATM   14  C   UNL     1     -42.291 -47.603  11.103  1.00  0.00     0.132 A 
HETATM   15  C   UNL     1     -40.996 -47.127  10.800  1.00  0.00     0.084 A 
HETATM   16  C   UNL     1     -41.121 -45.763  10.816  1.00  0.00     0.076 A 
HETATM   17  C   UNL     1     -40.168 -44.652  10.667  1.00  0.00     0.079 C 
HETATM   18  O   UNL     1     -42.421 -45.438  11.044  1.00  0.00    -0.241 OA
HETATM   19  N   UNL     1     -43.170 -46.599  11.173  1.00  0.00    -0.245 N 
ATOM     20  HN  UNL     1     -44.180 -46.671  11.296  1.00  0.00     0.196 HD
ENDBRANCH   4  14
TORSDOF 2
ENDMDL
MODEL 3
REMARK VINA RESULT:      -5.6      4.242      5.776
REMARK  2 active torsions:
REMARK  status: ('A' for Active; 'I' for Inactive)
REMARK    1  A    between atoms: C_5  and  N_8 
REMARK       I    between atoms: N_8  and  C_9 
REMARK       I    between atoms: C_9  and  N_11 
REMARK    2  A    between atoms: N_11  and  C_12 
ROOT
HETATM    1  N   UNL     1     -43.144 -50.945  12.485  1.00  0.00    -0.338 N 
HETATM    2  C   UNL     1     -42.226 -49.922  12.542  1.00  0.00     0.322 C 
HETATM    3  O   UNL     1     -41.650 -49.602  13.577  1.00  0.00    -0.247 OA
HETATM    4  N   UNL     1     -42.103 -49.278  11.333  1.00  0.00    -0.293 N 
HETATM    5  H   UNL     1     -43.154 -51.462  11.619  1.00  0.00     0.164 HD
HETATM    6  H   UNL     1     -42.932 -49.235  10.760  1.00  0.00     0.172 HD
ENDROOT
BRANCH   1   7
HETATM    7  C   UNL     1     -43.530 -51.647  13.707  1.00  0.00     0.086 C 
HETATM    8  C   UNL     1     -43.694 -53.155  13.485  1.00  0.00     0.026 C 
HETATM    9  C   UNL     1     -44.969 -53.509  12.723  1.00  0.00     0.006 C 
HETATM   10  C   UNL     1     -46.231 -52.904  13.350  1.00  0.00    -0.019 C 
HETATM   11  C   UNL     1     -46.609 -53.608  14.656  1.00  0.00     0.010 C 
HETATM   12  C   UNL     1     -46.065 -51.390  13.551  1.00  0.00     0.006 C 
HETATM   13  C   UNL     1     -44.790 -51.020  14.312  1.00  0.00     0.026 C 
ENDBRANCH   1   7
BRANCH   4  14
HETATM   14  C   UNL     1     -41.273 -48.183  11.199  1.00  0.00     0.132 A 
HETATM   15  C   UNL     1     -41.639 -46.860  10.868  1.00  0.00     0.084 A 
HETATM   16  C   UNL     1     -40.447 -46.197  10.744  1.00  0.00     0.076 A 
HETATM   17  C   UNL     1     -40.080 -44.829  10.343  1.00  0.00     0.079 C 
HETATM   18  O   UNL     1     -39.430 -47.047  11.047  1.00  0.00    -0.241 OA
HETATM   19  N   UNL     1     -39.953 -48.287  11.385  1.00  0.00    -0.245 N 
ATOM     20  HN  UNL     1     -39.439 -49.107  11.709  1.00  0.00     0.196 HD
ENDBRANCH   4  14
TORSDOF 2
ENDMDL
MODEL 4
REMARK VINA RESULT:      -5.5      6.929      9.979
REMARK  2 active torsions:
REMARK  status: ('A' for Active; 'I' for Inactive)
REMARK    1  A    between atoms: C_5  and  N_8 
REMARK       I    between atoms: N_8  and  C_9 
REMARK       I    between atoms: C_9  and  N_11 
REMARK    2  A    between atoms: N_11  and  C_12 
ROOT
HETATM    1  N   UNL     1     -42.990 -53.082  14.635  1.00  0.00    -0.338 N 
HETATM    2  C   UNL     1     -41.999 -54.033  14.718  1.00  0.00     0.322 C 
HETATM    3  O   UNL     1     -41.408 -54.464  13.733  1.00  0.00    -0.247 OA
HETATM    4  N   UNL     1     -41.822 -54.473  16.008  1.00  0.00    -0.293 N 
HETATM    5  H   UNL     1     -43.032 -52.440  15.413  1.00  0.00     0.164 HD
HETATM    6  H   UNL     1     -42.641 -54.488  16.595  1.00  0.00     0.172 HD
ENDROOT
BRANCH   1   7
HETATM    7  C   UNL     1     -43.434 -52.604  13.328  1.00  0.00     0.086 C 
HETATM    8  C   UNL     1     -44.025 -51.191  13.394  1.00  0.00     0.026 C 
HETATM    9  C   UNL     1     -45.416 -51.157  14.025  1.00  0.00     0.006 C 
HETATM   10  C   UNL     1     -46.398 -52.135  13.368  1.00  0.00    -0.019 C 
HETATM   11  C   UNL     1     -46.827 -51.659  11.977  1.00  0.00     0.010 C 
HETATM   12  C   UNL     1     -45.805 -53.551  13.323  1.00  0.00     0.006 C 
HETATM   13  C   UNL     1     -44.411 -53.600  12.695  1.00  0.00     0.026 C 
ENDBRANCH   1   7
BRANCH   4  14
HETATM   14  C   UNL     1     -40.912 -55.473  16.293  1.00  0.00     0.132 A 
HETATM   15  C   UNL     1     -41.130 -56.647  17.045  1.00  0.00     0.084 A 
HETATM   16  C   UNL     1     -39.894 -57.232  17.132  1.00  0.00     0.076 A 
HETATM   17  C   UNL     1     -39.377 -58.420  17.829  1.00  0.00     0.079 C 
HETATM   18  O   UNL     1     -39.002 -56.494  16.420  1.00  0.00    -0.241 OA
HETATM   19  N   UNL     1     -39.654 -55.412  15.846  1.00  0.00    -0.245 N 
ATOM     20  HN  UNL     1     -39.256 -54.715  15.216  1.00  0.00     0.196 HD
ENDBRANCH   4  14
TORSDOF 2
ENDMDL
MODEL 5
REMARK VINA RESULT:      -5.4      4.516      5.353
REMARK  2 active torsions:
REMARK  status: ('A' for Active; 'I' for Inactive)
REMARK    1  A    between atoms: C_5  and  N_8 
REMARK       I    between atoms: N_8  and  C_9 
REMARK       I    between atoms: C_9  and  N_11 
REMARK    2  A    between atoms: N_11  and  C_12 
ROOT
HETATM    1  N   UNL     1     -39.845 -51.323  12.674  1.00  0.00    -0.338 N 
HETATM    2  C   UNL     1     -41.183 -51.623  12.554  1.00  0.00     0.322 C 
HETATM    3  O   UNL     1     -42.022 -50.794  12.214  1.00  0.00    -0.247 OA
HETATM    4  N   UNL     1     -41.452 -52.917  12.931  1.00  0.00    -0.293 N 
HETATM    5  H   UNL     1     -39.217 -52.075  12.433  1.00  0.00     0.164 HD
HETATM    6  H   UNL     1     -40.871 -53.304  13.658  1.00  0.00     0.172 HD
ENDROOT
BRANCH   1   7
HETATM    7  C   UNL     1     -39.384 -49.952  12.470  1.00  0.00     0.086 C 
HETATM    8  C   UNL     1     -37.864 -49.869  12.293  1.00  0.00     0.026 C 
HETATM    9  C   UNL     1     -37.101 -50.071  13.601  1.00  0.00     0.006 C 
HETATM   10  C   UNL     1     -37.576 -49.140  14.723  1.00  0.00    -0.019 C 
HETATM   11  C   UNL     1     -37.133 -47.694  14.486  1.00  0.00     0.010 C 
HETATM   12  C   UNL     1     -39.097 -49.244  14.906  1.00  0.00     0.006 C 
HETATM   13  C   UNL     1     -39.875 -49.046  13.604  1.00  0.00     0.026 C 
ENDBRANCH   1   7
BRANCH   4  14
HETATM   14  C   UNL     1     -42.748 -53.394  12.939  1.00  0.00     0.132 A 
HETATM   15  C   UNL     1     -43.386 -54.139  13.955  1.00  0.00     0.084 A 
HETATM   16  C   UNL     1     -44.607 -54.463  13.425  1.00  0.00     0.076 A 
HETATM   17  C   UNL     1     -45.734 -55.284  13.895  1.00  0.00     0.079 C 
HETATM   18  O   UNL     1     -44.725 -53.892  12.197  1.00  0.00    -0.241 OA
HETATM   19  N   UNL     1     -43.574 -53.173  11.911  1.00  0.00    -0.245 N 
ATOM     20  HN  UNL     1     -43.394 -52.597  11.089  1.00  0.00     0.196 HD
ENDBRANCH   4  14
TORSDOF 2
ENDMDL
MODEL 6
REMARK VINA RESULT:      -5.4      3.204      3.656
REMARK  2 active torsions:
REMARK  status: ('A' for Active; 'I' for Inactive)
REMARK    1  A    between atoms: C_5  and  N_8 
REMARK       I    between atoms: N_8  and  C_9 
REMARK       I    between atoms: C_9  and  N_11 
REMARK    2  A    between atoms: N_11  and  C_12 
ROOT
HETATM    1  N   UNL     1     -41.526 -50.788  12.357  1.00  0.00    -0.338 N 
HETATM    2  C   UNL     1     -41.835 -49.464  12.142  1.00  0.00     0.322 C 
HETATM    3  O   UNL     1     -42.085 -48.683  13.055  1.00  0.00    -0.247 OA
HETATM    4  N   UNL     1     -41.900 -49.166  10.802  1.00  0.00    -0.293 N 
HETATM    5  H   UNL     1     -40.864 -51.182  11.706  1.00  0.00     0.164 HD
HETATM    6  H   UNL     1     -42.213 -49.904  10.191  1.00  0.00     0.172 HD
ENDROOT
BRANCH   1   7
HETATM    7  C   UNL     1     -41.564 -51.335  13.711  1.00  0.00     0.086 C 
HETATM    8  C   UNL     1     -40.463 -52.374  13.951  1.00  0.00     0.026 C 
HETATM    9  C   UNL     1     -40.744 -53.708  13.262  1.00  0.00     0.006 C 
HETATM   10  C   UNL     1     -42.125 -54.280  13.603  1.00  0.00    -0.019 C 
HETATM   11  C   UNL     1     -42.181 -54.811  15.039  1.00  0.00     0.010 C 
HETATM   12  C   UNL     1     -43.223 -53.239  13.342  1.00  0.00     0.006 C 
HETATM   13  C   UNL     1     -42.954 -51.897  14.024  1.00  0.00     0.026 C 
ENDBRANCH   1   7
BRANCH   4  14
HETATM   14  C   UNL     1     -42.256 -47.901  10.377  1.00  0.00     0.132 A 
HETATM   15  C   UNL     1     -43.553 -47.420  10.097  1.00  0.00     0.084 A 
HETATM   16  C   UNL     1     -43.350 -46.159   9.600  1.00  0.00     0.076 A 
HETATM   17  C   UNL     1     -44.241 -45.130   9.040  1.00  0.00     0.079 C 
HETATM   18  O   UNL     1     -42.022 -45.872   9.644  1.00  0.00    -0.241 OA
HETATM   19  N   UNL     1     -41.336 -46.951  10.183  1.00  0.00    -0.245 N 
ATOM     20  HN  UNL     1     -40.338 -47.008  10.388  1.00  0.00     0.196 HD
ENDBRANCH   4  14
TORSDOF 2
ENDMDL
MODEL 7
REMARK VINA RESULT:      -5.2      3.535      6.892
REMARK  2 active torsions:
REMARK  status: ('A' for Active; 'I' for Inactive)
REMARK    1  A    between atoms: C_5  and  N_8 
REMARK       I    between atoms: N_8  and  C_9 
REMARK       I    between atoms: C_9  and  N_11 
REMARK    2  A    between atoms: N_11  and  C_12 
ROOT
HETATM    1  N   UNL     1     -42.084 -49.266  11.303  1.00  0.00    -0.338 N 
HETATM    2  C   UNL     1     -42.007 -50.370  12.122  1.00  0.00     0.322 C 
HETATM    3  O   UNL     1     -42.638 -50.466  13.170  1.00  0.00    -0.247 OA
HETATM    4  N   UNL     1     -41.095 -51.287  11.656  1.00  0.00    -0.293 N 
HETATM    5  H   UNL     1     -42.001 -49.460  10.317  1.00  0.00     0.164 HD
HETATM    6  H   UNL     1     -40.297 -50.918  11.162  1.00  0.00     0.172 HD
ENDROOT
BRANCH   1   7
HETATM    7  C   UNL     1     -42.881 -48.112  11.711  1.00  0.00     0.086 C 
HETATM    8  C   UNL     1     -43.561 -47.424  10.521  1.00  0.00     0.026 C 
HETATM    9  C   UNL     1     -42.587 -46.616   9.666  1.00  0.00     0.006 C 
HETATM   10  C   UNL     1     -41.760 -45.615  10.482  1.00  0.00    -0.019 C 
HETATM   11  C   UNL     1     -42.606 -44.427  10.950  1.00  0.00     0.010 C 
HETATM   12  C   UNL     1     -41.068 -46.316  11.660  1.00  0.00     0.006 C 
HETATM   13  C   UNL     1     -42.031 -47.131  12.525  1.00  0.00     0.026 C 
ENDBRANCH   1   7
BRANCH   4  14
HETATM   14  C   UNL     1     -40.827 -52.440  12.369  1.00  0.00     0.132 A 
HETATM   15  C   UNL     1     -39.855 -52.623  13.376  1.00  0.00     0.084 A 
HETATM   16  C   UNL     1     -39.914 -53.960  13.668  1.00  0.00     0.076 A 
HETATM   17  C   UNL     1     -39.138 -54.844  14.553  1.00  0.00     0.079 C 
HETATM   18  O   UNL     1     -40.905 -54.533  12.934  1.00  0.00    -0.241 OA
HETATM   19  N   UNL     1     -41.517 -53.564  12.152  1.00  0.00    -0.245 N 
ATOM     20  HN  UNL     1     -42.324 -53.684  11.540  1.00  0.00     0.196 HD
ENDBRANCH   4  14
TORSDOF 2
ENDMDL
MODEL 8
REMARK VINA RESULT:      -5.2      4.674      5.966
REMARK  2 active torsions:
REMARK  status: ('A' for Active; 'I' for Inactive)
REMARK    1  A    between atoms: C_5  and  N_8 
REMARK       I    between atoms: N_8  and  C_9 
REMARK       I    between atoms: C_9  and  N_11 
REMARK    2  A    between atoms: N_11  and  C_12 
ROOT
HETATM    1  N   UNL     1     -42.063 -49.320  12.651  1.00  0.00    -0.338 N 
HETATM    2  C   UNL     1     -42.355 -50.662  12.560  1.00  0.00     0.322 C 
HETATM    3  O   UNL     1     -41.587 -51.476  12.056  1.00  0.00    -0.247 OA
HETATM    4  N   UNL     1     -43.616 -50.943  13.028  1.00  0.00    -0.293 N 
HETATM    5  H   UNL     1     -42.427 -48.859  13.472  1.00  0.00     0.164 HD
HETATM    6  H   UNL     1     -44.313 -50.225  12.902  1.00  0.00     0.172 HD
ENDROOT
BRANCH   1   7
HETATM    7  C   UNL     1     -40.832 -48.800  12.062  1.00  0.00     0.086 C 
HETATM    8  C   UNL     1     -40.218 -47.671  12.898  1.00  0.00     0.026 C 
HETATM    9  C   UNL     1     -40.986 -46.356  12.776  1.00  0.00     0.006 C 
HETATM   10  C   UNL     1     -41.195 -45.915  11.322  1.00  0.00    -0.019 C 
HETATM   11  C   UNL     1     -39.894 -45.414  10.689  1.00  0.00     0.010 C 
HETATM   12  C   UNL     1     -41.828 -47.046  10.498  1.00  0.00     0.006 C 
HETATM   13  C   UNL     1     -41.069 -48.370  10.611  1.00  0.00     0.026 C 
ENDBRANCH   1   7
BRANCH   4  14
HETATM   14  C   UNL     1     -44.121 -52.227  12.967  1.00  0.00     0.132 A 
HETATM   15  C   UNL     1     -44.936 -52.879  13.918  1.00  0.00     0.084 A 
HETATM   16  C   UNL     1     -45.053 -54.160  13.448  1.00  0.00     0.076 A 
HETATM   17  C   UNL     1     -45.685 -55.382  13.970  1.00  0.00     0.079 C 
HETATM   18  O   UNL     1     -44.408 -54.257  12.255  1.00  0.00    -0.241 OA
HETATM   19  N   UNL     1     -43.864 -53.024  11.925  1.00  0.00    -0.245 N 
ATOM     20  HN  UNL     1     -43.370 -52.777  11.067  1.00  0.00     0.196 HD
ENDBRANCH   4  14
TORSDOF 2
ENDMDL
MODEL 9
REMARK VINA RESULT:      -5.0      4.701      7.272
REMARK  2 active torsions:
REMARK  status: ('A' for Active; 'I' for Inactive)
REMARK    1  A    between atoms: C_5  and  N_8 
REMARK       I    between atoms: N_8  and  C_9 
REMARK       I    between atoms: C_9  and  N_11 
REMARK    2  A    between atoms: N_11  and  C_12 
ROOT
HETATM    1  N   UNL     1     -42.486 -51.367  14.254  1.00  0.00    -0.338 N 
HETATM    2  C   UNL     1     -41.365 -51.590  13.488  1.00  0.00     0.322 C 
HETATM    3  O   UNL     1     -41.150 -52.655  12.919  1.00  0.00    -0.247 OA
HETATM    4  N   UNL     1     -40.509 -50.514  13.512  1.00  0.00    -0.293 N 
HETATM    5  H   UNL     1     -42.840 -50.423  14.229  1.00  0.00     0.164 HD
HETATM    6  H   UNL     1     -40.489 -49.974  14.362  1.00  0.00     0.172 HD
ENDROOT
BRANCH   1   7
HETATM    7  C   UNL     1     -43.440 -52.450  14.482  1.00  0.00     0.086 C 
HETATM    8  C   UNL     1     -44.524 -52.509  13.399  1.00  0.00     0.026 C 
HETATM    9  C   UNL     1     -45.558 -51.394  13.532  1.00  0.00     0.006 C 
HETATM   10  C   UNL     1     -46.181 -51.315  14.931  1.00  0.00    -0.019 C 
HETATM   11  C   UNL     1     -47.145 -52.477  15.189  1.00  0.00     0.010 C 
HETATM   12  C   UNL     1     -45.088 -51.237  16.008  1.00  0.00     0.006 C 
HETATM   13  C   UNL     1     -44.044 -52.348  15.887  1.00  0.00     0.026 C 
ENDBRANCH   1   7
BRANCH   4  14
HETATM   14  C   UNL     1     -39.297 -50.564  12.852  1.00  0.00     0.132 A 
HETATM   15  C   UNL     1     -38.913 -49.842  11.701  1.00  0.00     0.084 A 
HETATM   16  C   UNL     1     -37.676 -50.338  11.383  1.00  0.00     0.076 A 
HETATM   17  C   UNL     1     -36.739 -50.104  10.272  1.00  0.00     0.079 C 
HETATM   18  O   UNL     1     -37.309 -51.251  12.322  1.00  0.00    -0.241 OA
HETATM   19  N   UNL     1     -38.308 -51.355  13.278  1.00  0.00    -0.245 N 
ATOM     20  HN  UNL     1     -38.292 -51.919  14.128  1.00  0.00     0.196 HD
ENDBRANCH   4  14
TORSDOF 2
ENDMDL
