MODEL 1
REMARK VINA RESULT:      -6.1      0.000      0.000
REMARK  7 active torsions:
REMARK  status: ('A' for Active; 'I' for Inactive)
REMARK    1  A    between atoms: C_2  and  C_3 
REMARK       I    between atoms: C_2  and  N_13 
REMARK    2  A    between atoms: C_3  and  C_4 
REMARK    3  A    between atoms: C_4  and  N_5 
REMARK       I    between atoms: N_5  and  C_6 
REMARK    4  A    between atoms: C_6  and  C_8 
REMARK    5  A    between atoms: N_13  and  C_14 
REMARK    6  A    between atoms: C_14  and  C_15 
REMARK    7  A    between atoms: C_15  and  C_16 
ROOT
HETATM    1  O   UNL     1     -40.472 -51.667  13.790  1.00  0.00    -0.274 OA
HETATM    2  C   UNL     1     -40.757 -52.215  12.728  1.00  0.00     0.219 C 
HETATM    3  N   UNL     1     -40.877 -51.537  11.534  1.00  0.00    -0.361 N 
HETATM    4  H   UNL     1     -41.209 -52.034  10.718  1.00  0.00     0.162 HD
ENDROOT
BRANCH   2   5
HETATM    5  C   UNL     1     -40.938 -53.713  12.599  1.00  0.00     0.122 C 
BRANCH   5   6
HETATM    6  C   UNL     1     -41.847 -54.244  13.700  1.00  0.00     0.132 C 
BRANCH   6   7
HETATM    7  N   UNL     1     -43.174 -53.648  13.643  1.00  0.00    -0.360 N 
HETATM    8  C   UNL     1     -44.274 -54.292  14.171  1.00  0.00     0.221 C 
HETATM    9  O   UNL     1     -44.198 -55.388  14.717  1.00  0.00    -0.273 OA
HETATM   10  H   UNL     1     -43.287 -52.753  13.186  1.00  0.00     0.162 HD
BRANCH   8  11
HETATM   11  C   UNL     1     -45.583 -53.533  13.991  1.00  0.00     0.078 C 
HETATM   12  C   UNL     1     -45.677 -52.835  12.628  1.00  0.00     0.014 C 
HETATM   13  C   UNL     1     -46.279 -51.453  12.882  1.00  0.00     0.001 C 
HETATM   14  C   UNL     1     -46.710 -51.442  14.339  1.00  0.00     0.001 C 
HETATM   15  C   UNL     1     -45.754 -52.409  15.012  1.00  0.00     0.014 C 
ENDBRANCH   8  11
ENDBRANCH   6   7
ENDBRANCH   5   6
ENDBRANCH   2   5
BRANCH   3  16
HETATM   16  C   UNL     1     -40.780 -50.087  11.497  1.00  0.00     0.127 C 
BRANCH  16  17
HETATM   17  C   UNL     1     -42.063 -49.400  11.969  1.00  0.00     0.059 C 
BRANCH  17  18
HETATM   18  C   UNL     1     -42.396 -48.208  11.115  1.00  0.00    -0.041 A 
HETATM   19  C   UNL     1     -43.703 -47.965  10.684  1.00  0.00     0.010 A 
HETATM   20  C   UNL     1     -43.963 -46.887   9.844  1.00  0.00     0.018 A 
HETATM   21  C   UNL     1     -42.903 -46.081   9.463  1.00  0.00     0.087 A 
HETATM   22  N   UNL     1     -41.629 -46.277   9.866  1.00  0.00    -0.375 N 
HETATM   23  C   UNL     1     -41.405 -47.334  10.678  1.00  0.00     0.094 A 
ATOM     24  HN  UNL     1     -40.874 -45.658   9.572  1.00  0.00     0.164 HD
ENDBRANCH  17  18
ENDBRANCH  16  17
ENDBRANCH   3  16
TORSDOF 7
ENDMDL
MODEL 2
REMARK VINA RESULT:      -6.1      1.272      1.566
REMARK  7 active torsions:
REMARK  status: ('A' for Active; 'I' for Inactive)
REMARK    1  A    between atoms: C_2  and  C_3 
REMARK       I    between atoms: C_2  and  N_13 
REMARK    2  A    between atoms: C_3  and  C_4 
REMARK    3  A    between atoms: C_4  and  N_5 
REMARK       I    between atoms: N_5  and  C_6 
REMARK    4  A    between atoms: C_6  and  C_8 
REMARK    5  A    between atoms: N_13  and  C_14 
REMARK    6  A    between atoms: C_14  and  C_15 
REMARK    7  A    between atoms: C_15  and  C_16 
ROOT
HETATM    1  O   UNL     1     -40.824 -51.115  13.713  1.00  0.00    -0.274 OA
HETATM    2  C   UNL     1     -41.123 -51.505  12.587  1.00  0.00     0.219 C 
HETATM    3  N   UNL     1     -41.329 -50.657  11.521  1.00  0.00    -0.361 N 
HETATM    4  H   UNL     1     -41.667 -51.039  10.647  1.00  0.00     0.162 HD
ENDROOT
BRANCH   2   5
HETATM    5  C   UNL     1     -41.228 -52.974  12.227  1.00  0.00     0.122 C 
BRANCH   5   6
HETATM    6  C   UNL     1     -42.172 -53.696  13.180  1.00  0.00     0.132 C 
BRANCH   6   7
HETATM    7  N   UNL     1     -43.223 -52.819  13.672  1.00  0.00    -0.360 N 
HETATM    8  C   UNL     1     -44.473 -52.797  13.089  1.00  0.00     0.221 C 
HETATM    9  O   UNL     1     -44.769 -53.511  12.136  1.00  0.00    -0.273 OA
HETATM   10  H   UNL     1     -43.018 -52.199  14.445  1.00  0.00     0.162 HD
BRANCH   8  11
HETATM   11  C   UNL     1     -45.433 -51.794  13.717  1.00  0.00     0.078 C 
HETATM   12  C   UNL     1     -44.805 -51.029  14.888  1.00  0.00     0.014 C 
HETATM   13  C   UNL     1     -45.869 -50.947  15.982  1.00  0.00     0.001 C 
HETATM   14  C   UNL     1     -47.151 -51.479  15.365  1.00  0.00     0.001 C 
HETATM   15  C   UNL     1     -46.671 -52.463  14.314  1.00  0.00     0.014 C 
ENDBRANCH   8  11
ENDBRANCH   6   7
ENDBRANCH   5   6
ENDBRANCH   2   5
BRANCH   3  16
HETATM   16  C   UNL     1     -41.312 -49.216  11.711  1.00  0.00     0.127 C 
BRANCH  16  17
HETATM   17  C   UNL     1     -42.709 -48.636  11.936  1.00  0.00     0.059 C 
BRANCH  17  18
HETATM   18  C   UNL     1     -43.121 -47.736  10.804  1.00  0.00    -0.041 A 
HETATM   19  C   UNL     1     -44.422 -47.757  10.296  1.00  0.00     0.010 A 
HETATM   20  C   UNL     1     -44.750 -46.954   9.207  1.00  0.00     0.018 A 
HETATM   21  C   UNL     1     -43.762 -46.152   8.661  1.00  0.00     0.087 A 
HETATM   22  N   UNL     1     -42.497 -46.097   9.130  1.00  0.00    -0.375 N 
HETATM   23  C   UNL     1     -42.206 -46.890  10.186  1.00  0.00     0.094 A 
ATOM     24  HN  UNL     1     -41.796 -45.488   8.709  1.00  0.00     0.164 HD
ENDBRANCH  17  18
ENDBRANCH  16  17
ENDBRANCH   3  16
TORSDOF 7
ENDMDL
MODEL 3
REMARK VINA RESULT:      -5.8      2.895      6.651
REMARK  7 active torsions:
REMARK  status: ('A' for Active; 'I' for Inactive)
REMARK    1  A    between atoms: C_2  and  C_3 
REMARK       I    between atoms: C_2  and  N_13 
REMARK    2  A    between atoms: C_3  and  C_4 
REMARK    3  A    between atoms: C_4  and  N_5 
REMARK       I    between atoms: N_5  and  C_6 
REMARK    4  A    between atoms: C_6  and  C_8 
REMARK    5  A    between atoms: N_13  and  C_14 
REMARK    6  A    between atoms: C_14  and  C_15 
REMARK    7  A    between atoms: C_15  and  C_16 
ROOT
HETATM    1  O   UNL     1     -41.699 -52.384  14.764  1.00  0.00    -0.274 OA
HETATM    2  C   UNL     1     -41.320 -53.471  14.334  1.00  0.00     0.219 C 
HETATM    3  N   UNL     1     -42.044 -54.635  14.472  1.00  0.00    -0.361 N 
HETATM    4  H   UNL     1     -41.628 -55.510  14.181  1.00  0.00     0.162 HD
ENDROOT
BRANCH   2   5
HETATM    5  C   UNL     1     -40.041 -53.639  13.538  1.00  0.00     0.122 C 
BRANCH   5   6
HETATM    6  C   UNL     1     -38.911 -52.825  14.155  1.00  0.00     0.132 C 
BRANCH   6   7
HETATM    7  N   UNL     1     -38.893 -51.457  13.658  1.00  0.00    -0.360 N 
HETATM    8  C   UNL     1     -37.891 -51.009  12.823  1.00  0.00     0.221 C 
HETATM    9  O   UNL     1     -36.971 -51.730  12.449  1.00  0.00    -0.273 OA
HETATM   10  H   UNL     1     -39.622 -50.821  13.955  1.00  0.00     0.162 HD
BRANCH   8  11
HETATM   11  C   UNL     1     -38.019 -49.542  12.431  1.00  0.00     0.078 C 
HETATM   12  C   UNL     1     -37.930 -48.600  13.637  1.00  0.00     0.014 C 
HETATM   13  C   UNL     1     -38.999 -47.525  13.437  1.00  0.00     0.001 C 
HETATM   14  C   UNL     1     -39.551 -47.735  12.037  1.00  0.00     0.001 C 
HETATM   15  C   UNL     1     -39.370 -49.222  11.790  1.00  0.00     0.014 C 
ENDBRANCH   8  11
ENDBRANCH   6   7
ENDBRANCH   5   6
ENDBRANCH   2   5
BRANCH   3  16
HETATM   16  C   UNL     1     -43.271 -54.652  15.252  1.00  0.00     0.127 C 
BRANCH  16  17
HETATM   17  C   UNL     1     -44.502 -54.966  14.402  1.00  0.00     0.059 C 
BRANCH  17  18
HETATM   18  C   UNL     1     -45.156 -53.711  13.894  1.00  0.00    -0.041 A 
HETATM   19  C   UNL     1     -45.984 -52.940  14.713  1.00  0.00     0.010 A 
HETATM   20  C   UNL     1     -46.621 -51.819  14.190  1.00  0.00     0.018 A 
HETATM   21  C   UNL     1     -46.407 -51.503  12.859  1.00  0.00     0.087 A 
HETATM   22  N   UNL     1     -45.607 -52.216  12.039  1.00  0.00    -0.375 N 
HETATM   23  C   UNL     1     -45.004 -53.302  12.572  1.00  0.00     0.094 A 
ATOM     24  HN  UNL     1     -45.464 -51.949  11.064  1.00  0.00     0.164 HD
ENDBRANCH  17  18
ENDBRANCH  16  17
ENDBRANCH   3  16
TORSDOF 7
ENDMDL
MODEL 4
REMARK VINA RESULT:      -5.8      1.349      1.939
REMARK  7 active torsions:
REMARK  status: ('A' for Active; 'I' for Inactive)
REMARK    1  A    between atoms: C_2  and  C_3 
REMARK       I    between atoms: C_2  and  N_13 
REMARK    2  A    between atoms: C_3  and  C_4 
REMARK    3  A    between atoms: C_4  and  N_5 
REMARK       I    between atoms: N_5  and  C_6 
REMARK    4  A    between atoms: C_6  and  C_8 
REMARK    5  A    between atoms: N_13  and  C_14 
REMARK    6  A    between atoms: C_14  and  C_15 
REMARK    7  A    between atoms: C_15  and  C_16 
ROOT
HETATM    1  O   UNL     1     -40.410 -51.449  14.366  1.00  0.00    -0.274 OA
HETATM    2  C   UNL     1     -40.338 -52.174  13.377  1.00  0.00     0.219 C 
HETATM    3  N   UNL     1     -40.063 -51.705  12.111  1.00  0.00    -0.361 N 
HETATM    4  H   UNL     1     -40.115 -52.343  11.328  1.00  0.00     0.162 HD
ENDROOT
BRANCH   2   5
HETATM    5  C   UNL     1     -40.475 -53.681  13.452  1.00  0.00     0.122 C 
BRANCH   5   6
HETATM    6  C   UNL     1     -41.903 -54.110  13.136  1.00  0.00     0.132 C 
BRANCH   6   7
HETATM    7  N   UNL     1     -42.873 -53.101  13.535  1.00  0.00    -0.360 N 
HETATM    8  C   UNL     1     -44.136 -53.061  12.982  1.00  0.00     0.221 C 
HETATM    9  O   UNL     1     -44.513 -53.866  12.136  1.00  0.00    -0.273 OA
HETATM   10  H   UNL     1     -42.600 -52.405  14.216  1.00  0.00     0.162 HD
BRANCH   8  11
HETATM   11  C   UNL     1     -45.003 -51.918  13.496  1.00  0.00     0.078 C 
HETATM   12  C   UNL     1     -44.421 -51.254  14.750  1.00  0.00     0.014 C 
HETATM   13  C   UNL     1     -45.592 -51.002  15.699  1.00  0.00     0.001 C 
HETATM   14  C   UNL     1     -46.850 -51.331  14.913  1.00  0.00     0.001 C 
HETATM   15  C   UNL     1     -46.397 -52.383  13.917  1.00  0.00     0.014 C 
ENDBRANCH   8  11
ENDBRANCH   6   7
ENDBRANCH   5   6
ENDBRANCH   2   5
BRANCH   3  16
HETATM   16  C   UNL     1     -39.951 -50.276  11.863  1.00  0.00     0.127 C 
BRANCH  16  17
HETATM   17  C   UNL     1     -41.300 -49.629  11.546  1.00  0.00     0.059 C 
BRANCH  17  18
HETATM   18  C   UNL     1     -41.136 -48.204  11.094  1.00  0.00    -0.041 A 
HETATM   19  C   UNL     1     -40.103 -47.401  11.584  1.00  0.00     0.010 A 
HETATM   20  C   UNL     1     -40.020 -46.069  11.190  1.00  0.00     0.018 A 
HETATM   21  C   UNL     1     -40.974 -45.583  10.313  1.00  0.00     0.087 A 
HETATM   22  N   UNL     1     -41.980 -46.330   9.809  1.00  0.00    -0.375 N 
HETATM   23  C   UNL     1     -42.039 -47.619  10.212  1.00  0.00     0.094 A 
ATOM     24  HN  UNL     1     -42.661 -45.941   9.157  1.00  0.00     0.164 HD
ENDBRANCH  17  18
ENDBRANCH  16  17
ENDBRANCH   3  16
TORSDOF 7
ENDMDL
MODEL 5
REMARK VINA RESULT:      -5.8      2.747      4.507
REMARK  7 active torsions:
REMARK  status: ('A' for Active; 'I' for Inactive)
REMARK    1  A    between atoms: C_2  and  C_3 
REMARK       I    between atoms: C_2  and  N_13 
REMARK    2  A    between atoms: C_3  and  C_4 
REMARK    3  A    between atoms: C_4  and  N_5 
REMARK       I    between atoms: N_5  and  C_6 
REMARK    4  A    between atoms: C_6  and  C_8 
REMARK    5  A    between atoms: N_13  and  C_14 
REMARK    6  A    between atoms: C_14  and  C_15 
REMARK    7  A    between atoms: C_15  and  C_16 
ROOT
HETATM    1  O   UNL     1     -44.548 -53.982  12.238  1.00  0.00    -0.274 OA
HETATM    2  C   UNL     1     -44.488 -54.545  13.329  1.00  0.00     0.219 C 
HETATM    3  N   UNL     1     -43.316 -54.707  14.035  1.00  0.00    -0.361 N 
HETATM    4  H   UNL     1     -43.323 -55.264  14.879  1.00  0.00     0.162 HD
ENDROOT
BRANCH   2   5
HETATM    5  C   UNL     1     -45.713 -55.062  14.055  1.00  0.00     0.122 C 
BRANCH   5   6
HETATM    6  C   UNL     1     -46.111 -54.117  15.182  1.00  0.00     0.132 C 
BRANCH   6   7
HETATM    7  N   UNL     1     -45.791 -52.733  14.868  1.00  0.00    -0.360 N 
HETATM    8  C   UNL     1     -44.762 -52.071  15.505  1.00  0.00     0.221 C 
HETATM    9  O   UNL     1     -44.061 -52.606  16.359  1.00  0.00    -0.273 OA
HETATM   10  H   UNL     1     -46.354 -52.246  14.184  1.00  0.00     0.162 HD
BRANCH   8  11
HETATM   11  C   UNL     1     -44.595 -50.620  15.072  1.00  0.00     0.078 C 
HETATM   12  C   UNL     1     -44.281 -50.483  13.577  1.00  0.00     0.014 C 
HETATM   13  C   UNL     1     -43.198 -49.412  13.450  1.00  0.00     0.001 C 
HETATM   14  C   UNL     1     -43.042 -48.803  14.834  1.00  0.00     0.001 C 
HETATM   15  C   UNL     1     -43.425 -49.930  15.776  1.00  0.00     0.014 C 
ENDBRANCH   8  11
ENDBRANCH   6   7
ENDBRANCH   5   6
ENDBRANCH   2   5
BRANCH   3  16
HETATM   16  C   UNL     1     -42.044 -54.307  13.453  1.00  0.00     0.127 C 
BRANCH  16  17
HETATM   17  C   UNL     1     -41.348 -53.212  14.262  1.00  0.00     0.059 C 
BRANCH  17  18
HETATM   18  C   UNL     1     -40.803 -52.130  13.370  1.00  0.00    -0.041 A 
HETATM   19  C   UNL     1     -39.965 -51.130  13.870  1.00  0.00     0.010 A 
HETATM   20  C   UNL     1     -39.530 -50.111  13.028  1.00  0.00     0.018 A 
HETATM   21  C   UNL     1     -39.949 -50.126  11.708  1.00  0.00     0.087 A 
HETATM   22  N   UNL     1     -40.749 -51.080  11.186  1.00  0.00    -0.375 N 
HETATM   23  C   UNL     1     -41.159 -52.055  12.027  1.00  0.00     0.094 A 
ATOM     24  HN  UNL     1     -41.031 -51.065  10.206  1.00  0.00     0.164 HD
ENDBRANCH  17  18
ENDBRANCH  16  17
ENDBRANCH   3  16
TORSDOF 7
ENDMDL
MODEL 6
REMARK VINA RESULT:      -5.7      2.600      4.007
REMARK  7 active torsions:
REMARK  status: ('A' for Active; 'I' for Inactive)
REMARK    1  A    between atoms: C_2  and  C_3 
REMARK       I    between atoms: C_2  and  N_13 
REMARK    2  A    between atoms: C_3  and  C_4 
REMARK    3  A    between atoms: C_4  and  N_5 
REMARK       I    between atoms: N_5  and  C_6 
REMARK    4  A    between atoms: C_6  and  C_8 
REMARK    5  A    between atoms: N_13  and  C_14 
REMARK    6  A    between atoms: C_14  and  C_15 
REMARK    7  A    between atoms: C_15  and  C_16 
ROOT
HETATM    1  O   UNL     1     -41.051 -51.437  13.822  1.00  0.00    -0.274 OA
HETATM    2  C   UNL     1     -40.766 -52.059  12.801  1.00  0.00     0.219 C 
HETATM    3  N   UNL     1     -40.142 -51.487  11.714  1.00  0.00    -0.361 N 
HETATM    4  H   UNL     1     -40.025 -52.032  10.870  1.00  0.00     0.162 HD
ENDROOT
BRANCH   2   5
HETATM    5  C   UNL     1     -41.007 -53.548  12.651  1.00  0.00     0.122 C 
BRANCH   5   6
HETATM    6  C   UNL     1     -41.840 -54.079  13.811  1.00  0.00     0.132 C 
BRANCH   6   7
HETATM    7  N   UNL     1     -43.185 -53.524  13.813  1.00  0.00    -0.360 N 
HETATM    8  C   UNL     1     -44.264 -54.257  14.258  1.00  0.00     0.221 C 
HETATM    9  O   UNL     1     -44.155 -55.405  14.679  1.00  0.00    -0.273 OA
HETATM   10  H   UNL     1     -43.325 -52.587  13.457  1.00  0.00     0.162 HD
BRANCH   8  11
HETATM   11  C   UNL     1     -45.597 -53.526  14.155  1.00  0.00     0.078 C 
HETATM   12  C   UNL     1     -45.820 -52.897  12.774  1.00  0.00     0.014 C 
HETATM   13  C   UNL     1     -46.422 -51.512  13.012  1.00  0.00     0.001 C 
HETATM   14  C   UNL     1     -46.727 -51.435  14.499  1.00  0.00     0.001 C 
HETATM   15  C   UNL     1     -45.699 -52.354  15.133  1.00  0.00     0.014 C 
ENDBRANCH   8  11
ENDBRANCH   6   7
ENDBRANCH   5   6
ENDBRANCH   2   5
BRANCH   3  16
HETATM   16  C   UNL     1     -39.886 -50.056  11.680  1.00  0.00     0.127 C 
BRANCH  16  17
HETATM   17  C   UNL     1     -38.393 -49.726  11.735  1.00  0.00     0.059 C 
BRANCH  17  18
HETATM   18  C   UNL     1     -37.942 -49.444  13.141  1.00  0.00    -0.041 A 
HETATM   19  C   UNL     1     -37.901 -48.141  13.644  1.00  0.00     0.010 A 
HETATM   20  C   UNL     1     -37.418 -47.912  14.929  1.00  0.00     0.018 A 
HETATM   21  C   UNL     1     -36.994 -49.000  15.674  1.00  0.00     0.087 A 
HETATM   22  N   UNL     1     -37.028 -50.273  15.228  1.00  0.00    -0.375 N 
HETATM   23  C   UNL     1     -37.497 -50.465  13.975  1.00  0.00     0.094 A 
ATOM     24  HN  UNL     1     -36.716 -51.052  15.808  1.00  0.00     0.164 HD
ENDBRANCH  17  18
ENDBRANCH  16  17
ENDBRANCH   3  16
TORSDOF 7
ENDMDL
MODEL 7
REMARK VINA RESULT:      -5.7      1.699      6.558
REMARK  7 active torsions:
REMARK  status: ('A' for Active; 'I' for Inactive)
REMARK    1  A    between atoms: C_2  and  C_3 
REMARK       I    between atoms: C_2  and  N_13 
REMARK    2  A    between atoms: C_3  and  C_4 
REMARK    3  A    between atoms: C_4  and  N_5 
REMARK       I    between atoms: N_5  and  C_6 
REMARK    4  A    between atoms: C_6  and  C_8 
REMARK    5  A    between atoms: N_13  and  C_14 
REMARK    6  A    between atoms: C_14  and  C_15 
REMARK    7  A    between atoms: C_15  and  C_16 
ROOT
HETATM    1  O   UNL     1     -42.247 -53.570  13.665  1.00  0.00    -0.274 OA
HETATM    2  C   UNL     1     -42.310 -53.005  12.576  1.00  0.00     0.219 C 
HETATM    3  N   UNL     1     -43.499 -52.679  11.959  1.00  0.00    -0.361 N 
HETATM    4  H   UNL     1     -43.479 -52.302  11.020  1.00  0.00     0.162 HD
ENDROOT
BRANCH   2   5
HETATM    5  C   UNL     1     -41.083 -52.538  11.819  1.00  0.00     0.122 C 
BRANCH   5   6
HETATM    6  C   UNL     1     -40.578 -51.213  12.376  1.00  0.00     0.132 C 
BRANCH   6   7
HETATM    7  N   UNL     1     -40.816 -50.111  11.456  1.00  0.00    -0.360 N 
HETATM    8  C   UNL     1     -41.922 -49.297  11.582  1.00  0.00     0.221 C 
HETATM    9  O   UNL     1     -42.756 -49.448  12.469  1.00  0.00    -0.273 OA
HETATM   10  H   UNL     1     -40.164 -49.960  10.697  1.00  0.00     0.162 HD
BRANCH   8  11
HETATM   11  C   UNL     1     -42.024 -48.218  10.511  1.00  0.00     0.078 C 
HETATM   12  C   UNL     1     -41.091 -47.030  10.780  1.00  0.00     0.014 C 
HETATM   13  C   UNL     1     -41.886 -45.764  10.459  1.00  0.00     0.001 C 
HETATM   14  C   UNL     1     -43.184 -46.231   9.821  1.00  0.00     0.001 C 
HETATM   15  C   UNL     1     -43.420 -47.601  10.432  1.00  0.00     0.014 C 
ENDBRANCH   8  11
ENDBRANCH   6   7
ENDBRANCH   5   6
ENDBRANCH   2   5
BRANCH   3  16
HETATM   16  C   UNL     1     -44.767 -53.099  12.533  1.00  0.00     0.127 C 
BRANCH  16  17
HETATM   17  C   UNL     1     -45.611 -51.920  13.019  1.00  0.00     0.059 C 
BRANCH  17  18
HETATM   18  C   UNL     1     -46.011 -52.084  14.459  1.00  0.00    -0.041 A 
HETATM   19  C   UNL     1     -47.039 -51.323  15.020  1.00  0.00     0.010 A 
HETATM   20  C   UNL     1     -47.340 -51.458  16.371  1.00  0.00     0.018 A 
HETATM   21  C   UNL     1     -46.600 -52.356  17.122  1.00  0.00     0.087 A 
HETATM   22  N   UNL     1     -45.606 -53.117  16.615  1.00  0.00    -0.375 N 
HETATM   23  C   UNL     1     -45.333 -52.962  15.300  1.00  0.00     0.094 A 
ATOM     24  HN  UNL     1     -45.087 -53.776  17.196  1.00  0.00     0.164 HD
ENDBRANCH  17  18
ENDBRANCH  16  17
ENDBRANCH   3  16
TORSDOF 7
ENDMDL
MODEL 8
REMARK VINA RESULT:      -5.7      1.688      2.410
REMARK  7 active torsions:
REMARK  status: ('A' for Active; 'I' for Inactive)
REMARK    1  A    between atoms: C_2  and  C_3 
REMARK       I    between atoms: C_2  and  N_13 
REMARK    2  A    between atoms: C_3  and  C_4 
REMARK    3  A    between atoms: C_4  and  N_5 
REMARK       I    between atoms: N_5  and  C_6 
REMARK    4  A    between atoms: C_6  and  C_8 
REMARK    5  A    between atoms: N_13  and  C_14 
REMARK    6  A    between atoms: C_14  and  C_15 
REMARK    7  A    between atoms: C_15  and  C_16 
ROOT
HETATM    1  O   UNL     1     -40.563 -52.975  12.246  1.00  0.00    -0.274 OA
HETATM    2  C   UNL     1     -39.997 -53.089  13.331  1.00  0.00     0.219 C 
HETATM    3  N   UNL     1     -39.085 -52.173  13.810  1.00  0.00    -0.361 N 
HETATM    4  H   UNL     1     -38.585 -52.378  14.665  1.00  0.00     0.162 HD
ENDROOT
BRANCH   2   5
HETATM    5  C   UNL     1     -40.292 -54.217  14.298  1.00  0.00     0.122 C 
BRANCH   5   6
HETATM    6  C   UNL     1     -41.356 -53.800  15.305  1.00  0.00     0.132 C 
BRANCH   6   7
HETATM    7  N   UNL     1     -42.326 -52.885  14.723  1.00  0.00    -0.360 N 
HETATM    8  C   UNL     1     -43.578 -53.316  14.336  1.00  0.00     0.221 C 
HETATM    9  O   UNL     1     -43.944 -54.481  14.463  1.00  0.00    -0.273 OA
HETATM   10  H   UNL     1     -42.061 -51.919  14.582  1.00  0.00     0.162 HD
BRANCH   8  11
HETATM   11  C   UNL     1     -44.446 -52.228  13.718  1.00  0.00     0.078 C 
HETATM   12  C   UNL     1     -45.375 -51.562  14.740  1.00  0.00     0.014 C 
HETATM   13  C   UNL     1     -46.730 -51.387  14.056  1.00  0.00     0.001 C 
HETATM   14  C   UNL     1     -46.519 -51.761  12.599  1.00  0.00     0.001 C 
HETATM   15  C   UNL     1     -45.385 -52.769  12.639  1.00  0.00     0.014 C 
ENDBRANCH   8  11
ENDBRANCH   6   7
ENDBRANCH   5   6
ENDBRANCH   2   5
BRANCH   3  16
HETATM   16  C   UNL     1     -38.657 -51.057  12.981  1.00  0.00     0.127 C 
BRANCH  16  17
HETATM   17  C   UNL     1     -39.162 -49.711  13.503  1.00  0.00     0.059 C 
BRANCH  17  18
HETATM   18  C   UNL     1     -39.923 -48.960  12.446  1.00  0.00    -0.041 A 
HETATM   19  C   UNL     1     -40.144 -47.584  12.549  1.00  0.00     0.010 A 
HETATM   20  C   UNL     1     -40.906 -46.934  11.583  1.00  0.00     0.018 A 
HETATM   21  C   UNL     1     -41.422 -47.685  10.539  1.00  0.00     0.087 A 
HETATM   22  N   UNL     1     -41.221 -49.012  10.399  1.00  0.00    -0.375 N 
HETATM   23  C   UNL     1     -40.481 -49.618  11.355  1.00  0.00     0.094 A 
ATOM     24  HN  UNL     1     -41.609 -49.533   9.612  1.00  0.00     0.164 HD
ENDBRANCH  17  18
ENDBRANCH  16  17
ENDBRANCH   3  16
TORSDOF 7
ENDMDL
MODEL 9
REMARK VINA RESULT:      -5.7      2.878      4.331
REMARK  7 active torsions:
REMARK  status: ('A' for Active; 'I' for Inactive)
REMARK    1  A    between atoms: C_2  and  C_3 
REMARK       I    between atoms: C_2  and  N_13 
REMARK    2  A    between atoms: C_3  and  C_4 
REMARK    3  A    between atoms: C_4  and  N_5 
REMARK       I    between atoms: N_5  and  C_6 
REMARK    4  A    between atoms: C_6  and  C_8 
REMARK    5  A    between atoms: N_13  and  C_14 
REMARK    6  A    between atoms: C_14  and  C_15 
REMARK    7  A    between atoms: C_15  and  C_16 
ROOT
HETATM    1  O   UNL     1     -40.990 -51.175  13.483  1.00  0.00    -0.274 OA
HETATM    2  C   UNL     1     -41.165 -51.458  12.300  1.00  0.00     0.219 C 
HETATM    3  N   UNL     1     -40.592 -50.759  11.260  1.00  0.00    -0.361 N 
HETATM    4  H   UNL     1     -40.856 -50.986  10.310  1.00  0.00     0.162 HD
ENDROOT
BRANCH   2   5
HETATM    5  C   UNL     1     -41.977 -52.658  11.854  1.00  0.00     0.122 C 
BRANCH   5   6
HETATM    6  C   UNL     1     -42.580 -53.377  13.054  1.00  0.00     0.132 C 
BRANCH   6   7
HETATM    7  N   UNL     1     -43.604 -52.577  13.708  1.00  0.00    -0.360 N 
HETATM    8  C   UNL     1     -44.912 -52.583  13.269  1.00  0.00     0.221 C 
HETATM    9  O   UNL     1     -45.285 -53.260  12.316  1.00  0.00    -0.273 OA
HETATM   10  H   UNL     1     -43.339 -51.988  14.487  1.00  0.00     0.162 HD
BRANCH   8  11
HETATM   11  C   UNL     1     -45.836 -51.661  14.054  1.00  0.00     0.078 C 
HETATM   12  C   UNL     1     -45.098 -50.879  15.148  1.00  0.00     0.014 C 
HETATM   13  C   UNL     1     -46.000 -50.892  16.382  1.00  0.00     0.001 C 
HETATM   14  C   UNL     1     -47.320 -51.496  15.935  1.00  0.00     0.001 C 
HETATM   15  C   UNL     1     -46.932 -52.424  14.798  1.00  0.00     0.014 C 
ENDBRANCH   8  11
ENDBRANCH   6   7
ENDBRANCH   5   6
ENDBRANCH   2   5
BRANCH   3  16
HETATM   16  C   UNL     1     -39.823 -49.552  11.519  1.00  0.00     0.127 C 
BRANCH  16  17
HETATM   17  C   UNL     1     -38.332 -49.835  11.709  1.00  0.00     0.059 C 
BRANCH  17  18
HETATM   18  C   UNL     1     -37.883 -49.510  13.106  1.00  0.00    -0.041 A 
HETATM   19  C   UNL     1     -37.803 -48.189  13.555  1.00  0.00     0.010 A 
HETATM   20  C   UNL     1     -37.323 -47.923  14.834  1.00  0.00     0.018 A 
HETATM   21  C   UNL     1     -36.940 -48.992  15.627  1.00  0.00     0.087 A 
HETATM   22  N   UNL     1     -37.012 -50.281  15.233  1.00  0.00    -0.375 N 
HETATM   23  C   UNL     1     -37.478 -50.510  13.985  1.00  0.00     0.094 A 
ATOM     24  HN  UNL     1     -36.729 -51.045  15.847  1.00  0.00     0.164 HD
ENDBRANCH  17  18
ENDBRANCH  16  17
ENDBRANCH   3  16
TORSDOF 7
ENDMDL
