MODEL 1
REMARK VINA RESULT:      -4.9      0.000      0.000
REMARK  4 active torsions:
REMARK  status: ('A' for Active; 'I' for Inactive)
REMARK    1  A    between atoms: C_2  and  C_3 
REMARK    2  A    between atoms: C_2  and  N_10 
REMARK    3  A    between atoms: C_3  and  N_4 
REMARK       I    between atoms: N_10  and  C_11 
REMARK    4  A    between atoms: C_11  and  C_13 
ROOT
HETATM    1  C   UNL     1     -42.368 -55.144  15.642  1.00  0.00     0.034 C 
HETATM    2  C   UNL     1     -41.988 -53.843  14.936  1.00  0.00     0.098 C 
ENDROOT
BRANCH   2   3
HETATM    3  C   UNL     1     -41.176 -54.088  13.648  1.00  0.00     0.153 C 
BRANCH   3   4
HETATM    4  N   UNL     1     -40.786 -52.878  12.954  1.00  0.00    -0.350 N 
HETATM    5  C   UNL     1     -39.822 -51.994  13.347  1.00  0.00     0.108 A 
HETATM    6  C   UNL     1     -39.822 -51.017  12.379  1.00  0.00     0.106 A 
HETATM    7  N   UNL     1     -40.753 -51.291  11.413  1.00  0.00    -0.361 N 
HETATM    8  C   UNL     1     -41.306 -52.427  11.774  1.00  0.00     0.182 A 
ATOM      9  HN  UNL     1     -40.971 -50.733  10.587  1.00  0.00     0.166 HD
ENDBRANCH   3   4
ENDBRANCH   2   3
BRANCH   2  10
HETATM   10  N   UNL     1     -43.199 -53.066  14.657  1.00  0.00    -0.355 N 
HETATM   11  C   UNL     1     -43.307 -51.747  15.047  1.00  0.00     0.222 C 
HETATM   12  O   UNL     1     -42.416 -51.173  15.661  1.00  0.00    -0.273 OA
HETATM   13  H   UNL     1     -43.929 -53.473  14.086  1.00  0.00     0.162 HD
BRANCH  11  14
HETATM   14  C   UNL     1     -44.626 -51.092  14.662  1.00  0.00     0.078 C 
HETATM   15  C   UNL     1     -45.645 -51.107  15.808  1.00  0.00     0.014 C 
HETATM   16  C   UNL     1     -46.998 -51.455  15.185  1.00  0.00     0.001 C 
HETATM   17  C   UNL     1     -46.786 -51.413  13.680  1.00  0.00     0.001 C 
HETATM   18  C   UNL     1     -45.330 -51.809  13.510  1.00  0.00     0.014 C 
ENDBRANCH  11  14
ENDBRANCH   2  10
TORSDOF 4
ENDMDL
MODEL 2
REMARK VINA RESULT:      -4.8      4.335      5.413
REMARK  4 active torsions:
REMARK  status: ('A' for Active; 'I' for Inactive)
REMARK    1  A    between atoms: C_2  and  C_3 
REMARK    2  A    between atoms: C_2  and  N_10 
REMARK    3  A    between atoms: C_3  and  N_4 
REMARK       I    between atoms: N_10  and  C_11 
REMARK    4  A    between atoms: C_11  and  C_13 
ROOT
HETATM    1  C   UNL     1     -43.071 -48.694  14.196  1.00  0.00     0.034 C 
HETATM    2  C   UNL     1     -42.779 -49.540  12.958  1.00  0.00     0.098 C 
ENDROOT
BRANCH   2   3
HETATM    3  C   UNL     1     -43.351 -50.967  13.074  1.00  0.00     0.153 C 
BRANCH   3   4
HETATM    4  N   UNL     1     -42.387 -52.015  12.807  1.00  0.00    -0.350 N 
HETATM    5  C   UNL     1     -42.172 -53.131  13.566  1.00  0.00     0.108 A 
HETATM    6  C   UNL     1     -41.168 -53.812  12.917  1.00  0.00     0.106 A 
HETATM    7  N   UNL     1     -40.779 -53.143  11.788  1.00  0.00    -0.361 N 
HETATM    8  C   UNL     1     -41.542 -52.074  11.736  1.00  0.00     0.182 A 
ATOM      9  HN  UNL     1     -40.052 -53.416  11.127  1.00  0.00     0.166 HD
ENDBRANCH   3   4
ENDBRANCH   2   3
BRANCH   2  10
HETATM   10  N   UNL     1     -43.296 -48.859  11.767  1.00  0.00    -0.355 N 
HETATM   11  C   UNL     1     -42.443 -48.290  10.843  1.00  0.00     0.222 C 
HETATM   12  O   UNL     1     -41.226 -48.304  10.983  1.00  0.00    -0.273 OA
HETATM   13  H   UNL     1     -44.288 -48.889  11.569  1.00  0.00     0.162 HD
BRANCH  11  14
HETATM   14  C   UNL     1     -43.151 -47.640   9.664  1.00  0.00     0.078 C 
HETATM   15  C   UNL     1     -42.757 -46.169   9.481  1.00  0.00     0.014 C 
HETATM   16  C   UNL     1     -44.043 -45.410   9.148  1.00  0.00     0.001 C 
HETATM   17  C   UNL     1     -45.107 -46.474   8.923  1.00  0.00     0.001 C 
HETATM   18  C   UNL     1     -44.671 -47.616   9.823  1.00  0.00     0.014 C 
ENDBRANCH  11  14
ENDBRANCH   2  10
TORSDOF 4
ENDMDL
MODEL 3
REMARK VINA RESULT:      -4.8      2.601      4.132
REMARK  4 active torsions:
REMARK  status: ('A' for Active; 'I' for Inactive)
REMARK    1  A    between atoms: C_2  and  C_3 
REMARK    2  A    between atoms: C_2  and  N_10 
REMARK    3  A    between atoms: C_3  and  N_4 
REMARK       I    between atoms: N_10  and  C_11 
REMARK    4  A    between atoms: C_11  and  C_13 
ROOT
HETATM    1  C   UNL     1     -41.025 -53.933  12.869  1.00  0.00     0.034 C 
HETATM    2  C   UNL     1     -41.936 -54.347  14.024  1.00  0.00     0.098 C 
ENDROOT
BRANCH   2   3
HETATM    3  C   UNL     1     -41.325 -54.016  15.401  1.00  0.00     0.153 C 
BRANCH   3   4
HETATM    4  N   UNL     1     -40.784 -55.163  16.100  1.00  0.00    -0.350 N 
HETATM    5  C   UNL     1     -39.461 -55.449  16.284  1.00  0.00     0.108 A 
HETATM    6  C   UNL     1     -39.449 -56.629  16.993  1.00  0.00     0.106 A 
HETATM    7  N   UNL     1     -40.725 -57.056  17.246  1.00  0.00    -0.361 N 
HETATM    8  C   UNL     1     -41.509 -56.145  16.713  1.00  0.00     0.182 A 
ATOM      9  HN  UNL     1     -41.008 -57.901  17.742  1.00  0.00     0.166 HD
ENDBRANCH   3   4
ENDBRANCH   2   3
BRANCH   2  10
HETATM   10  N   UNL     1     -43.248 -53.715  13.863  1.00  0.00    -0.355 N 
HETATM   11  C   UNL     1     -44.407 -54.378  14.212  1.00  0.00     0.222 C 
HETATM   12  O   UNL     1     -44.399 -55.523  14.647  1.00  0.00    -0.273 OA
HETATM   13  H   UNL     1     -43.301 -52.744  13.581  1.00  0.00     0.162 HD
BRANCH  11  14
HETATM   14  C   UNL     1     -45.676 -53.567  13.992  1.00  0.00     0.078 C 
HETATM   15  C   UNL     1     -45.691 -52.859  12.631  1.00  0.00     0.014 C 
HETATM   16  C   UNL     1     -46.253 -51.456  12.874  1.00  0.00     0.001 C 
HETATM   17  C   UNL     1     -46.758 -51.453  14.308  1.00  0.00     0.001 C 
HETATM   18  C   UNL     1     -45.847 -52.442  15.013  1.00  0.00     0.014 C 
ENDBRANCH  11  14
ENDBRANCH   2  10
TORSDOF 4
ENDMDL
MODEL 4
REMARK VINA RESULT:      -4.8      4.514      7.253
REMARK  4 active torsions:
REMARK  status: ('A' for Active; 'I' for Inactive)
REMARK    1  A    between atoms: C_2  and  C_3 
REMARK    2  A    between atoms: C_2  and  N_10 
REMARK    3  A    between atoms: C_3  and  N_4 
REMARK       I    between atoms: N_10  and  C_11 
REMARK    4  A    between atoms: C_11  and  C_13 
ROOT
HETATM    1  C   UNL     1     -42.659 -46.606  12.132  1.00  0.00     0.034 C 
HETATM    2  C   UNL     1     -42.674 -47.698  11.063  1.00  0.00     0.098 C 
ENDROOT
BRANCH   2   3
HETATM    3  C   UNL     1     -42.914 -47.133   9.648  1.00  0.00     0.153 C 
BRANCH   3   4
HETATM    4  N   UNL     1     -44.142 -47.587   9.029  1.00  0.00    -0.350 N 
HETATM    5  C   UNL     1     -45.388 -47.566   9.590  1.00  0.00     0.108 A 
HETATM    6  C   UNL     1     -46.217 -48.098   8.630  1.00  0.00     0.106 A 
HETATM    7  N   UNL     1     -45.508 -48.432   7.507  1.00  0.00    -0.361 N 
HETATM    8  C   UNL     1     -44.264 -48.096   7.768  1.00  0.00     0.182 A 
ATOM      9  HN  UNL     1     -45.868 -48.851   6.649  1.00  0.00     0.166 HD
ENDBRANCH   3   4
ENDBRANCH   2   3
BRANCH   2  10
HETATM   10  N   UNL     1     -41.423 -48.459  11.122  1.00  0.00    -0.355 N 
HETATM   11  C   UNL     1     -41.360 -49.682  11.759  1.00  0.00     0.222 C 
HETATM   12  O   UNL     1     -42.330 -50.176  12.321  1.00  0.00    -0.273 OA
HETATM   13  H   UNL     1     -40.616 -48.128  10.608  1.00  0.00     0.162 HD
BRANCH  11  14
HETATM   14  C   UNL     1     -39.987 -50.336  11.710  1.00  0.00     0.078 C 
HETATM   15  C   UNL     1     -39.665 -51.121  12.989  1.00  0.00     0.014 C 
HETATM   16  C   UNL     1     -38.203 -50.823  13.327  1.00  0.00     0.001 C 
HETATM   17  C   UNL     1     -37.645 -50.065  12.133  1.00  0.00     0.001 C 
HETATM   18  C   UNL     1     -38.850 -49.322  11.584  1.00  0.00     0.014 C 
ENDBRANCH  11  14
ENDBRANCH   2  10
TORSDOF 4
ENDMDL
MODEL 5
REMARK VINA RESULT:      -4.8     15.897     17.361
REMARK  4 active torsions:
REMARK  status: ('A' for Active; 'I' for Inactive)
REMARK    1  A    between atoms: C_2  and  C_3 
REMARK    2  A    between atoms: C_2  and  N_10 
REMARK    3  A    between atoms: C_3  and  N_4 
REMARK       I    between atoms: N_10  and  C_11 
REMARK    4  A    between atoms: C_11  and  C_13 
ROOT
HETATM    1  C   UNL     1     -53.138 -54.215  -0.476  1.00  0.00     0.034 C 
HETATM    2  C   UNL     1     -51.810 -53.674  -1.003  1.00  0.00     0.098 C 
ENDROOT
BRANCH   2   3
HETATM    3  C   UNL     1     -51.582 -54.019  -2.489  1.00  0.00     0.153 C 
BRANCH   3   4
HETATM    4  N   UNL     1     -50.561 -55.020  -2.715  1.00  0.00    -0.350 N 
HETATM    5  C   UNL     1     -50.720 -56.206  -3.375  1.00  0.00     0.108 A 
HETATM    6  C   UNL     1     -49.484 -56.807  -3.326  1.00  0.00     0.106 A 
HETATM    7  N   UNL     1     -48.585 -56.015  -2.663  1.00  0.00    -0.361 N 
HETATM    8  C   UNL     1     -49.255 -54.938  -2.322  1.00  0.00     0.182 A 
ATOM      9  HN  UNL     1     -47.603 -56.218  -2.474  1.00  0.00     0.166 HD
ENDBRANCH   3   4
ENDBRANCH   2   3
BRANCH   2  10
HETATM   10  N   UNL     1     -51.749 -52.226  -0.782  1.00  0.00    -0.355 N 
HETATM   11  C   UNL     1     -50.618 -51.630  -0.261  1.00  0.00     0.222 C 
HETATM   12  O   UNL     1     -49.629 -52.277   0.062  1.00  0.00    -0.273 OA
HETATM   13  H   UNL     1     -52.510 -51.642  -1.104  1.00  0.00     0.162 HD
BRANCH  11  14
HETATM   14  C   UNL     1     -50.726 -50.120  -0.113  1.00  0.00     0.078 C 
HETATM   15  C   UNL     1     -50.151 -49.618   1.218  1.00  0.00     0.014 C 
HETATM   16  C   UNL     1     -51.116 -48.548   1.733  1.00  0.00     0.001 C 
HETATM   17  C   UNL     1     -52.096 -48.289   0.600  1.00  0.00     0.001 C 
HETATM   18  C   UNL     1     -52.172 -49.623  -0.121  1.00  0.00     0.014 C 
ENDBRANCH  11  14
ENDBRANCH   2  10
TORSDOF 4
ENDMDL
MODEL 6
REMARK VINA RESULT:      -4.7      2.713      3.963
REMARK  4 active torsions:
REMARK  status: ('A' for Active; 'I' for Inactive)
REMARK    1  A    between atoms: C_2  and  C_3 
REMARK    2  A    between atoms: C_2  and  N_10 
REMARK    3  A    between atoms: C_3  and  N_4 
REMARK       I    between atoms: N_10  and  C_11 
REMARK    4  A    between atoms: C_11  and  C_13 
ROOT
HETATM    1  C   UNL     1     -43.093 -49.171  12.878  1.00  0.00     0.034 C 
HETATM    2  C   UNL     1     -41.970 -50.187  12.677  1.00  0.00     0.098 C 
ENDROOT
BRANCH   2   3
HETATM    3  C   UNL     1     -40.682 -49.797  13.430  1.00  0.00     0.153 C 
BRANCH   3   4
HETATM    4  N   UNL     1     -39.464 -50.031  12.682  1.00  0.00    -0.350 N 
HETATM    5  C   UNL     1     -38.374 -50.737  13.108  1.00  0.00     0.108 A 
HETATM    6  C   UNL     1     -37.483 -50.677  12.062  1.00  0.00     0.106 A 
HETATM    7  N   UNL     1     -38.007 -49.962  11.018  1.00  0.00    -0.361 N 
HETATM    8  C   UNL     1     -39.208 -49.601  11.411  1.00  0.00     0.182 A 
ATOM      9  HN  UNL     1     -37.560 -49.754  10.125  1.00  0.00     0.166 HD
ENDBRANCH   3   4
ENDBRANCH   2   3
BRANCH   2  10
HETATM   10  N   UNL     1     -42.435 -51.517  13.080  1.00  0.00    -0.355 N 
HETATM   11  C   UNL     1     -41.976 -52.656  12.449  1.00  0.00     0.222 C 
HETATM   12  O   UNL     1     -41.185 -52.611  11.514  1.00  0.00    -0.273 OA
HETATM   13  H   UNL     1     -43.028 -51.610  13.895  1.00  0.00     0.162 HD
BRANCH  11  14
HETATM   14  C   UNL     1     -42.553 -53.949  13.006  1.00  0.00     0.078 C 
HETATM   15  C   UNL     1     -44.076 -54.031  12.840  1.00  0.00     0.014 C 
HETATM   16  C   UNL     1     -44.626 -54.613  14.144  1.00  0.00     0.001 C 
HETATM   17  C   UNL     1     -43.414 -55.063  14.944  1.00  0.00     0.001 C 
HETATM   18  C   UNL     1     -42.320 -54.104  14.509  1.00  0.00     0.014 C 
ENDBRANCH  11  14
ENDBRANCH   2  10
TORSDOF 4
ENDMDL
MODEL 7
REMARK VINA RESULT:      -4.7      3.878      6.444
REMARK  4 active torsions:
REMARK  status: ('A' for Active; 'I' for Inactive)
REMARK    1  A    between atoms: C_2  and  C_3 
REMARK    2  A    between atoms: C_2  and  N_10 
REMARK    3  A    between atoms: C_3  and  N_4 
REMARK       I    between atoms: N_10  and  C_11 
REMARK    4  A    between atoms: C_11  and  C_13 
ROOT
HETATM    1  C   UNL     1     -37.512 -50.003  11.323  1.00  0.00     0.034 C 
HETATM    2  C   UNL     1     -38.973 -49.905  11.760  1.00  0.00     0.098 C 
ENDROOT
BRANCH   2   3
HETATM    3  C   UNL     1     -39.262 -50.728  13.032  1.00  0.00     0.153 C 
BRANCH   3   4
HETATM    4  N   UNL     1     -40.127 -51.869  12.815  1.00  0.00    -0.350 N 
HETATM    5  C   UNL     1     -40.083 -53.059  13.487  1.00  0.00     0.108 A 
HETATM    6  C   UNL     1     -41.087 -53.817  12.929  1.00  0.00     0.106 A 
HETATM    7  N   UNL     1     -41.736 -53.116  11.948  1.00  0.00    -0.361 N 
HETATM    8  C   UNL     1     -41.150 -51.940  11.913  1.00  0.00     0.182 A 
ATOM      9  HN  UNL     1     -42.511 -53.438  11.368  1.00  0.00     0.166 HD
ENDBRANCH   3   4
ENDBRANCH   2   3
BRANCH   2  10
HETATM   10  N   UNL     1     -39.334 -48.498  11.948  1.00  0.00    -0.355 N 
HETATM   11  C   UNL     1     -40.487 -47.976  11.396  1.00  0.00     0.222 C 
HETATM   12  O   UNL     1     -41.244 -48.651  10.709  1.00  0.00    -0.273 OA
HETATM   13  H   UNL     1     -38.781 -47.922  12.571  1.00  0.00     0.162 HD
BRANCH  11  14
HETATM   14  C   UNL     1     -40.711 -46.503  11.705  1.00  0.00     0.078 C 
HETATM   15  C   UNL     1     -40.690 -45.629  10.445  1.00  0.00     0.014 C 
HETATM   16  C   UNL     1     -39.905 -44.365  10.804  1.00  0.00     0.001 C 
HETATM   17  C   UNL     1     -39.684 -44.425  12.307  1.00  0.00     0.001 C 
HETATM   18  C   UNL     1     -39.624 -45.913  12.603  1.00  0.00     0.014 C 
ENDBRANCH  11  14
ENDBRANCH   2  10
TORSDOF 4
ENDMDL
MODEL 8
REMARK VINA RESULT:      -4.5      2.923      5.414
REMARK  4 active torsions:
REMARK  status: ('A' for Active; 'I' for Inactive)
REMARK    1  A    between atoms: C_2  and  C_3 
REMARK    2  A    between atoms: C_2  and  N_10 
REMARK    3  A    between atoms: C_3  and  N_4 
REMARK       I    between atoms: N_10  and  C_11 
REMARK    4  A    between atoms: C_11  and  C_13 
ROOT
HETATM    1  C   UNL     1     -38.909 -52.820  15.797  1.00  0.00     0.034 C 
HETATM    2  C   UNL     1     -38.799 -52.830  14.273  1.00  0.00     0.098 C 
ENDROOT
BRANCH   2   3
HETATM    3  C   UNL     1     -39.922 -53.651  13.609  1.00  0.00     0.153 C 
BRANCH   3   4
HETATM    4  N   UNL     1     -41.071 -52.866  13.207  1.00  0.00    -0.350 N 
HETATM    5  C   UNL     1     -42.068 -52.412  14.023  1.00  0.00     0.108 A 
HETATM    6  C   UNL     1     -42.924 -51.729  13.191  1.00  0.00     0.106 A 
HETATM    7  N   UNL     1     -42.468 -51.753  11.900  1.00  0.00    -0.361 N 
HETATM    8  C   UNL     1     -41.341 -52.428  11.941  1.00  0.00     0.182 A 
ATOM      9  HN  UNL     1     -42.908 -51.335  11.080  1.00  0.00     0.166 HD
ENDBRANCH   3   4
ENDBRANCH   2   3
BRANCH   2  10
HETATM   10  N   UNL     1     -38.787 -51.452  13.775  1.00  0.00    -0.355 N 
HETATM   11  C   UNL     1     -37.833 -51.027  12.872  1.00  0.00     0.222 C 
HETATM   12  O   UNL     1     -36.944 -51.766  12.466  1.00  0.00    -0.273 OA
HETATM   13  H   UNL     1     -39.545 -50.827  14.022  1.00  0.00     0.162 HD
BRANCH  11  14
HETATM   14  C   UNL     1     -37.981 -49.572  12.452  1.00  0.00     0.078 C 
HETATM   15  C   UNL     1     -37.886 -48.606  13.640  1.00  0.00     0.014 C 
HETATM   16  C   UNL     1     -38.966 -47.543  13.426  1.00  0.00     0.001 C 
HETATM   17  C   UNL     1     -39.508 -47.777  12.025  1.00  0.00     0.001 C 
HETATM   18  C   UNL     1     -39.340 -49.272  11.819  1.00  0.00     0.014 C 
ENDBRANCH  11  14
ENDBRANCH   2  10
TORSDOF 4
ENDMDL
MODEL 9
REMARK VINA RESULT:      -4.5      2.255      5.774
REMARK  4 active torsions:
REMARK  status: ('A' for Active; 'I' for Inactive)
REMARK    1  A    between atoms: C_2  and  C_3 
REMARK    2  A    between atoms: C_2  and  N_10 
REMARK    3  A    between atoms: C_3  and  N_4 
REMARK       I    between atoms: N_10  and  C_11 
REMARK    4  A    between atoms: C_11  and  C_13 
ROOT
HETATM    1  C   UNL     1     -42.668 -54.453  14.967  1.00  0.00     0.034 C 
HETATM    2  C   UNL     1     -42.396 -54.042  13.520  1.00  0.00     0.098 C 
ENDROOT
BRANCH   2   3
HETATM    3  C   UNL     1     -43.687 -53.956  12.681  1.00  0.00     0.153 C 
BRANCH   3   4
HETATM    4  N   UNL     1     -44.905 -53.999  13.463  1.00  0.00    -0.350 N 
HETATM    5  C   UNL     1     -45.559 -52.928  14.004  1.00  0.00     0.108 A 
HETATM    6  C   UNL     1     -46.647 -53.468  14.652  1.00  0.00     0.106 A 
HETATM    7  N   UNL     1     -46.669 -54.830  14.511  1.00  0.00    -0.361 N 
HETATM    8  C   UNL     1     -45.620 -55.121  13.775  1.00  0.00     0.182 A 
ATOM      9  HN  UNL     1     -47.355 -55.480  14.894  1.00  0.00     0.166 HD
ENDBRANCH   3   4
ENDBRANCH   2   3
BRANCH   2  10
HETATM   10  N   UNL     1     -41.670 -52.769  13.502  1.00  0.00    -0.355 N 
HETATM   11  C   UNL     1     -40.296 -52.733  13.370  1.00  0.00     0.222 C 
HETATM   12  O   UNL     1     -39.621 -53.752  13.287  1.00  0.00    -0.273 OA
HETATM   13  H   UNL     1     -42.189 -51.900  13.491  1.00  0.00     0.162 HD
BRANCH  11  14
HETATM   14  C   UNL     1     -39.711 -51.328  13.356  1.00  0.00     0.078 C 
HETATM   15  C   UNL     1     -40.056 -50.562  12.072  1.00  0.00     0.014 C 
HETATM   16  C   UNL     1     -38.787 -49.816  11.655  1.00  0.00     0.001 C 
HETATM   17  C   UNL     1     -37.810 -49.977  12.810  1.00  0.00     0.001 C 
HETATM   18  C   UNL     1     -38.184 -51.320  13.412  1.00  0.00     0.014 C 
ENDBRANCH  11  14
ENDBRANCH   2  10
TORSDOF 4
ENDMDL
