MODEL 1
REMARK VINA RESULT:      -6.4      0.000      0.000
REMARK  6 active torsions:
REMARK  status: ('A' for Active; 'I' for Inactive)
REMARK    1  A    between atoms: O_1  and  C_2 
REMARK    2  A    between atoms: C_2  and  C_3 
REMARK    3  A    between atoms: C_3  and  C_4 
REMARK    4  A    between atoms: C_4  and  N_5 
REMARK    5  A    between atoms: C_4  and  C_16 
REMARK       I    between atoms: N_5  and  C_6 
REMARK       I    between atoms: C_6  and  N_8 
REMARK    6  A    between atoms: N_8  and  C_9 
ROOT
HETATM    1  N   UNL     1     -42.728 -51.751  12.193  1.00  0.00    -0.338 N 
HETATM    2  C   UNL     1     -42.578 -50.431  12.553  1.00  0.00     0.321 C 
HETATM    3  O   UNL     1     -42.776 -50.015  13.686  1.00  0.00    -0.247 OA
HETATM    4  N   UNL     1     -42.284 -49.649  11.452  1.00  0.00    -0.308 N 
HETATM    5  H   UNL     1     -42.391 -52.032  11.285  1.00  0.00     0.164 HD
HETATM    6  H   UNL     1     -42.507 -50.056  10.557  1.00  0.00     0.170 HD
ENDROOT
BRANCH   1   7
HETATM    7  C   UNL     1     -43.241 -52.833  13.049  1.00  0.00     0.092 C 
BRANCH   7   8
HETATM    8  C   UNL     1     -42.218 -53.994  13.178  1.00  0.00     0.051 C 
BRANCH   8   9
HETATM    9  C   UNL     1     -40.774 -53.597  12.903  1.00  0.00     0.166 C 
BRANCH   9  10
HETATM   10  O   UNL     1     -40.559 -53.503  11.500  1.00  0.00    -0.401 OA
HETATM   11  H   UNL     1     -40.134 -54.335  11.228  1.00  0.00     0.209 HD
ENDBRANCH   9  10
ENDBRANCH   8   9
ENDBRANCH   7   8
BRANCH   7  12
HETATM   12  C   UNL     1     -44.653 -53.362  12.612  1.00  0.00     0.008 C 
HETATM   13  C   UNL     1     -45.747 -52.271  12.519  1.00  0.00     0.007 C 
HETATM   14  C   UNL     1     -46.292 -51.784  13.865  1.00  0.00     0.000 C 
HETATM   15  C   UNL     1     -46.654 -52.916  14.824  1.00  0.00     0.000 C 
HETATM   16  C   UNL     1     -45.543 -53.952  14.928  1.00  0.00     0.000 C 
HETATM   17  C   UNL     1     -45.186 -54.480  13.540  1.00  0.00     0.007 C 
ENDBRANCH   7  12
ENDBRANCH   1   7
BRANCH   4  18
HETATM   18  C   UNL     1     -42.089 -48.252  11.481  1.00  0.00     0.051 A 
HETATM   19  C   UNL     1     -40.781 -47.761  11.496  1.00  0.00     0.032 A 
HETATM   20  C   UNL     1     -40.556 -46.385  11.506  1.00  0.00     0.019 A 
HETATM   21  C   UNL     1     -41.652 -45.542  11.540  1.00  0.00     0.088 A 
HETATM   22  N   UNL     1     -42.930 -45.977  11.554  1.00  0.00    -0.373 N 
HETATM   23  C   UNL     1     -43.123 -47.321  11.514  1.00  0.00     0.117 A 
ATOM     24  HN  UNL     1     -43.714 -45.326  11.593  1.00  0.00     0.164 HD
ENDBRANCH   4  18
TORSDOF 6
ENDMDL
MODEL 2
REMARK VINA RESULT:      -5.8      3.309      7.177
REMARK  6 active torsions:
REMARK  status: ('A' for Active; 'I' for Inactive)
REMARK    1  A    between atoms: O_1  and  C_2 
REMARK    2  A    between atoms: C_2  and  C_3 
REMARK    3  A    between atoms: C_3  and  C_4 
REMARK    4  A    between atoms: C_4  and  N_5 
REMARK    5  A    between atoms: C_4  and  C_16 
REMARK       I    between atoms: N_5  and  C_6 
REMARK       I    between atoms: C_6  and  N_8 
REMARK    6  A    between atoms: N_8  and  C_9 
ROOT
HETATM    1  N   UNL     1     -41.701 -48.588  10.636  1.00  0.00    -0.338 N 
HETATM    2  C   UNL     1     -41.758 -49.625  11.540  1.00  0.00     0.321 C 
HETATM    3  O   UNL     1     -42.559 -49.671  12.463  1.00  0.00    -0.247 OA
HETATM    4  N   UNL     1     -40.735 -50.528  11.321  1.00  0.00    -0.308 N 
HETATM    5  H   UNL     1     -41.122 -48.707   9.819  1.00  0.00     0.164 HD
HETATM    6  H   UNL     1     -39.959 -50.183  10.777  1.00  0.00     0.170 HD
ENDROOT
BRANCH   1   7
HETATM    7  C   UNL     1     -42.489 -47.346  10.687  1.00  0.00     0.092 C 
BRANCH   7   8
HETATM    8  C   UNL     1     -43.774 -47.449   9.822  1.00  0.00     0.051 C 
BRANCH   8   9
HETATM    9  C   UNL     1     -43.556 -47.198   8.336  1.00  0.00     0.166 C 
BRANCH   9  10
HETATM   10  O   UNL     1     -42.812 -48.271   7.771  1.00  0.00    -0.401 OA
HETATM   11  H   UNL     1     -43.446 -48.816   7.272  1.00  0.00     0.209 HD
ENDBRANCH   9  10
ENDBRANCH   8   9
ENDBRANCH   7   8
BRANCH   7  12
HETATM   12  C   UNL     1     -41.660 -46.061  10.328  1.00  0.00     0.008 C 
HETATM   13  C   UNL     1     -40.183 -46.101  10.789  1.00  0.00     0.007 C 
HETATM   14  C   UNL     1     -39.966 -45.881  12.289  1.00  0.00     0.000 C 
HETATM   15  C   UNL     1     -40.737 -44.689  12.850  1.00  0.00     0.000 C 
HETATM   16  C   UNL     1     -42.197 -44.698  12.416  1.00  0.00     0.000 C 
HETATM   17  C   UNL     1     -42.291 -44.766  10.892  1.00  0.00     0.007 C 
ENDBRANCH   7  12
ENDBRANCH   1   7
BRANCH   4  18
HETATM   18  C   UNL     1     -40.505 -51.690  12.086  1.00  0.00     0.051 A 
HETATM   19  C   UNL     1     -39.600 -51.622  13.148  1.00  0.00     0.032 A 
HETATM   20  C   UNL     1     -39.365 -52.749  13.935  1.00  0.00     0.019 A 
HETATM   21  C   UNL     1     -40.018 -53.924  13.607  1.00  0.00     0.088 A 
HETATM   22  N   UNL     1     -40.879 -54.038  12.574  1.00  0.00    -0.373 N 
HETATM   23  C   UNL     1     -41.113 -52.918  11.842  1.00  0.00     0.117 A 
ATOM     24  HN  UNL     1     -41.333 -54.924  12.354  1.00  0.00     0.164 HD
ENDBRANCH   4  18
TORSDOF 6
ENDMDL
MODEL 3
REMARK VINA RESULT:      -5.7      2.632      6.915
REMARK  6 active torsions:
REMARK  status: ('A' for Active; 'I' for Inactive)
REMARK    1  A    between atoms: O_1  and  C_2 
REMARK    2  A    between atoms: C_2  and  C_3 
REMARK    3  A    between atoms: C_3  and  C_4 
REMARK    4  A    between atoms: C_4  and  N_5 
REMARK    5  A    between atoms: C_4  and  C_16 
REMARK       I    between atoms: N_5  and  C_6 
REMARK       I    between atoms: C_6  and  N_8 
REMARK    6  A    between atoms: N_8  and  C_9 
ROOT
HETATM    1  N   UNL     1     -41.371 -50.917  11.755  1.00  0.00    -0.338 N 
HETATM    2  C   UNL     1     -42.297 -51.407  12.648  1.00  0.00     0.321 C 
HETATM    3  O   UNL     1     -42.412 -50.995  13.794  1.00  0.00    -0.247 OA
HETATM    4  N   UNL     1     -42.985 -52.476  12.108  1.00  0.00    -0.308 N 
HETATM    5  H   UNL     1     -41.452 -51.199  10.790  1.00  0.00     0.164 HD
HETATM    6  H   UNL     1     -42.545 -52.924  11.319  1.00  0.00     0.170 HD
ENDROOT
BRANCH   1   7
HETATM    7  C   UNL     1     -40.322 -49.927  12.046  1.00  0.00     0.092 C 
BRANCH   7   8
HETATM    8  C   UNL     1     -40.366 -48.737  11.049  1.00  0.00     0.051 C 
BRANCH   8   9
HETATM    9  C   UNL     1     -41.683 -47.972  11.038  1.00  0.00     0.166 C 
BRANCH   9  10
HETATM   10  O   UNL     1     -42.528 -48.485  10.015  1.00  0.00    -0.401 OA
HETATM   11  H   UNL     1     -42.925 -49.302  10.367  1.00  0.00     0.209 HD
ENDBRANCH   9  10
ENDBRANCH   8   9
ENDBRANCH   7   8
BRANCH   7  12
HETATM   12  C   UNL     1     -38.881 -50.546  12.132  1.00  0.00     0.008 C 
HETATM   13  C   UNL     1     -38.672 -51.525  13.312  1.00  0.00     0.007 C 
HETATM   14  C   UNL     1     -38.523 -50.864  14.685  1.00  0.00     0.000 C 
HETATM   15  C   UNL     1     -37.541 -49.694  14.696  1.00  0.00     0.000 C 
HETATM   16  C   UNL     1     -37.796 -48.724  13.550  1.00  0.00     0.000 C 
HETATM   17  C   UNL     1     -37.772 -49.470  12.216  1.00  0.00     0.007 C 
ENDBRANCH   7  12
ENDBRANCH   1   7
BRANCH   4  18
HETATM   18  C   UNL     1     -43.988 -53.212  12.775  1.00  0.00     0.051 A 
HETATM   19  C   UNL     1     -43.608 -54.318  13.538  1.00  0.00     0.032 A 
HETATM   20  C   UNL     1     -44.574 -55.054  14.224  1.00  0.00     0.019 A 
HETATM   21  C   UNL     1     -45.899 -54.679  14.091  1.00  0.00     0.088 A 
HETATM   22  N   UNL     1     -46.309 -53.634  13.344  1.00  0.00    -0.373 N 
HETATM   23  C   UNL     1     -45.346 -52.916  12.709  1.00  0.00     0.117 A 
ATOM     24  HN  UNL     1     -47.297 -53.394  13.258  1.00  0.00     0.164 HD
ENDBRANCH   4  18
TORSDOF 6
ENDMDL
MODEL 4
REMARK VINA RESULT:      -5.6      2.473      3.098
REMARK  6 active torsions:
REMARK  status: ('A' for Active; 'I' for Inactive)
REMARK    1  A    between atoms: O_1  and  C_2 
REMARK    2  A    between atoms: C_2  and  C_3 
REMARK    3  A    between atoms: C_3  and  C_4 
REMARK    4  A    between atoms: C_4  and  N_5 
REMARK    5  A    between atoms: C_4  and  C_16 
REMARK       I    between atoms: N_5  and  C_6 
REMARK       I    between atoms: C_6  and  N_8 
REMARK    6  A    between atoms: N_8  and  C_9 
ROOT
HETATM    1  N   UNL     1     -42.685 -53.487  13.338  1.00  0.00    -0.338 N 
HETATM    2  C   UNL     1     -41.888 -52.372  13.473  1.00  0.00     0.321 C 
HETATM    3  O   UNL     1     -41.937 -51.620  14.437  1.00  0.00    -0.247 OA
HETATM    4  N   UNL     1     -41.121 -52.174  12.340  1.00  0.00    -0.308 N 
HETATM    5  H   UNL     1     -42.468 -54.133  12.596  1.00  0.00     0.164 HD
HETATM    6  H   UNL     1     -41.443 -52.645  11.509  1.00  0.00     0.170 HD
ENDROOT
BRANCH   1   7
HETATM    7  C   UNL     1     -43.773 -53.891  14.242  1.00  0.00     0.092 C 
BRANCH   7   8
HETATM    8  C   UNL     1     -43.464 -55.244  14.939  1.00  0.00     0.051 C 
BRANCH   8   9
HETATM    9  C   UNL     1     -42.458 -55.153  16.078  1.00  0.00     0.166 C 
BRANCH   9  10
HETATM   10  O   UNL     1     -42.339 -53.802  16.508  1.00  0.00    -0.401 OA
HETATM   11  H   UNL     1     -41.569 -53.429  16.044  1.00  0.00     0.209 HD
ENDBRANCH   9  10
ENDBRANCH   8   9
ENDBRANCH   7   8
BRANCH   7  12
HETATM   12  C   UNL     1     -45.185 -53.912  13.555  1.00  0.00     0.008 C 
HETATM   13  C   UNL     1     -45.452 -52.724  12.601  1.00  0.00     0.007 C 
HETATM   14  C   UNL     1     -45.755 -51.391  13.294  1.00  0.00     0.000 C 
HETATM   15  C   UNL     1     -46.788 -51.506  14.412  1.00  0.00     0.000 C 
HETATM   16  C   UNL     1     -46.477 -52.657  15.360  1.00  0.00     0.000 C 
HETATM   17  C   UNL     1     -46.346 -53.962  14.577  1.00  0.00     0.007 C 
ENDBRANCH   7  12
ENDBRANCH   1   7
BRANCH   4  18
HETATM   18  C   UNL     1     -40.214 -51.109  12.154  1.00  0.00     0.051 A 
HETATM   19  C   UNL     1     -38.965 -51.180  12.776  1.00  0.00     0.032 A 
HETATM   20  C   UNL     1     -38.040 -50.152  12.596  1.00  0.00     0.019 A 
HETATM   21  C   UNL     1     -38.412 -49.064  11.827  1.00  0.00     0.088 A 
HETATM   22  N   UNL     1     -39.617 -48.945  11.232  1.00  0.00    -0.373 N 
HETATM   23  C   UNL     1     -40.489 -49.973  11.399  1.00  0.00     0.117 A 
ATOM     24  HN  UNL     1     -39.862 -48.122  10.683  1.00  0.00     0.164 HD
ENDBRANCH   4  18
TORSDOF 6
ENDMDL
MODEL 5
REMARK VINA RESULT:      -5.5      1.824      6.724
REMARK  6 active torsions:
REMARK  status: ('A' for Active; 'I' for Inactive)
REMARK    1  A    between atoms: O_1  and  C_2 
REMARK    2  A    between atoms: C_2  and  C_3 
REMARK    3  A    between atoms: C_3  and  C_4 
REMARK    4  A    between atoms: C_4  and  N_5 
REMARK    5  A    between atoms: C_4  and  C_16 
REMARK       I    between atoms: N_5  and  C_6 
REMARK       I    between atoms: C_6  and  N_8 
REMARK    6  A    between atoms: N_8  and  C_9 
ROOT
HETATM    1  N   UNL     1     -41.603 -50.339  11.567  1.00  0.00    -0.338 N 
HETATM    2  C   UNL     1     -42.373 -50.982  12.509  1.00  0.00     0.321 C 
HETATM    3  O   UNL     1     -42.474 -50.606  13.669  1.00  0.00    -0.247 OA
HETATM    4  N   UNL     1     -42.915 -52.144  11.994  1.00  0.00    -0.308 N 
HETATM    5  H   UNL     1     -41.704 -50.622  10.604  1.00  0.00     0.164 HD
HETATM    6  H   UNL     1     -42.465 -52.506  11.168  1.00  0.00     0.170 HD
ENDROOT
BRANCH   1   7
HETATM    7  C   UNL     1     -40.711 -49.194  11.808  1.00  0.00     0.092 C 
BRANCH   7   8
HETATM    8  C   UNL     1     -39.512 -49.584  12.714  1.00  0.00     0.051 C 
BRANCH   8   9
HETATM    9  C   UNL     1     -38.185 -49.722  11.980  1.00  0.00     0.166 C 
BRANCH   9  10
HETATM   10  O   UNL     1     -38.421 -50.047  10.616  1.00  0.00    -0.401 OA
HETATM   11  H   UNL     1     -37.547 -50.154  10.201  1.00  0.00     0.209 HD
ENDBRANCH   9  10
ENDBRANCH   8   9
ENDBRANCH   7   8
BRANCH   7  12
HETATM   12  C   UNL     1     -41.454 -47.925  12.359  1.00  0.00     0.008 C 
HETATM   13  C   UNL     1     -42.651 -47.457  11.497  1.00  0.00     0.007 C 
HETATM   14  C   UNL     1     -42.274 -46.733  10.201  1.00  0.00     0.000 C 
HETATM   15  C   UNL     1     -41.214 -45.651  10.392  1.00  0.00     0.000 C 
HETATM   16  C   UNL     1     -40.028 -46.151  11.206  1.00  0.00     0.000 C 
HETATM   17  C   UNL     1     -40.509 -46.712  12.544  1.00  0.00     0.007 C 
ENDBRANCH   7  12
ENDBRANCH   1   7
BRANCH   4  18
HETATM   18  C   UNL     1     -43.737 -53.040  12.711  1.00  0.00     0.051 A 
HETATM   19  C   UNL     1     -43.128 -54.021  13.497  1.00  0.00     0.032 A 
HETATM   20  C   UNL     1     -43.913 -54.910  14.231  1.00  0.00     0.019 A 
HETATM   21  C   UNL     1     -45.289 -54.810  14.124  1.00  0.00     0.088 A 
HETATM   22  N   UNL     1     -45.915 -53.894  13.356  1.00  0.00    -0.373 N 
HETATM   23  C   UNL     1     -45.128 -53.022  12.674  1.00  0.00     0.117 A 
ATOM     24  HN  UNL     1     -46.932 -53.858  13.291  1.00  0.00     0.164 HD
ENDBRANCH   4  18
TORSDOF 6
ENDMDL
MODEL 6
REMARK VINA RESULT:      -5.3      2.037      7.222
REMARK  6 active torsions:
REMARK  status: ('A' for Active; 'I' for Inactive)
REMARK    1  A    between atoms: O_1  and  C_2 
REMARK    2  A    between atoms: C_2  and  C_3 
REMARK    3  A    between atoms: C_3  and  C_4 
REMARK    4  A    between atoms: C_4  and  N_5 
REMARK    5  A    between atoms: C_4  and  C_16 
REMARK       I    between atoms: N_5  and  C_6 
REMARK       I    between atoms: C_6  and  N_8 
REMARK    6  A    between atoms: N_8  and  C_9 
ROOT
HETATM    1  N   UNL     1     -42.231 -49.250  11.350  1.00  0.00    -0.338 N 
HETATM    2  C   UNL     1     -42.452 -50.106  12.405  1.00  0.00     0.321 C 
HETATM    3  O   UNL     1     -42.636 -49.728  13.554  1.00  0.00    -0.247 OA
HETATM    4  N   UNL     1     -42.331 -51.424  12.005  1.00  0.00    -0.308 N 
HETATM    5  H   UNL     1     -42.250 -49.636  10.418  1.00  0.00     0.164 HD
HETATM    6  H   UNL     1     -41.832 -51.572  11.142  1.00  0.00     0.170 HD
ENDROOT
BRANCH   1   7
HETATM    7  C   UNL     1     -42.072 -47.789  11.435  1.00  0.00     0.092 C 
BRANCH   7   8
HETATM    8  C   UNL     1     -43.162 -47.047  10.615  1.00  0.00     0.051 C 
BRANCH   8   9
HETATM    9  C   UNL     1     -43.145 -47.349   9.123  1.00  0.00     0.166 C 
BRANCH   9  10
HETATM   10  O   UNL     1     -42.803 -46.174   8.398  1.00  0.00    -0.401 OA
HETATM   11  H   UNL     1     -43.415 -45.477   8.694  1.00  0.00     0.209 HD
ENDBRANCH   9  10
ENDBRANCH   8   9
ENDBRANCH   7   8
BRANCH   7  12
HETATM   12  C   UNL     1     -40.632 -47.292  11.052  1.00  0.00     0.008 C 
HETATM   13  C   UNL     1     -39.485 -47.998  11.815  1.00  0.00     0.007 C 
HETATM   14  C   UNL     1     -39.305 -47.555  13.270  1.00  0.00     0.000 C 
HETATM   15  C   UNL     1     -39.301 -46.039  13.451  1.00  0.00     0.000 C 
HETATM   16  C   UNL     1     -40.464 -45.375  12.726  1.00  0.00     0.000 C 
HETATM   17  C   UNL     1     -40.455 -45.767  11.249  1.00  0.00     0.007 C 
ENDBRANCH   7  12
ENDBRANCH   1   7
BRANCH   4  18
HETATM   18  C   UNL     1     -42.480 -52.543  12.851  1.00  0.00     0.051 A 
HETATM   19  C   UNL     1     -41.334 -53.118  13.405  1.00  0.00     0.032 A 
HETATM   20  C   UNL     1     -41.450 -54.213  14.260  1.00  0.00     0.019 A 
HETATM   21  C   UNL     1     -42.713 -54.723  14.503  1.00  0.00     0.088 A 
HETATM   22  N   UNL     1     -43.841 -54.213  13.968  1.00  0.00    -0.373 N 
HETATM   23  C   UNL     1     -43.704 -53.128  13.162  1.00  0.00     0.117 A 
ATOM     24  HN  UNL     1     -44.755 -54.623  14.159  1.00  0.00     0.164 HD
ENDBRANCH   4  18
TORSDOF 6
ENDMDL
MODEL 7
REMARK VINA RESULT:      -5.1      3.967      7.055
REMARK  6 active torsions:
REMARK  status: ('A' for Active; 'I' for Inactive)
REMARK    1  A    between atoms: O_1  and  C_2 
REMARK    2  A    between atoms: C_2  and  C_3 
REMARK    3  A    between atoms: C_3  and  C_4 
REMARK    4  A    between atoms: C_4  and  N_5 
REMARK    5  A    between atoms: C_4  and  C_16 
REMARK       I    between atoms: N_5  and  C_6 
REMARK       I    between atoms: C_6  and  N_8 
REMARK    6  A    between atoms: N_8  and  C_9 
ROOT
HETATM    1  N   UNL     1     -42.179 -53.130  14.649  1.00  0.00    -0.338 N 
HETATM    2  C   UNL     1     -42.104 -54.337  15.307  1.00  0.00     0.321 C 
HETATM    3  O   UNL     1     -42.910 -55.243  15.149  1.00  0.00    -0.247 OA
HETATM    4  N   UNL     1     -41.074 -54.333  16.228  1.00  0.00    -0.308 N 
HETATM    5  H   UNL     1     -41.389 -52.507  14.717  1.00  0.00     0.164 HD
HETATM    6  H   UNL     1     -40.737 -53.423  16.501  1.00  0.00     0.170 HD
ENDROOT
BRANCH   1   7
HETATM    7  C   UNL     1     -43.264 -52.693  13.757  1.00  0.00     0.092 C 
BRANCH   7   8
HETATM    8  C   UNL     1     -42.849 -52.784  12.263  1.00  0.00     0.051 C 
BRANCH   8   9
HETATM    9  C   UNL     1     -41.428 -52.321  11.974  1.00  0.00     0.166 C 
BRANCH   9  10
HETATM   10  O   UNL     1     -40.598 -53.448  11.713  1.00  0.00    -0.401 OA
HETATM   11  H   UNL     1     -40.951 -53.872  10.912  1.00  0.00     0.209 HD
ENDBRANCH   9  10
ENDBRANCH   8   9
ENDBRANCH   7   8
BRANCH   7  12
HETATM   12  C   UNL     1     -43.830 -51.270  14.107  1.00  0.00     0.008 C 
HETATM   13  C   UNL     1     -44.372 -51.131  15.549  1.00  0.00     0.007 C 
HETATM   14  C   UNL     1     -45.735 -51.786  15.795  1.00  0.00     0.000 C 
HETATM   15  C   UNL     1     -46.775 -51.451  14.728  1.00  0.00     0.000 C 
HETATM   16  C   UNL     1     -46.227 -51.637  13.319  1.00  0.00     0.000 C 
HETATM   17  C   UNL     1     -44.950 -50.818  13.140  1.00  0.00     0.007 C 
ENDBRANCH   7  12
ENDBRANCH   1   7
BRANCH   4  18
HETATM   18  C   UNL     1     -40.744 -55.411  17.077  1.00  0.00     0.051 A 
HETATM   19  C   UNL     1     -39.744 -56.298  16.672  1.00  0.00     0.032 A 
HETATM   20  C   UNL     1     -39.383 -57.362  17.498  1.00  0.00     0.019 A 
HETATM   21  C   UNL     1     -40.065 -57.526  18.690  1.00  0.00     0.088 A 
HETATM   22  N   UNL     1     -41.054 -56.708  19.105  1.00  0.00    -0.373 N 
HETATM   23  C   UNL     1     -41.366 -55.662  18.297  1.00  0.00     0.117 A 
ATOM     24  HN  UNL     1     -41.544 -56.867  19.985  1.00  0.00     0.164 HD
ENDBRANCH   4  18
TORSDOF 6
ENDMDL
MODEL 8
REMARK VINA RESULT:      -5.0      2.806      4.067
REMARK  6 active torsions:
REMARK  status: ('A' for Active; 'I' for Inactive)
REMARK    1  A    between atoms: O_1  and  C_2 
REMARK    2  A    between atoms: C_2  and  C_3 
REMARK    3  A    between atoms: C_3  and  C_4 
REMARK    4  A    between atoms: C_4  and  N_5 
REMARK    5  A    between atoms: C_4  and  C_16 
REMARK       I    between atoms: N_5  and  C_6 
REMARK       I    between atoms: C_6  and  N_8 
REMARK    6  A    between atoms: N_8  and  C_9 
ROOT
HETATM    1  N   UNL     1     -43.632 -50.510  13.959  1.00  0.00    -0.338 N 
HETATM    2  C   UNL     1     -42.536 -50.891  13.217  1.00  0.00     0.321 C 
HETATM    3  O   UNL     1     -42.475 -51.945  12.598  1.00  0.00    -0.247 OA
HETATM    4  N   UNL     1     -41.504 -49.984  13.358  1.00  0.00    -0.308 N 
HETATM    5  H   UNL     1     -43.660 -49.562  14.302  1.00  0.00     0.164 HD
HETATM    6  H   UNL     1     -41.564 -49.378  14.162  1.00  0.00     0.170 HD
ENDROOT
BRANCH   1   7
HETATM    7  C   UNL     1     -44.831 -51.321  14.219  1.00  0.00     0.092 C 
BRANCH   7   8
HETATM    8  C   UNL     1     -45.819 -51.282  13.021  1.00  0.00     0.051 C 
BRANCH   8   9
HETATM    9  C   UNL     1     -46.016 -52.620  12.322  1.00  0.00     0.166 C 
BRANCH   9  10
HETATM   10  O   UNL     1     -46.904 -52.462  11.222  1.00  0.00    -0.401 OA
HETATM   11  H   UNL     1     -47.397 -51.638  11.380  1.00  0.00     0.209 HD
ENDBRANCH   9  10
ENDBRANCH   8   9
ENDBRANCH   7   8
BRANCH   7  12
HETATM   12  C   UNL     1     -45.553 -50.961  15.566  1.00  0.00     0.008 C 
HETATM   13  C   UNL     1     -44.603 -50.780  16.775  1.00  0.00     0.007 C 
HETATM   14  C   UNL     1     -44.048 -52.080  17.364  1.00  0.00     0.000 C 
HETATM   15  C   UNL     1     -45.113 -53.150  17.593  1.00  0.00     0.000 C 
HETATM   16  C   UNL     1     -46.005 -53.337  16.373  1.00  0.00     0.000 C 
HETATM   17  C   UNL     1     -46.626 -52.002  15.967  1.00  0.00     0.007 C 
ENDBRANCH   7  12
ENDBRANCH   1   7
BRANCH   4  18
HETATM   18  C   UNL     1     -40.239 -50.096  12.743  1.00  0.00     0.051 A 
HETATM   19  C   UNL     1     -39.159 -50.533  13.513  1.00  0.00     0.032 A 
HETATM   20  C   UNL     1     -37.900 -50.671  12.929  1.00  0.00     0.019 A 
HETATM   21  C   UNL     1     -37.756 -50.330  11.596  1.00  0.00     0.088 A 
HETATM   22  N   UNL     1     -38.767 -49.880  10.825  1.00  0.00    -0.373 N 
HETATM   23  C   UNL     1     -39.989 -49.782  11.410  1.00  0.00     0.117 A 
ATOM     24  HN  UNL     1     -38.622 -49.624   9.849  1.00  0.00     0.164 HD
ENDBRANCH   4  18
TORSDOF 6
ENDMDL
MODEL 9
REMARK VINA RESULT:      -5.0      2.018      3.521
REMARK  6 active torsions:
REMARK  status: ('A' for Active; 'I' for Inactive)
REMARK    1  A    between atoms: O_1  and  C_2 
REMARK    2  A    between atoms: C_2  and  C_3 
REMARK    3  A    between atoms: C_3  and  C_4 
REMARK    4  A    between atoms: C_4  and  N_5 
REMARK    5  A    between atoms: C_4  and  C_16 
REMARK       I    between atoms: N_5  and  C_6 
REMARK       I    between atoms: C_6  and  N_8 
REMARK    6  A    between atoms: N_8  and  C_9 
ROOT
HETATM    1  N   UNL     1     -42.856 -51.076  12.684  1.00  0.00    -0.338 N 
HETATM    2  C   UNL     1     -41.917 -50.250  12.107  1.00  0.00     0.321 C 
HETATM    3  O   UNL     1     -40.897 -50.661  11.570  1.00  0.00    -0.247 OA
HETATM    4  N   UNL     1     -42.234 -48.922  12.315  1.00  0.00    -0.308 N 
HETATM    5  H   UNL     1     -43.736 -50.667  12.959  1.00  0.00     0.164 HD
HETATM    6  H   UNL     1     -42.885 -48.741  13.064  1.00  0.00     0.170 HD
ENDROOT
BRANCH   1   7
HETATM    7  C   UNL     1     -42.748 -52.534  12.847  1.00  0.00     0.092 C 
BRANCH   7   8
HETATM    8  C   UNL     1     -43.992 -53.268  12.279  1.00  0.00     0.051 C 
BRANCH   8   9
HETATM    9  C   UNL     1     -45.165 -53.361  13.246  1.00  0.00     0.166 C 
BRANCH   9  10
HETATM   10  O   UNL     1     -45.701 -54.679  13.226  1.00  0.00    -0.401 OA
HETATM   11  H   UNL     1     -44.945 -55.287  13.293  1.00  0.00     0.209 HD
ENDBRANCH   9  10
ENDBRANCH   8   9
ENDBRANCH   7   8
BRANCH   7  12
HETATM   12  C   UNL     1     -42.447 -52.979  14.323  1.00  0.00     0.008 C 
HETATM   13  C   UNL     1     -41.581 -51.982  15.131  1.00  0.00     0.007 C 
HETATM   14  C   UNL     1     -40.091 -51.982  14.776  1.00  0.00     0.000 C 
HETATM   15  C   UNL     1     -39.481 -53.379  14.699  1.00  0.00     0.000 C 
HETATM   16  C   UNL     1     -40.331 -54.327  13.863  1.00  0.00     0.000 C 
HETATM   17  C   UNL     1     -41.760 -54.364  14.402  1.00  0.00     0.007 C 
ENDBRANCH   7  12
ENDBRANCH   1   7
BRANCH   4  18
HETATM   18  C   UNL     1     -41.465 -47.827  11.867  1.00  0.00     0.051 A 
HETATM   19  C   UNL     1     -40.630 -47.180  12.781  1.00  0.00     0.032 A 
HETATM   20  C   UNL     1     -39.843 -46.106  12.364  1.00  0.00     0.019 A 
HETATM   21  C   UNL     1     -39.947 -45.690  11.049  1.00  0.00     0.088 A 
HETATM   22  N   UNL     1     -40.760 -46.272  10.142  1.00  0.00    -0.373 N 
HETATM   23  C   UNL     1     -41.494 -47.334  10.566  1.00  0.00     0.117 A 
ATOM     24  HN  UNL     1     -40.820 -45.930   9.184  1.00  0.00     0.164 HD
ENDBRANCH   4  18
TORSDOF 6
ENDMDL
