MODEL 1
REMARK VINA RESULT:      -5.1      0.000      0.000
REMARK  4 active torsions:
REMARK  status: ('A' for Active; 'I' for Inactive)
REMARK       I    between atoms: N_1  and  C_2 
REMARK    1  A    between atoms: C_2  and  C_4 
REMARK    2  A    between atoms: C_4  and  N_5 
REMARK    3  A    between atoms: C_7  and  C_11 
REMARK    4  A    between atoms: C_11  and  O_13 
ROOT
HETATM    1  N   UNL     1     -44.400 -54.418  13.268  1.00  0.00    -0.276 N 
HETATM    2  C   UNL     1     -43.088 -54.371  13.627  1.00  0.00     0.146 A 
HETATM    3  C   UNL     1     -42.539 -53.435  12.776  1.00  0.00     0.136 A 
HETATM    4  N   UNL     1     -43.526 -52.948  11.950  1.00  0.00    -0.277 N 
ATOM      5  HN  UNL     1     -43.402 -52.250  11.216  1.00  0.00     0.184 HD
HETATM    6  N   UNL     1     -44.667 -53.542  12.275  1.00  0.00    -0.020 NA
ENDROOT
BRANCH   1   7
HETATM    7  C   UNL     1     -45.466 -55.188  13.869  1.00  0.00     0.248 C 
BRANCH   7   8
HETATM    8  C   UNL     1     -46.241 -54.387  14.887  1.00  0.00     0.234 C 
HETATM    9  N   UNL     1     -47.110 -53.453  14.397  1.00  0.00    -0.369 N 
HETATM   10  H   UNL     1     -47.691 -52.974  15.074  1.00  0.00     0.159 HD
HETATM   11  H   UNL     1     -47.484 -53.547  13.456  1.00  0.00     0.159 HD
HETATM   12  O   UNL     1     -46.070 -54.506  16.097  1.00  0.00    -0.272 OA
ENDBRANCH   7   8
ENDBRANCH   1   7
BRANCH   3  13
HETATM   13  C   UNL     1     -41.162 -52.978  12.704  1.00  0.00     0.196 C 
HETATM   14  O   UNL     1     -40.593 -52.372  13.599  1.00  0.00    -0.645 OA
BRANCH  13  15
HETATM   15  O   UNL     1     -40.556 -53.285  11.527  1.00  0.00    -0.772 OA
HETATM   16  H   UNL     1     -41.225 -53.339  10.811  1.00  0.00     0.167 HD
ENDBRANCH  13  15
ENDBRANCH   3  13
TORSDOF 4
ENDMDL
MODEL 2
REMARK VINA RESULT:      -5.0      8.337      9.571
REMARK  4 active torsions:
REMARK  status: ('A' for Active; 'I' for Inactive)
REMARK       I    between atoms: N_1  and  C_2 
REMARK    1  A    between atoms: C_2  and  C_4 
REMARK    2  A    between atoms: C_4  and  N_5 
REMARK    3  A    between atoms: C_7  and  C_11 
REMARK    4  A    between atoms: C_11  and  O_13 
ROOT
HETATM    1  N   UNL     1     -43.343 -46.247   9.752  1.00  0.00    -0.276 N 
HETATM    2  C   UNL     1     -44.083 -47.389   9.702  1.00  0.00     0.146 A 
HETATM    3  C   UNL     1     -45.252 -47.005   9.077  1.00  0.00     0.136 A 
HETATM    4  N   UNL     1     -45.174 -45.667   8.766  1.00  0.00    -0.277 N 
ATOM      5  HN  UNL     1     -45.900 -45.116   8.308  1.00  0.00     0.184 HD
HETATM    6  N   UNL     1     -43.992 -45.217   9.166  1.00  0.00    -0.020 NA
ENDROOT
BRANCH   1   7
HETATM    7  C   UNL     1     -41.997 -46.075  10.249  1.00  0.00     0.248 C 
BRANCH   7   8
HETATM    8  C   UNL     1     -41.815 -44.750  10.949  1.00  0.00     0.234 C 
HETATM    9  N   UNL     1     -42.717 -44.448  11.931  1.00  0.00    -0.369 N 
HETATM   10  H   UNL     1     -42.548 -43.599  12.457  1.00  0.00     0.159 HD
HETATM   11  H   UNL     1     -43.222 -45.191  12.406  1.00  0.00     0.159 HD
HETATM   12  O   UNL     1     -40.949 -43.941  10.627  1.00  0.00    -0.272 OA
ENDBRANCH   7   8
ENDBRANCH   1   7
BRANCH   3  13
HETATM   13  C   UNL     1     -46.412 -47.817   8.757  1.00  0.00     0.196 C 
HETATM   14  O   UNL     1     -46.356 -48.906   8.204  1.00  0.00    -0.645 OA
BRANCH  13  15
HETATM   15  O   UNL     1     -47.587 -47.244   9.128  1.00  0.00    -0.772 OA
HETATM   16  H   UNL     1     -48.091 -47.859   9.704  1.00  0.00     0.167 HD
ENDBRANCH  13  15
ENDBRANCH   3  13
TORSDOF 4
ENDMDL
MODEL 3
REMARK VINA RESULT:      -4.9      7.888      9.285
REMARK  4 active torsions:
REMARK  status: ('A' for Active; 'I' for Inactive)
REMARK       I    between atoms: N_1  and  C_2 
REMARK    1  A    between atoms: C_2  and  C_4 
REMARK    2  A    between atoms: C_4  and  N_5 
REMARK    3  A    between atoms: C_7  and  C_11 
REMARK    4  A    between atoms: C_11  and  O_13 
ROOT
HETATM    1  N   UNL     1     -43.004 -46.173  10.380  1.00  0.00    -0.276 N 
HETATM    2  C   UNL     1     -43.760 -46.170   9.248  1.00  0.00     0.146 A 
HETATM    3  C   UNL     1     -44.517 -47.319   9.346  1.00  0.00     0.136 A 
HETATM    4  N   UNL     1     -44.205 -47.961  10.522  1.00  0.00    -0.277 N 
ATOM      5  HN  UNL     1     -44.606 -48.840  10.849  1.00  0.00     0.184 HD
HETATM    6  N   UNL     1     -43.291 -47.239  11.157  1.00  0.00    -0.020 NA
ENDROOT
BRANCH   1   7
HETATM    7  C   UNL     1     -42.067 -45.169  10.832  1.00  0.00     0.248 C 
BRANCH   7   8
HETATM    8  C   UNL     1     -40.667 -45.432  10.333  1.00  0.00     0.234 C 
HETATM    9  N   UNL     1     -40.155 -46.676  10.576  1.00  0.00    -0.369 N 
HETATM   10  H   UNL     1     -39.251 -46.883  10.170  1.00  0.00     0.159 HD
HETATM   11  H   UNL     1     -40.778 -47.464  10.732  1.00  0.00     0.159 HD
HETATM   12  O   UNL     1     -39.981 -44.571   9.790  1.00  0.00    -0.272 OA
ENDBRANCH   7   8
ENDBRANCH   1   7
BRANCH   3  13
HETATM   13  C   UNL     1     -45.506 -47.830   8.414  1.00  0.00     0.196 C 
HETATM   14  O   UNL     1     -46.714 -47.753   8.583  1.00  0.00    -0.645 OA
BRANCH  13  15
HETATM   15  O   UNL     1     -44.957 -48.419   7.319  1.00  0.00    -0.772 OA
HETATM   16  H   UNL     1     -44.105 -48.843   7.560  1.00  0.00     0.167 HD
ENDBRANCH  13  15
ENDBRANCH   3  13
TORSDOF 4
ENDMDL
MODEL 4
REMARK VINA RESULT:      -4.9      6.910      8.068
REMARK  4 active torsions:
REMARK  status: ('A' for Active; 'I' for Inactive)
REMARK       I    between atoms: N_1  and  C_2 
REMARK    1  A    between atoms: C_2  and  C_4 
REMARK    2  A    between atoms: C_4  and  N_5 
REMARK    3  A    between atoms: C_7  and  C_11 
REMARK    4  A    between atoms: C_11  and  O_13 
ROOT
HETATM    1  N   UNL     1     -39.441 -49.051  11.808  1.00  0.00    -0.276 N 
HETATM    2  C   UNL     1     -39.815 -47.742  11.800  1.00  0.00     0.146 A 
HETATM    3  C   UNL     1     -40.895 -47.706  10.943  1.00  0.00     0.136 A 
HETATM    4  N   UNL     1     -41.139 -48.978  10.478  1.00  0.00    -0.277 N 
ATOM      5  HN  UNL     1     -41.874 -49.245   9.822  1.00  0.00     0.184 HD
HETATM    6  N   UNL     1     -40.255 -49.798  11.031  1.00  0.00    -0.020 NA
ENDROOT
BRANCH   1   7
HETATM    7  C   UNL     1     -38.396 -49.678  12.586  1.00  0.00     0.248 C 
BRANCH   7   8
HETATM    8  C   UNL     1     -37.471 -50.508  11.730  1.00  0.00     0.234 C 
HETATM    9  N   UNL     1     -37.294 -50.093  10.440  1.00  0.00    -0.369 N 
HETATM   10  H   UNL     1     -36.612 -50.598   9.888  1.00  0.00     0.159 HD
HETATM   11  H   UNL     1     -37.458 -49.121  10.189  1.00  0.00     0.159 HD
HETATM   12  O   UNL     1     -36.944 -51.543  12.129  1.00  0.00    -0.272 OA
ENDBRANCH   7   8
ENDBRANCH   1   7
BRANCH   3  13
HETATM   13  C   UNL     1     -41.699 -46.562  10.551  1.00  0.00     0.196 C 
HETATM   14  O   UNL     1     -42.831 -46.348  10.957  1.00  0.00    -0.645 OA
BRANCH  13  15
HETATM   15  O   UNL     1     -41.068 -45.739   9.673  1.00  0.00    -0.772 OA
HETATM   16  H   UNL     1     -40.461 -46.260   9.104  1.00  0.00     0.167 HD
ENDBRANCH  13  15
ENDBRANCH   3  13
TORSDOF 4
ENDMDL
MODEL 5
REMARK VINA RESULT:      -4.7     21.497     23.279
REMARK  4 active torsions:
REMARK  status: ('A' for Active; 'I' for Inactive)
REMARK       I    between atoms: N_1  and  C_2 
REMARK    1  A    between atoms: C_2  and  C_4 
REMARK    2  A    between atoms: C_4  and  N_5 
REMARK    3  A    between atoms: C_7  and  C_11 
REMARK    4  A    between atoms: C_11  and  O_13 
ROOT
HETATM    1  N   UNL     1     -29.194 -53.821  -4.921  1.00  0.00    -0.276 N 
HETATM    2  C   UNL     1     -30.251 -54.598  -5.286  1.00  0.00     0.146 A 
HETATM    3  C   UNL     1     -31.353 -53.897  -4.844  1.00  0.00     0.136 A 
HETATM    4  N   UNL     1     -30.931 -52.731  -4.246  1.00  0.00    -0.277 N 
ATOM      5  HN  UNL     1     -31.532 -52.024  -3.822  1.00  0.00     0.184 HD
HETATM    6  N   UNL     1     -29.607 -52.686  -4.318  1.00  0.00    -0.020 NA
ENDROOT
BRANCH   1   7
HETATM    7  C   UNL     1     -27.790 -54.040  -5.187  1.00  0.00     0.248 C 
BRANCH   7   8
HETATM    8  C   UNL     1     -26.906 -53.320  -4.198  1.00  0.00     0.234 C 
HETATM    9  N   UNL     1     -26.822 -53.862  -2.945  1.00  0.00    -0.369 N 
HETATM   10  H   UNL     1     -26.167 -53.430  -2.306  1.00  0.00     0.159 HD
HETATM   11  H   UNL     1     -27.021 -54.848  -2.801  1.00  0.00     0.159 HD
HETATM   12  O   UNL     1     -26.333 -52.266  -4.461  1.00  0.00    -0.272 OA
ENDBRANCH   7   8
ENDBRANCH   1   7
BRANCH   3  13
HETATM   13  C   UNL     1     -32.756 -54.253  -4.959  1.00  0.00     0.196 C 
HETATM   14  O   UNL     1     -33.448 -54.009  -5.935  1.00  0.00    -0.645 OA
BRANCH  13  15
HETATM   15  O   UNL     1     -33.239 -54.890  -3.859  1.00  0.00    -0.772 OA
HETATM   16  H   UNL     1     -32.521 -55.400  -3.427  1.00  0.00     0.167 HD
ENDBRANCH  13  15
ENDBRANCH   3  13
TORSDOF 4
ENDMDL
MODEL 6
REMARK VINA RESULT:      -4.6      1.609      1.831
REMARK  4 active torsions:
REMARK  status: ('A' for Active; 'I' for Inactive)
REMARK       I    between atoms: N_1  and  C_2 
REMARK    1  A    between atoms: C_2  and  C_4 
REMARK    2  A    between atoms: C_4  and  N_5 
REMARK    3  A    between atoms: C_7  and  C_11 
REMARK    4  A    between atoms: C_11  and  O_13 
ROOT
HETATM    1  N   UNL     1     -45.032 -52.355  13.057  1.00  0.00    -0.276 N 
HETATM    2  C   UNL     1     -43.790 -51.802  13.132  1.00  0.00     0.146 A 
HETATM    3  C   UNL     1     -42.967 -52.742  12.548  1.00  0.00     0.136 A 
HETATM    4  N   UNL     1     -43.731 -53.811  12.137  1.00  0.00    -0.277 N 
ATOM      5  HN  UNL     1     -43.383 -54.655  11.682  1.00  0.00     0.184 HD
HETATM    6  N   UNL     1     -44.997 -53.554  12.437  1.00  0.00    -0.020 NA
ENDROOT
BRANCH   1   7
HETATM    7  C   UNL     1     -46.294 -51.778  13.465  1.00  0.00     0.248 C 
BRANCH   7   8
HETATM    8  C   UNL     1     -46.919 -52.534  14.612  1.00  0.00     0.234 C 
HETATM    9  N   UNL     1     -47.077 -53.881  14.444  1.00  0.00    -0.369 N 
HETATM   10  H   UNL     1     -47.418 -54.403  15.242  1.00  0.00     0.159 HD
HETATM   11  H   UNL     1     -46.491 -54.385  13.783  1.00  0.00     0.159 HD
HETATM   12  O   UNL     1     -47.331 -51.980  15.628  1.00  0.00    -0.272 OA
ENDBRANCH   7   8
ENDBRANCH   1   7
BRANCH   3  13
HETATM   13  C   UNL     1     -41.530 -52.687  12.352  1.00  0.00     0.196 C 
HETATM   14  O   UNL     1     -40.712 -52.719  13.259  1.00  0.00    -0.645 OA
BRANCH  13  15
HETATM   15  O   UNL     1     -41.170 -52.588  11.045  1.00  0.00    -0.772 OA
HETATM   16  H   UNL     1     -40.310 -52.122  10.970  1.00  0.00     0.167 HD
ENDBRANCH  13  15
ENDBRANCH   3  13
TORSDOF 4
ENDMDL
MODEL 7
REMARK VINA RESULT:      -4.5      6.530      7.736
REMARK  4 active torsions:
REMARK  status: ('A' for Active; 'I' for Inactive)
REMARK       I    between atoms: N_1  and  C_2 
REMARK    1  A    between atoms: C_2  and  C_4 
REMARK    2  A    between atoms: C_4  and  N_5 
REMARK    3  A    between atoms: C_7  and  C_11 
REMARK    4  A    between atoms: C_11  and  O_13 
ROOT
HETATM    1  N   UNL     1     -40.279 -48.666  11.794  1.00  0.00    -0.276 N 
HETATM    2  C   UNL     1     -41.481 -48.977  11.236  1.00  0.00     0.146 A 
HETATM    3  C   UNL     1     -41.759 -47.904  10.415  1.00  0.00     0.136 A 
HETATM    4  N   UNL     1     -40.725 -46.999  10.496  1.00  0.00    -0.277 N 
ATOM      5  HN  UNL     1     -40.668 -46.109  10.002  1.00  0.00     0.184 HD
HETATM    6  N   UNL     1     -39.814 -47.487  11.329  1.00  0.00    -0.020 NA
ENDROOT
BRANCH   1   7
HETATM    7  C   UNL     1     -39.477 -49.465  12.693  1.00  0.00     0.248 C 
BRANCH   7   8
HETATM    8  C   UNL     1     -38.470 -50.313  11.955  1.00  0.00     0.234 C 
HETATM    9  N   UNL     1     -38.139 -49.909  10.692  1.00  0.00    -0.369 N 
HETATM   10  H   UNL     1     -37.404 -50.427  10.227  1.00  0.00     0.159 HD
HETATM   11  H   UNL     1     -38.259 -48.937  10.419  1.00  0.00     0.159 HD
HETATM   12  O   UNL     1     -38.008 -51.352  12.419  1.00  0.00    -0.272 OA
ENDBRANCH   7   8
ENDBRANCH   1   7
BRANCH   3  13
HETATM   13  C   UNL     1     -42.920 -47.691   9.569  1.00  0.00     0.196 C 
HETATM   14  O   UNL     1     -43.968 -47.195   9.954  1.00  0.00    -0.645 OA
BRANCH  13  15
HETATM   15  O   UNL     1     -42.733 -48.107   8.289  1.00  0.00    -0.772 OA
HETATM   16  H   UNL     1     -42.823 -49.082   8.238  1.00  0.00     0.167 HD
ENDBRANCH  13  15
ENDBRANCH   3  13
TORSDOF 4
ENDMDL
MODEL 8
REMARK VINA RESULT:      -4.4      7.907      8.323
REMARK  4 active torsions:
REMARK  status: ('A' for Active; 'I' for Inactive)
REMARK       I    between atoms: N_1  and  C_2 
REMARK    1  A    between atoms: C_2  and  C_4 
REMARK    2  A    between atoms: C_4  and  N_5 
REMARK    3  A    between atoms: C_7  and  C_11 
REMARK    4  A    between atoms: C_11  and  O_13 
ROOT
HETATM    1  N   UNL     1     -43.479 -46.830   9.845  1.00  0.00    -0.276 N 
HETATM    2  C   UNL     1     -42.717 -45.729  10.090  1.00  0.00     0.146 A 
HETATM    3  C   UNL     1     -41.456 -46.237  10.320  1.00  0.00     0.136 A 
HETATM    4  N   UNL     1     -41.496 -47.607  10.197  1.00  0.00    -0.277 N 
ATOM      5  HN  UNL     1     -40.708 -48.243  10.324  1.00  0.00     0.184 HD
HETATM    6  N   UNL     1     -42.737 -47.958   9.886  1.00  0.00    -0.020 NA
ENDROOT
BRANCH   1   7
HETATM    7  C   UNL     1     -44.877 -46.888   9.481  1.00  0.00     0.248 C 
BRANCH   7   8
HETATM    8  C   UNL     1     -45.151 -47.949   8.443  1.00  0.00     0.234 C 
HETATM    9  N   UNL     1     -44.240 -48.062   7.430  1.00  0.00    -0.369 N 
HETATM   10  H   UNL     1     -44.376 -48.826   6.780  1.00  0.00     0.159 HD
HETATM   11  H   UNL     1     -43.286 -47.737   7.562  1.00  0.00     0.159 HD
HETATM   12  O   UNL     1     -46.164 -48.642   8.451  1.00  0.00    -0.272 OA
ENDBRANCH   7   8
ENDBRANCH   1   7
BRANCH   3  13
HETATM   13  C   UNL     1     -40.236 -45.515  10.635  1.00  0.00     0.196 C 
HETATM   14  O   UNL     1     -39.816 -45.338  11.769  1.00  0.00    -0.645 OA
BRANCH  13  15
HETATM   15  O   UNL     1     -39.594 -45.042   9.534  1.00  0.00    -0.772 OA
HETATM   16  H   UNL     1     -40.074 -44.264   9.176  1.00  0.00     0.167 HD
ENDBRANCH  13  15
ENDBRANCH   3  13
TORSDOF 4
ENDMDL
MODEL 9
REMARK VINA RESULT:      -4.4      2.648      5.068
REMARK  4 active torsions:
REMARK  status: ('A' for Active; 'I' for Inactive)
REMARK       I    between atoms: N_1  and  C_2 
REMARK    1  A    between atoms: C_2  and  C_4 
REMARK    2  A    between atoms: C_4  and  N_5 
REMARK    3  A    between atoms: C_7  and  C_11 
REMARK    4  A    between atoms: C_11  and  O_13 
ROOT
HETATM    1  N   UNL     1     -41.801 -53.223  13.828  1.00  0.00    -0.276 N 
HETATM    2  C   UNL     1     -43.086 -53.548  14.137  1.00  0.00     0.146 A 
HETATM    3  C   UNL     1     -43.768 -53.392  12.948  1.00  0.00     0.136 A 
HETATM    4  N   UNL     1     -42.882 -52.995  11.973  1.00  0.00    -0.277 N 
ATOM      5  HN  UNL     1     -43.112 -52.798  10.999  1.00  0.00     0.184 HD
HETATM    6  N   UNL     1     -41.675 -52.914  12.519  1.00  0.00    -0.020 NA
ENDROOT
BRANCH   1   7
HETATM    7  C   UNL     1     -40.636 -53.268  14.684  1.00  0.00     0.248 C 
BRANCH   7   8
HETATM    8  C   UNL     1     -39.370 -53.533  13.907  1.00  0.00     0.234 C 
HETATM    9  N   UNL     1     -39.108 -54.837  13.591  1.00  0.00    -0.369 N 
HETATM   10  H   UNL     1     -38.304 -55.009  13.000  1.00  0.00     0.159 HD
HETATM   11  H   UNL     1     -39.865 -55.513  13.544  1.00  0.00     0.159 HD
HETATM   12  O   UNL     1     -38.570 -52.648  13.617  1.00  0.00    -0.272 OA
ENDBRANCH   7   8
ENDBRANCH   1   7
BRANCH   3  13
HETATM   13  C   UNL     1     -45.180 -53.601  12.684  1.00  0.00     0.196 C 
HETATM   14  O   UNL     1     -45.876 -52.840  12.029  1.00  0.00    -0.645 OA
BRANCH  13  15
HETATM   15  O   UNL     1     -45.668 -54.739  13.245  1.00  0.00    -0.772 OA
HETATM   16  H   UNL     1     -46.225 -54.516  14.022  1.00  0.00     0.167 HD
ENDBRANCH  13  15
ENDBRANCH   3  13
TORSDOF 4
ENDMDL
