MODEL 1
REMARK VINA RESULT:      -6.6      0.000      0.000
REMARK  4 active torsions:
REMARK  status: ('A' for Active; 'I' for Inactive)
REMARK    1  A    between atoms: C_5  and  N_6 
REMARK       I    between atoms: N_6  and  C_7 
REMARK       I    between atoms: C_7  and  N_9 
REMARK    2  A    between atoms: N_9  and  C_10 
REMARK    3  A    between atoms: C_10  and  C_11 
REMARK    4  A    between atoms: C_11  and  C_12 
ROOT
HETATM    1  N   UNL     1     -43.629 -50.215  12.484  1.00  0.00    -0.338 N 
HETATM    2  C   UNL     1     -43.270 -48.894  12.487  1.00  0.00     0.316 C 
HETATM    3  O   UNL     1     -43.076 -48.236  13.500  1.00  0.00    -0.247 OA
HETATM    4  N   UNL     1     -43.188 -48.375  11.221  1.00  0.00    -0.343 N 
HETATM    5  H   UNL     1     -43.736 -50.683  11.599  1.00  0.00     0.164 HD
HETATM    6  H   UNL     1     -42.968 -49.018  10.478  1.00  0.00     0.164 HD
ENDROOT
BRANCH   1   7
HETATM    7  C   UNL     1     -43.728 -50.985  13.721  1.00  0.00     0.089 C 
HETATM    8  C   UNL     1     -42.376 -51.632  14.057  1.00  0.00     0.026 C 
HETATM    9  C   UNL     1     -42.035 -52.796  13.125  1.00  0.00     0.006 C 
HETATM   10  C   UNL     1     -43.145 -53.854  13.051  1.00  0.00    -0.018 C 
HETATM   11  C   UNL     1     -43.212 -54.692  14.333  1.00  0.00     0.010 C 
HETATM   12  C   UNL     1     -44.500 -53.207  12.725  1.00  0.00     0.010 C 
HETATM   13  C   UNL     1     -44.849 -52.045  13.670  1.00  0.00     0.004 C 
HETATM   14  C   UNL     1     -46.208 -51.439  13.314  1.00  0.00     0.012 C 
ENDBRANCH   1   7
BRANCH   4  15
HETATM   15  C   UNL     1     -42.834 -46.977  11.050  1.00  0.00     0.130 C 
BRANCH  15  16
HETATM   16  C   UNL     1     -43.388 -46.348   9.769  1.00  0.00     0.078 C 
BRANCH  16  17
HETATM   17  C   UNL     1     -44.527 -47.114   9.177  1.00  0.00     0.031 A 
HETATM   18  C   UNL     1     -45.850 -47.187   9.567  1.00  0.00     0.045 A 
HETATM   19  C   UNL     1     -46.455 -48.063   8.652  1.00  0.00     0.109 A 
HETATM   20  N   UNL     1     -45.591 -48.526   7.749  1.00  0.00    -0.310 N 
HETATM   21  N   UNL     1     -44.427 -47.932   8.077  1.00  0.00    -0.301 N 
ATOM     22  HN  UNL     1     -45.769 -49.179   6.985  1.00  0.00     0.186 HD
HETATM   23  C   UNL     1     -43.252 -48.211   7.284  1.00  0.00     0.177 C 
ENDBRANCH  16  17
ENDBRANCH  15  16
ENDBRANCH   4  15
TORSDOF 4
ENDMDL
MODEL 2
REMARK VINA RESULT:      -6.0      2.007      3.021
REMARK  4 active torsions:
REMARK  status: ('A' for Active; 'I' for Inactive)
REMARK    1  A    between atoms: C_5  and  N_6 
REMARK       I    between atoms: N_6  and  C_7 
REMARK       I    between atoms: C_7  and  N_9 
REMARK    2  A    between atoms: N_9  and  C_10 
REMARK    3  A    between atoms: C_10  and  C_11 
REMARK    4  A    between atoms: C_11  and  C_12 
ROOT
HETATM    1  N   UNL     1     -43.484 -50.701  12.709  1.00  0.00    -0.338 N 
HETATM    2  C   UNL     1     -42.255 -50.253  12.309  1.00  0.00     0.316 C 
HETATM    3  O   UNL     1     -41.193 -50.679  12.743  1.00  0.00    -0.247 OA
HETATM    4  N   UNL     1     -42.344 -49.240  11.391  1.00  0.00    -0.343 N 
HETATM    5  H   UNL     1     -44.304 -50.312  12.272  1.00  0.00     0.164 HD
HETATM    6  H   UNL     1     -43.167 -49.221  10.811  1.00  0.00     0.164 HD
ENDROOT
BRANCH   1   7
HETATM    7  C   UNL     1     -43.628 -51.812  13.646  1.00  0.00     0.089 C 
HETATM    8  C   UNL     1     -44.201 -53.044  12.929  1.00  0.00     0.026 C 
HETATM    9  C   UNL     1     -45.682 -52.885  12.583  1.00  0.00     0.006 C 
HETATM   10  C   UNL     1     -46.547 -52.503  13.791  1.00  0.00    -0.018 C 
HETATM   11  C   UNL     1     -46.735 -53.686  14.747  1.00  0.00     0.010 C 
HETATM   12  C   UNL     1     -45.970 -51.276  14.515  1.00  0.00     0.010 C 
HETATM   13  C   UNL     1     -44.484 -51.442  14.876  1.00  0.00     0.004 C 
HETATM   14  C   UNL     1     -43.955 -50.202  15.601  1.00  0.00     0.012 C 
ENDBRANCH   1   7
BRANCH   4  15
HETATM   15  C   UNL     1     -41.126 -48.639  10.876  1.00  0.00     0.130 C 
BRANCH  15  16
HETATM   16  C   UNL     1     -41.171 -47.111  10.799  1.00  0.00     0.078 C 
BRANCH  16  17
HETATM   17  C   UNL     1     -42.369 -46.588  10.077  1.00  0.00     0.031 A 
HETATM   18  C   UNL     1     -43.158 -47.183   9.112  1.00  0.00     0.045 A 
HETATM   19  C   UNL     1     -44.130 -46.224   8.789  1.00  0.00     0.109 A 
HETATM   20  N   UNL     1     -43.977 -45.096   9.482  1.00  0.00    -0.310 N 
HETATM   21  N   UNL     1     -42.909 -45.338  10.266  1.00  0.00    -0.301 N 
ATOM     22  HN  UNL     1     -44.539 -44.246   9.431  1.00  0.00     0.186 HD
HETATM   23  C   UNL     1     -42.459 -44.307  11.172  1.00  0.00     0.177 C 
ENDBRANCH  16  17
ENDBRANCH  15  16
ENDBRANCH   4  15
TORSDOF 4
ENDMDL
MODEL 3
REMARK VINA RESULT:      -5.9      3.376      5.683
REMARK  4 active torsions:
REMARK  status: ('A' for Active; 'I' for Inactive)
REMARK    1  A    between atoms: C_5  and  N_6 
REMARK       I    between atoms: N_6  and  C_7 
REMARK       I    between atoms: C_7  and  N_9 
REMARK    2  A    between atoms: N_9  and  C_10 
REMARK    3  A    between atoms: C_10  and  C_11 
REMARK    4  A    between atoms: C_11  and  C_12 
ROOT
HETATM    1  N   UNL     1     -43.482 -50.771  12.847  1.00  0.00    -0.338 N 
HETATM    2  C   UNL     1     -42.286 -50.721  12.184  1.00  0.00     0.316 C 
HETATM    3  O   UNL     1     -41.497 -51.653  12.117  1.00  0.00    -0.247 OA
HETATM    4  N   UNL     1     -42.048 -49.489  11.632  1.00  0.00    -0.343 N 
HETATM    5  H   UNL     1     -44.081 -49.962  12.821  1.00  0.00     0.164 HD
HETATM    6  H   UNL     1     -42.854 -48.937  11.385  1.00  0.00     0.164 HD
ENDROOT
BRANCH   1   7
HETATM    7  C   UNL     1     -43.962 -52.001  13.470  1.00  0.00     0.089 C 
HETATM    8  C   UNL     1     -45.259 -52.470  12.793  1.00  0.00     0.026 C 
HETATM    9  C   UNL     1     -46.457 -51.589  13.146  1.00  0.00     0.006 C 
HETATM   10  C   UNL     1     -46.659 -51.422  14.658  1.00  0.00    -0.018 C 
HETATM   11  C   UNL     1     -47.210 -52.700  15.298  1.00  0.00     0.010 C 
HETATM   12  C   UNL     1     -45.360 -50.960  15.338  1.00  0.00     0.010 C 
HETATM   13  C   UNL     1     -44.158 -51.855  14.994  1.00  0.00     0.004 C 
HETATM   14  C   UNL     1     -42.891 -51.365  15.699  1.00  0.00     0.012 C 
ENDBRANCH   1   7
BRANCH   4  15
HETATM   15  C   UNL     1     -40.810 -49.263  10.906  1.00  0.00     0.130 C 
BRANCH  15  16
HETATM   16  C   UNL     1     -39.710 -48.607  11.744  1.00  0.00     0.078 C 
BRANCH  16  17
HETATM   17  C   UNL     1     -38.725 -49.583  12.300  1.00  0.00     0.031 A 
HETATM   18  C   UNL     1     -37.658 -50.216  11.692  1.00  0.00     0.045 A 
HETATM   19  C   UNL     1     -37.095 -51.027  12.689  1.00  0.00     0.109 A 
HETATM   20  N   UNL     1     -37.750 -50.934  13.846  1.00  0.00    -0.310 N 
HETATM   21  N   UNL     1     -38.731 -50.045  13.594  1.00  0.00    -0.301 N 
ATOM     22  HN  UNL     1     -37.554 -51.422  14.721  1.00  0.00     0.186 HD
HETATM   23  C   UNL     1     -39.648 -49.697  14.655  1.00  0.00     0.177 C 
ENDBRANCH  16  17
ENDBRANCH  15  16
ENDBRANCH   4  15
TORSDOF 4
ENDMDL
MODEL 4
REMARK VINA RESULT:      -5.8      2.168      2.957
REMARK  4 active torsions:
REMARK  status: ('A' for Active; 'I' for Inactive)
REMARK    1  A    between atoms: C_5  and  N_6 
REMARK       I    between atoms: N_6  and  C_7 
REMARK       I    between atoms: C_7  and  N_9 
REMARK    2  A    between atoms: N_9  and  C_10 
REMARK    3  A    between atoms: C_10  and  C_11 
REMARK    4  A    between atoms: C_11  and  C_12 
ROOT
HETATM    1  N   UNL     1     -43.930 -50.903  12.864  1.00  0.00    -0.338 N 
HETATM    2  C   UNL     1     -43.142 -49.792  12.735  1.00  0.00     0.316 C 
HETATM    3  O   UNL     1     -43.244 -48.792  13.431  1.00  0.00    -0.247 OA
HETATM    4  N   UNL     1     -42.245 -49.909  11.705  1.00  0.00    -0.343 N 
HETATM    5  H   UNL     1     -43.752 -51.693  12.266  1.00  0.00     0.164 HD
HETATM    6  H   UNL     1     -41.952 -50.841  11.459  1.00  0.00     0.164 HD
ENDROOT
BRANCH   1   7
HETATM    7  C   UNL     1     -44.924 -51.018  13.928  1.00  0.00     0.089 C 
HETATM    8  C   UNL     1     -44.256 -51.472  15.235  1.00  0.00     0.026 C 
HETATM    9  C   UNL     1     -43.834 -52.941  15.199  1.00  0.00     0.006 C 
HETATM   10  C   UNL     1     -44.978 -53.888  14.811  1.00  0.00    -0.018 C 
HETATM   11  C   UNL     1     -45.993 -54.043  15.950  1.00  0.00     0.010 C 
HETATM   12  C   UNL     1     -45.654 -53.430  13.509  1.00  0.00     0.010 C 
HETATM   13  C   UNL     1     -46.090 -51.957  13.550  1.00  0.00     0.004 C 
HETATM   14  C   UNL     1     -46.764 -51.548  12.239  1.00  0.00     0.012 C 
ENDBRANCH   1   7
BRANCH   4  15
HETATM   15  C   UNL     1     -41.343 -48.806  11.422  1.00  0.00     0.130 C 
BRANCH  15  16
HETATM   16  C   UNL     1     -41.809 -47.901  10.279  1.00  0.00     0.078 C 
BRANCH  16  17
HETATM   17  C   UNL     1     -42.123 -46.507  10.716  1.00  0.00     0.031 A 
HETATM   18  C   UNL     1     -41.647 -45.782  11.790  1.00  0.00     0.045 A 
HETATM   19  C   UNL     1     -42.296 -44.539  11.712  1.00  0.00     0.109 A 
HETATM   20  N   UNL     1     -43.132 -44.471  10.676  1.00  0.00    -0.310 N 
HETATM   21  N   UNL     1     -43.007 -45.671  10.077  1.00  0.00    -0.301 N 
ATOM     22  HN  UNL     1     -43.728 -43.690  10.400  1.00  0.00     0.186 HD
HETATM   23  C   UNL     1     -43.785 -45.944   8.890  1.00  0.00     0.177 C 
ENDBRANCH  16  17
ENDBRANCH  15  16
ENDBRANCH   4  15
TORSDOF 4
ENDMDL
MODEL 5
REMARK VINA RESULT:      -5.6      3.412      4.460
REMARK  4 active torsions:
REMARK  status: ('A' for Active; 'I' for Inactive)
REMARK    1  A    between atoms: C_5  and  N_6 
REMARK       I    between atoms: N_6  and  C_7 
REMARK       I    between atoms: C_7  and  N_9 
REMARK    2  A    between atoms: N_9  and  C_10 
REMARK    3  A    between atoms: C_10  and  C_11 
REMARK    4  A    between atoms: C_11  and  C_12 
ROOT
HETATM    1  N   UNL     1     -43.249 -51.052  12.655  1.00  0.00    -0.338 N 
HETATM    2  C   UNL     1     -41.955 -50.910  12.232  1.00  0.00     0.316 C 
HETATM    3  O   UNL     1     -41.055 -51.696  12.494  1.00  0.00    -0.247 OA
HETATM    4  N   UNL     1     -41.768 -49.760  11.510  1.00  0.00    -0.343 N 
HETATM    5  H   UNL     1     -43.929 -50.369  12.364  1.00  0.00     0.164 HD
HETATM    6  H   UNL     1     -42.567 -49.397  11.016  1.00  0.00     0.164 HD
ENDROOT
BRANCH   1   7
HETATM    7  C   UNL     1     -43.687 -52.229  13.400  1.00  0.00     0.089 C 
HETATM    8  C   UNL     1     -44.793 -52.966  12.630  1.00  0.00     0.026 C 
HETATM    9  C   UNL     1     -46.124 -52.212  12.651  1.00  0.00     0.006 C 
HETATM   10  C   UNL     1     -46.590 -51.851  14.068  1.00  0.00    -0.018 C 
HETATM   11  C   UNL     1     -47.095 -53.083  14.828  1.00  0.00     0.010 C 
HETATM   12  C   UNL     1     -45.481 -51.122  14.843  1.00  0.00     0.010 C 
HETATM   13  C   UNL     1     -44.147 -51.886  14.833  1.00  0.00     0.004 C 
HETATM   14  C   UNL     1     -43.076 -51.130  15.622  1.00  0.00     0.012 C 
ENDBRANCH   1   7
BRANCH   4  15
HETATM   15  C   UNL     1     -40.444 -49.449  11.001  1.00  0.00     0.130 C 
BRANCH  15  16
HETATM   16  C   UNL     1     -39.669 -48.444  11.857  1.00  0.00     0.078 C 
BRANCH  16  17
HETATM   17  C   UNL     1     -40.189 -47.047  11.747  1.00  0.00     0.031 A 
HETATM   18  C   UNL     1     -39.977 -46.092  10.773  1.00  0.00     0.045 A 
HETATM   19  C   UNL     1     -40.703 -44.967  11.196  1.00  0.00     0.109 A 
HETATM   20  N   UNL     1     -41.327 -45.176  12.355  1.00  0.00    -0.310 N 
HETATM   21  N   UNL     1     -41.011 -46.447  12.671  1.00  0.00    -0.301 N 
ATOM     22  HN  UNL     1     -41.909 -44.524  12.882  1.00  0.00     0.186 HD
HETATM   23  C   UNL     1     -41.536 -47.016  13.891  1.00  0.00     0.177 C 
ENDBRANCH  16  17
ENDBRANCH  15  16
ENDBRANCH   4  15
TORSDOF 4
ENDMDL
MODEL 6
REMARK VINA RESULT:      -5.6      2.673      6.457
REMARK  4 active torsions:
REMARK  status: ('A' for Active; 'I' for Inactive)
REMARK    1  A    between atoms: C_5  and  N_6 
REMARK       I    between atoms: N_6  and  C_7 
REMARK       I    between atoms: C_7  and  N_9 
REMARK    2  A    between atoms: N_9  and  C_10 
REMARK    3  A    between atoms: C_10  and  C_11 
REMARK    4  A    between atoms: C_11  and  C_12 
ROOT
HETATM    1  N   UNL     1     -42.434 -50.690  12.066  1.00  0.00    -0.338 N 
HETATM    2  C   UNL     1     -42.739 -51.743  12.885  1.00  0.00     0.316 C 
HETATM    3  O   UNL     1     -42.538 -51.757  14.092  1.00  0.00    -0.247 OA
HETATM    4  N   UNL     1     -43.264 -52.804  12.194  1.00  0.00    -0.343 N 
HETATM    5  H   UNL     1     -42.666 -50.758  11.089  1.00  0.00     0.164 HD
HETATM    6  H   UNL     1     -43.752 -52.595  11.339  1.00  0.00     0.164 HD
ENDROOT
BRANCH   1   7
HETATM    7  C   UNL     1     -41.909 -49.435  12.595  1.00  0.00     0.089 C 
HETATM    8  C   UNL     1     -43.049 -48.426  12.803  1.00  0.00     0.026 C 
HETATM    9  C   UNL     1     -43.592 -47.873  11.484  1.00  0.00     0.006 C 
HETATM   10  C   UNL     1     -42.499 -47.286  10.581  1.00  0.00    -0.018 C 
HETATM   11  C   UNL     1     -41.987 -45.944  11.115  1.00  0.00     0.010 C 
HETATM   12  C   UNL     1     -41.353 -48.291  10.379  1.00  0.00     0.010 C 
HETATM   13  C   UNL     1     -40.799 -48.836  11.706  1.00  0.00     0.004 C 
HETATM   14  C   UNL     1     -39.657 -49.823  11.457  1.00  0.00     0.012 C 
ENDBRANCH   1   7
BRANCH   4  15
HETATM   15  C   UNL     1     -43.626 -54.012  12.916  1.00  0.00     0.130 C 
BRANCH  15  16
HETATM   16  C   UNL     1     -45.135 -54.208  13.081  1.00  0.00     0.078 C 
BRANCH  16  17
HETATM   17  C   UNL     1     -45.765 -53.217  14.004  1.00  0.00     0.031 A 
HETATM   18  C   UNL     1     -45.818 -53.194  15.384  1.00  0.00     0.045 A 
HETATM   19  C   UNL     1     -46.546 -52.037  15.705  1.00  0.00     0.109 A 
HETATM   20  N   UNL     1     -46.939 -51.370  14.620  1.00  0.00    -0.310 N 
HETATM   21  N   UNL     1     -46.448 -52.096  13.596  1.00  0.00    -0.301 N 
ATOM     22  HN  UNL     1     -47.486 -50.510  14.574  1.00  0.00     0.186 HD
HETATM   23  C   UNL     1     -46.688 -51.648  12.244  1.00  0.00     0.177 C 
ENDBRANCH  16  17
ENDBRANCH  15  16
ENDBRANCH   4  15
TORSDOF 4
ENDMDL
MODEL 7
REMARK VINA RESULT:      -5.6      4.901      7.077
REMARK  4 active torsions:
REMARK  status: ('A' for Active; 'I' for Inactive)
REMARK    1  A    between atoms: C_5  and  N_6 
REMARK       I    between atoms: N_6  and  C_7 
REMARK       I    between atoms: C_7  and  N_9 
REMARK    2  A    between atoms: N_9  and  C_10 
REMARK    3  A    between atoms: C_10  and  C_11 
REMARK    4  A    between atoms: C_11  and  C_12 
ROOT
HETATM    1  N   UNL     1     -44.269 -53.563  15.469  1.00  0.00    -0.338 N 
HETATM    2  C   UNL     1     -43.352 -54.572  15.585  1.00  0.00     0.316 C 
HETATM    3  O   UNL     1     -43.536 -55.717  15.195  1.00  0.00    -0.247 OA
HETATM    4  N   UNL     1     -42.211 -54.166  16.226  1.00  0.00    -0.343 N 
HETATM    5  H   UNL     1     -44.017 -52.644  15.791  1.00  0.00     0.164 HD
HETATM    6  H   UNL     1     -41.971 -53.191  16.155  1.00  0.00     0.164 HD
ENDROOT
BRANCH   1   7
HETATM    7  C   UNL     1     -45.540 -53.758  14.775  1.00  0.00     0.089 C 
HETATM    8  C   UNL     1     -45.297 -54.021  13.281  1.00  0.00     0.026 C 
HETATM    9  C   UNL     1     -44.851 -52.766  12.530  1.00  0.00     0.006 C 
HETATM   10  C   UNL     1     -45.798 -51.575  12.728  1.00  0.00    -0.018 C 
HETATM   11  C   UNL     1     -47.110 -51.763  11.958  1.00  0.00     0.010 C 
HETATM   12  C   UNL     1     -46.049 -51.316  14.223  1.00  0.00     0.010 C 
HETATM   13  C   UNL     1     -46.511 -52.575  14.976  1.00  0.00     0.004 C 
HETATM   14  C   UNL     1     -46.757 -52.269  16.454  1.00  0.00     0.012 C 
ENDBRANCH   1   7
BRANCH   4  15
HETATM   15  C   UNL     1     -41.142 -55.125  16.446  1.00  0.00     0.130 C 
BRANCH  15  16
HETATM   16  C   UNL     1     -39.964 -54.973  15.481  1.00  0.00     0.078 C 
BRANCH  16  17
HETATM   17  C   UNL     1     -40.228 -54.012  14.368  1.00  0.00     0.031 A 
HETATM   18  C   UNL     1     -40.850 -54.207  13.151  1.00  0.00     0.045 A 
HETATM   19  C   UNL     1     -40.804 -52.959  12.510  1.00  0.00     0.109 A 
HETATM   20  N   UNL     1     -40.192 -52.034  13.249  1.00  0.00    -0.310 N 
HETATM   21  N   UNL     1     -39.857 -52.688  14.378  1.00  0.00    -0.301 N 
ATOM     22  HN  UNL     1     -40.018 -51.056  13.014  1.00  0.00     0.186 HD
HETATM   23  C   UNL     1     -39.169 -51.968  15.425  1.00  0.00     0.177 C 
ENDBRANCH  16  17
ENDBRANCH  15  16
ENDBRANCH   4  15
TORSDOF 4
ENDMDL
MODEL 8
REMARK VINA RESULT:      -5.6      4.688      7.184
REMARK  4 active torsions:
REMARK  status: ('A' for Active; 'I' for Inactive)
REMARK    1  A    between atoms: C_5  and  N_6 
REMARK       I    between atoms: N_6  and  C_7 
REMARK       I    between atoms: C_7  and  N_9 
REMARK    2  A    between atoms: N_9  and  C_10 
REMARK    3  A    between atoms: C_10  and  C_11 
REMARK    4  A    between atoms: C_11  and  C_12 
ROOT
HETATM    1  N   UNL     1     -39.661 -51.149  14.069  1.00  0.00    -0.338 N 
HETATM    2  C   UNL     1     -40.169 -52.328  13.596  1.00  0.00     0.316 C 
HETATM    3  O   UNL     1     -39.486 -53.285  13.258  1.00  0.00    -0.247 OA
HETATM    4  N   UNL     1     -41.536 -52.305  13.502  1.00  0.00    -0.343 N 
HETATM    5  H   UNL     1     -40.303 -50.427  14.352  1.00  0.00     0.164 HD
HETATM    6  H   UNL     1     -42.026 -51.693  14.135  1.00  0.00     0.164 HD
ENDROOT
BRANCH   1   7
HETATM    7  C   UNL     1     -38.230 -50.967  14.296  1.00  0.00     0.089 C 
HETATM    8  C   UNL     1     -37.947 -50.781  15.795  1.00  0.00     0.026 C 
HETATM    9  C   UNL     1     -38.404 -49.417  16.313  1.00  0.00     0.006 C 
HETATM   10  C   UNL     1     -37.842 -48.243  15.499  1.00  0.00    -0.018 C 
HETATM   11  C   UNL     1     -36.350 -48.026  15.779  1.00  0.00     0.010 C 
HETATM   12  C   UNL     1     -38.116 -48.432  13.998  1.00  0.00     0.010 C 
HETATM   13  C   UNL     1     -37.643 -49.799  13.475  1.00  0.00     0.004 C 
HETATM   14  C   UNL     1     -37.928 -49.940  11.978  1.00  0.00     0.012 C 
ENDBRANCH   1   7
BRANCH   4  15
HETATM   15  C   UNL     1     -42.233 -53.475  12.999  1.00  0.00     0.130 C 
BRANCH  15  16
HETATM   16  C   UNL     1     -43.587 -53.164  12.357  1.00  0.00     0.078 C 
BRANCH  16  17
HETATM   17  C   UNL     1     -44.750 -53.642  13.162  1.00  0.00     0.031 A 
HETATM   18  C   UNL     1     -44.892 -54.777  13.936  1.00  0.00     0.045 A 
HETATM   19  C   UNL     1     -46.197 -54.713  14.448  1.00  0.00     0.109 A 
HETATM   20  N   UNL     1     -46.851 -53.629  14.032  1.00  0.00    -0.310 N 
HETATM   21  N   UNL     1     -45.954 -52.985  13.259  1.00  0.00    -0.301 N 
ATOM     22  HN  UNL     1     -47.808 -53.350  14.247  1.00  0.00     0.186 HD
HETATM   23  C   UNL     1     -46.335 -51.738  12.636  1.00  0.00     0.177 C 
ENDBRANCH  16  17
ENDBRANCH  15  16
ENDBRANCH   4  15
TORSDOF 4
ENDMDL
MODEL 9
REMARK VINA RESULT:      -5.5      2.538      4.167
REMARK  4 active torsions:
REMARK  status: ('A' for Active; 'I' for Inactive)
REMARK    1  A    between atoms: C_5  and  N_6 
REMARK       I    between atoms: N_6  and  C_7 
REMARK       I    between atoms: C_7  and  N_9 
REMARK    2  A    between atoms: N_9  and  C_10 
REMARK    3  A    between atoms: C_10  and  C_11 
REMARK    4  A    between atoms: C_11  and  C_12 
ROOT
HETATM    1  N   UNL     1     -43.462 -50.547  12.492  1.00  0.00    -0.338 N 
HETATM    2  C   UNL     1     -43.014 -49.254  12.499  1.00  0.00     0.316 C 
HETATM    3  O   UNL     1     -43.005 -48.534  13.488  1.00  0.00    -0.247 OA
HETATM    4  N   UNL     1     -42.610 -48.837  11.257  1.00  0.00    -0.343 N 
HETATM    5  H   UNL     1     -43.401 -51.073  11.636  1.00  0.00     0.164 HD
HETATM    6  H   UNL     1     -42.277 -49.546  10.624  1.00  0.00     0.164 HD
ENDROOT
BRANCH   1   7
HETATM    7  C   UNL     1     -43.895 -51.214  13.716  1.00  0.00     0.089 C 
HETATM    8  C   UNL     1     -42.706 -51.914  14.392  1.00  0.00     0.026 C 
HETATM    9  C   UNL     1     -42.254 -53.163  13.635  1.00  0.00     0.006 C 
HETATM   10  C   UNL     1     -43.394 -54.155  13.371  1.00  0.00    -0.018 C 
HETATM   11  C   UNL     1     -43.812 -54.889  14.650  1.00  0.00     0.010 C 
HETATM   12  C   UNL     1     -44.589 -53.455  12.703  1.00  0.00     0.010 C 
HETATM   13  C   UNL     1     -45.052 -52.206  13.472  1.00  0.00     0.004 C 
HETATM   14  C   UNL     1     -46.246 -51.548  12.777  1.00  0.00     0.012 C 
ENDBRANCH   1   7
BRANCH   4  15
HETATM   15  C   UNL     1     -42.122 -47.479  11.088  1.00  0.00     0.130 C 
BRANCH  15  16
HETATM   16  C   UNL     1     -40.597 -47.371  11.021  1.00  0.00     0.078 C 
BRANCH  16  17
HETATM   17  C   UNL     1     -40.020 -46.461  12.055  1.00  0.00     0.031 A 
HETATM   18  C   UNL     1     -39.670 -46.713  13.367  1.00  0.00     0.045 A 
HETATM   19  C   UNL     1     -39.191 -45.489  13.861  1.00  0.00     0.109 A 
HETATM   20  N   UNL     1     -39.236 -44.522  12.945  1.00  0.00    -0.310 N 
HETATM   21  N   UNL     1     -39.733 -45.133  11.852  1.00  0.00    -0.301 N 
ATOM     22  HN  UNL     1     -38.959 -43.545  13.048  1.00  0.00     0.186 HD
HETATM   23  C   UNL     1     -39.913 -44.362  10.642  1.00  0.00     0.177 C 
ENDBRANCH  16  17
ENDBRANCH  15  16
ENDBRANCH   4  15
TORSDOF 4
ENDMDL
