MODEL 1
REMARK VINA RESULT:      -6.2      0.000      0.000
REMARK  5 active torsions:
REMARK  status: ('A' for Active; 'I' for Inactive)
REMARK       I    between atoms: C_2  and  N_3 
REMARK       I    between atoms: C_2  and  N_11 
REMARK    1  A    between atoms: N_3  and  C_4 
REMARK    2  A    between atoms: C_4  and  C_5 
REMARK    3  A    between atoms: C_5  and  N_6 
REMARK    4  A    between atoms: N_11  and  C_12 
REMARK    5  A    between atoms: C_18  and  N_19 
ROOT
HETATM    1  O   UNL     1     -40.311 -49.795  11.490  1.00  0.00    -0.247 OA
HETATM    2  C   UNL     1     -41.381 -49.232  11.271  1.00  0.00     0.320 C 
HETATM    3  N   UNL     1     -42.505 -49.465  12.011  1.00  0.00    -0.341 N 
HETATM    4  N   UNL     1     -41.509 -48.386  10.206  1.00  0.00    -0.306 N 
HETATM    5  H   UNL     1     -43.341 -49.471  11.449  1.00  0.00     0.164 HD
HETATM    6  H   UNL     1     -40.742 -48.450   9.542  1.00  0.00     0.171 HD
ENDROOT
BRANCH   4   7
HETATM    7  C   UNL     1     -42.506 -47.446   9.842  1.00  0.00     0.075 A 
HETATM    8  C   UNL     1     -43.605 -47.769   9.042  1.00  0.00     0.034 A 
HETATM    9  C   UNL     1     -44.505 -46.781   8.659  1.00  0.00     0.019 A 
HETATM   10  C   UNL     1     -44.296 -45.499   9.119  1.00  0.00     0.089 A 
HETATM   11  N   UNL     1     -43.286 -45.156   9.942  1.00  0.00    -0.355 N 
HETATM   12  C   UNL     1     -42.407 -46.114  10.324  1.00  0.00     0.109 A 
ATOM     13  HN  UNL     1     -43.185 -44.196  10.272  1.00  0.00     0.166 HD
BRANCH  12  14
HETATM   14  N   UNL     1     -41.398 -45.774  11.256  1.00  0.00    -0.267 NA
HETATM   15  C   UNL     1     -40.244 -45.070  10.660  1.00  0.00     0.097 C 
HETATM   16  C   UNL     1     -39.717 -44.207  11.800  1.00  0.00     0.016 C 
HETATM   17  C   UNL     1     -41.006 -43.714  12.430  1.00  0.00     0.016 C 
HETATM   18  C   UNL     1     -41.933 -44.929  12.350  1.00  0.00     0.097 C 
ENDBRANCH  12  14
ENDBRANCH   4   7
BRANCH   3  19
HETATM   19  C   UNL     1     -42.512 -50.364  13.147  1.00  0.00     0.154 C 
BRANCH  19  20
HETATM   20  C   UNL     1     -43.108 -51.764  12.877  1.00  0.00     0.292 C 
BRANCH  20  21
HETATM   21  N   UNL     1     -44.402 -52.091  13.507  1.00  0.00     0.090 N 
HETATM   22  C   UNL     1     -45.424 -52.411  12.495  1.00  0.00     0.272 C 
HETATM   23  C   UNL     1     -46.736 -51.824  13.003  1.00  0.00     0.032 C 
HETATM   24  C   UNL     1     -46.435 -51.398  14.426  1.00  0.00     0.032 C 
HETATM   25  C   UNL     1     -44.957 -51.053  14.373  1.00  0.00     0.272 C 
ENDBRANCH  20  21
ENDBRANCH  19  20
ENDBRANCH   3  19
TORSDOF 5
ENDMDL
MODEL 2
REMARK VINA RESULT:      -6.1      1.256      1.612
REMARK  5 active torsions:
REMARK  status: ('A' for Active; 'I' for Inactive)
REMARK       I    between atoms: C_2  and  N_3 
REMARK       I    between atoms: C_2  and  N_11 
REMARK    1  A    between atoms: N_3  and  C_4 
REMARK    2  A    between atoms: C_4  and  C_5 
REMARK    3  A    between atoms: C_5  and  N_6 
REMARK    4  A    between atoms: N_11  and  C_12 
REMARK    5  A    between atoms: C_18  and  N_19 
ROOT
HETATM    1  O   UNL     1     -40.143 -49.812  11.278  1.00  0.00    -0.247 OA
HETATM    2  C   UNL     1     -41.239 -49.290  11.089  1.00  0.00     0.320 C 
HETATM    3  N   UNL     1     -42.348 -49.612  11.817  1.00  0.00    -0.341 N 
HETATM    4  N   UNL     1     -41.409 -48.399  10.068  1.00  0.00    -0.306 N 
HETATM    5  H   UNL     1     -43.185 -49.629  11.256  1.00  0.00     0.164 HD
HETATM    6  H   UNL     1     -40.642 -48.393   9.401  1.00  0.00     0.171 HD
ENDROOT
BRANCH   4   7
HETATM    7  C   UNL     1     -42.450 -47.489   9.752  1.00  0.00     0.075 A 
HETATM    8  C   UNL     1     -43.515 -47.810   8.906  1.00  0.00     0.034 A 
HETATM    9  C   UNL     1     -44.461 -46.846   8.577  1.00  0.00     0.019 A 
HETATM   10  C   UNL     1     -44.333 -45.593   9.135  1.00  0.00     0.089 A 
HETATM   11  N   UNL     1     -43.359 -45.258  10.005  1.00  0.00    -0.355 N 
HETATM   12  C   UNL     1     -42.435 -46.194  10.333  1.00  0.00     0.109 A 
ATOM     13  HN  UNL     1     -43.318 -44.322  10.406  1.00  0.00     0.166 HD
BRANCH  12  14
HETATM   14  N   UNL     1     -41.464 -45.870  11.311  1.00  0.00    -0.267 NA
HETATM   15  C   UNL     1     -40.329 -45.081  10.790  1.00  0.00     0.097 C 
HETATM   16  C   UNL     1     -39.868 -44.270  11.995  1.00  0.00     0.016 C 
HETATM   17  C   UNL     1     -41.191 -43.875  12.622  1.00  0.00     0.016 C 
HETATM   18  C   UNL     1     -42.061 -45.122  12.442  1.00  0.00     0.097 C 
ENDBRANCH  12  14
ENDBRANCH   4   7
BRANCH   3  19
HETATM   19  C   UNL     1     -42.309 -50.567  12.906  1.00  0.00     0.154 C 
BRANCH  19  20
HETATM   20  C   UNL     1     -42.617 -52.030  12.513  1.00  0.00     0.292 C 
BRANCH  20  21
HETATM   21  N   UNL     1     -43.596 -52.768  13.333  1.00  0.00     0.090 N 
HETATM   22  C   UNL     1     -42.925 -53.594  14.352  1.00  0.00     0.272 C 
HETATM   23  C   UNL     1     -43.726 -54.887  14.459  1.00  0.00     0.032 C 
HETATM   24  C   UNL     1     -44.979 -54.624  13.648  1.00  0.00     0.032 C 
HETATM   25  C   UNL     1     -44.503 -53.642  12.592  1.00  0.00     0.272 C 
ENDBRANCH  20  21
ENDBRANCH  19  20
ENDBRANCH   3  19
TORSDOF 5
ENDMDL
MODEL 3
REMARK VINA RESULT:      -6.0      2.577      3.719
REMARK  5 active torsions:
REMARK  status: ('A' for Active; 'I' for Inactive)
REMARK       I    between atoms: C_2  and  N_3 
REMARK       I    between atoms: C_2  and  N_11 
REMARK    1  A    between atoms: N_3  and  C_4 
REMARK    2  A    between atoms: C_4  and  C_5 
REMARK    3  A    between atoms: C_5  and  N_6 
REMARK    4  A    between atoms: N_11  and  C_12 
REMARK    5  A    between atoms: C_18  and  N_19 
ROOT
HETATM    1  O   UNL     1     -40.687 -52.970  11.799  1.00  0.00    -0.247 OA
HETATM    2  C   UNL     1     -41.151 -51.836  11.891  1.00  0.00     0.320 C 
HETATM    3  N   UNL     1     -42.316 -51.565  12.551  1.00  0.00    -0.341 N 
HETATM    4  N   UNL     1     -40.543 -50.790  11.259  1.00  0.00    -0.306 N 
HETATM    5  H   UNL     1     -42.864 -50.857  12.089  1.00  0.00     0.164 HD
HETATM    6  H   UNL     1     -39.848 -51.076  10.575  1.00  0.00     0.171 HD
ENDROOT
BRANCH   4   7
HETATM    7  C   UNL     1     -40.698 -49.384  11.363  1.00  0.00     0.075 A 
HETATM    8  C   UNL     1     -41.573 -48.650  10.558  1.00  0.00     0.034 A 
HETATM    9  C   UNL     1     -41.621 -47.265  10.659  1.00  0.00     0.019 A 
HETATM   10  C   UNL     1     -40.813 -46.654  11.594  1.00  0.00     0.089 A 
HETATM   11  N   UNL     1     -40.002 -47.327  12.434  1.00  0.00    -0.355 N 
HETATM   12  C   UNL     1     -39.953 -48.678  12.344  1.00  0.00     0.109 A 
ATOM     13  HN  UNL     1     -39.437 -46.830  13.123  1.00  0.00     0.166 HD
BRANCH  12  14
HETATM   14  N   UNL     1     -39.168 -49.390  13.282  1.00  0.00    -0.267 NA
HETATM   15  C   UNL     1     -37.821 -48.820  13.492  1.00  0.00     0.097 C 
HETATM   16  C   UNL     1     -37.482 -49.209  14.926  1.00  0.00     0.016 C 
HETATM   17  C   UNL     1     -38.811 -48.989  15.624  1.00  0.00     0.016 C 
HETATM   18  C   UNL     1     -39.840 -49.473  14.600  1.00  0.00     0.097 C 
ENDBRANCH  12  14
ENDBRANCH   4   7
BRANCH   3  19
HETATM   19  C   UNL     1     -43.075 -52.591  13.236  1.00  0.00     0.154 C 
BRANCH  19  20
HETATM   20  C   UNL     1     -44.286 -53.149  12.453  1.00  0.00     0.292 C 
BRANCH  20  21
HETATM   21  N   UNL     1     -45.622 -52.997  13.060  1.00  0.00     0.090 N 
HETATM   22  C   UNL     1     -46.030 -51.582  13.106  1.00  0.00     0.272 C 
HETATM   23  C   UNL     1     -46.778 -51.388  14.421  1.00  0.00     0.032 C 
HETATM   24  C   UNL     1     -46.969 -52.792  14.958  1.00  0.00     0.032 C 
HETATM   25  C   UNL     1     -45.762 -53.534  14.412  1.00  0.00     0.272 C 
ENDBRANCH  20  21
ENDBRANCH  19  20
ENDBRANCH   3  19
TORSDOF 5
ENDMDL
MODEL 4
REMARK VINA RESULT:      -5.9      2.284      3.891
REMARK  5 active torsions:
REMARK  status: ('A' for Active; 'I' for Inactive)
REMARK       I    between atoms: C_2  and  N_3 
REMARK       I    between atoms: C_2  and  N_11 
REMARK    1  A    between atoms: N_3  and  C_4 
REMARK    2  A    between atoms: C_4  and  C_5 
REMARK    3  A    between atoms: C_5  and  N_6 
REMARK    4  A    between atoms: N_11  and  C_12 
REMARK    5  A    between atoms: C_18  and  N_19 
ROOT
HETATM    1  O   UNL     1     -43.147 -49.206  14.016  1.00  0.00    -0.247 OA
HETATM    2  C   UNL     1     -43.015 -49.020  12.809  1.00  0.00     0.320 C 
HETATM    3  N   UNL     1     -42.537 -49.979  11.961  1.00  0.00    -0.341 N 
HETATM    4  N   UNL     1     -43.278 -47.794  12.268  1.00  0.00    -0.306 N 
HETATM    5  H   UNL     1     -41.940 -49.596  11.245  1.00  0.00     0.164 HD
HETATM    6  H   UNL     1     -43.369 -47.056  12.960  1.00  0.00     0.171 HD
ENDROOT
BRANCH   4   7
HETATM    7  C   UNL     1     -43.437 -47.350  10.930  1.00  0.00     0.075 A 
HETATM    8  C   UNL     1     -44.475 -47.782  10.100  1.00  0.00     0.034 A 
HETATM    9  C   UNL     1     -44.529 -47.367   8.775  1.00  0.00     0.019 A 
HETATM   10  C   UNL     1     -43.558 -46.498   8.327  1.00  0.00     0.089 A 
HETATM   11  N   UNL     1     -42.576 -46.007   9.109  1.00  0.00    -0.355 N 
HETATM   12  C   UNL     1     -42.519 -46.404  10.403  1.00  0.00     0.109 A 
ATOM     13  HN  UNL     1     -41.892 -45.350   8.735  1.00  0.00     0.166 HD
BRANCH  12  14
HETATM   14  N   UNL     1     -41.542 -45.823  11.246  1.00  0.00    -0.267 NA
HETATM   15  C   UNL     1     -40.158 -45.974  10.752  1.00  0.00     0.097 C 
HETATM   16  C   UNL     1     -39.437 -44.756  11.316  1.00  0.00     0.016 C 
HETATM   17  C   UNL     1     -40.480 -43.670  11.131  1.00  0.00     0.016 C 
HETATM   18  C   UNL     1     -41.798 -44.379  11.457  1.00  0.00     0.097 C 
ENDBRANCH  12  14
ENDBRANCH   4   7
BRANCH   3  19
HETATM   19  C   UNL     1     -42.190 -51.310  12.414  1.00  0.00     0.154 C 
BRANCH  19  20
HETATM   20  C   UNL     1     -40.715 -51.718  12.197  1.00  0.00     0.292 C 
BRANCH  20  21
HETATM   21  N   UNL     1     -39.671 -50.814  12.717  1.00  0.00     0.090 N 
HETATM   22  C   UNL     1     -39.058 -50.028  11.633  1.00  0.00     0.272 C 
HETATM   23  C   UNL     1     -37.574 -49.912  11.967  1.00  0.00     0.032 C 
HETATM   24  C   UNL     1     -37.461 -50.448  13.380  1.00  0.00     0.032 C 
HETATM   25  C   UNL     1     -38.587 -51.464  13.451  1.00  0.00     0.272 C 
ENDBRANCH  20  21
ENDBRANCH  19  20
ENDBRANCH   3  19
TORSDOF 5
ENDMDL
MODEL 5
REMARK VINA RESULT:      -5.7      2.526      4.541
REMARK  5 active torsions:
REMARK  status: ('A' for Active; 'I' for Inactive)
REMARK       I    between atoms: C_2  and  N_3 
REMARK       I    between atoms: C_2  and  N_11 
REMARK    1  A    between atoms: N_3  and  C_4 
REMARK    2  A    between atoms: C_4  and  C_5 
REMARK    3  A    between atoms: C_5  and  N_6 
REMARK    4  A    between atoms: N_11  and  C_12 
REMARK    5  A    between atoms: C_18  and  N_19 
ROOT
HETATM    1  O   UNL     1     -42.354 -50.733  15.180  1.00  0.00    -0.247 OA
HETATM    2  C   UNL     1     -41.500 -51.029  14.348  1.00  0.00     0.320 C 
HETATM    3  N   UNL     1     -41.565 -52.164  13.592  1.00  0.00    -0.341 N 
HETATM    4  N   UNL     1     -40.387 -50.252  14.198  1.00  0.00    -0.306 N 
HETATM    5  H   UNL     1     -40.661 -52.586  13.452  1.00  0.00     0.164 HD
HETATM    6  H   UNL     1     -40.254 -49.582  14.951  1.00  0.00     0.171 HD
ENDROOT
BRANCH   4   7
HETATM    7  C   UNL     1     -39.377 -50.204  13.203  1.00  0.00     0.075 A 
HETATM    8  C   UNL     1     -38.290 -51.082  13.175  1.00  0.00     0.034 A 
HETATM    9  C   UNL     1     -37.295 -50.931  12.216  1.00  0.00     0.019 A 
HETATM   10  C   UNL     1     -37.436 -49.923  11.287  1.00  0.00     0.089 A 
HETATM   11  N   UNL     1     -38.498 -49.096  11.238  1.00  0.00    -0.355 N 
HETATM   12  C   UNL     1     -39.474 -49.239  12.167  1.00  0.00     0.109 A 
ATOM     13  HN  UNL     1     -38.566 -48.377  10.517  1.00  0.00     0.166 HD
BRANCH  12  14
HETATM   14  N   UNL     1     -40.630 -48.428  12.064  1.00  0.00    -0.267 NA
HETATM   15  C   UNL     1     -40.359 -47.057  11.583  1.00  0.00     0.097 C 
HETATM   16  C   UNL     1     -41.650 -46.658  10.880  1.00  0.00     0.016 C 
HETATM   17  C   UNL     1     -42.018 -47.943  10.163  1.00  0.00     0.016 C 
HETATM   18  C   UNL     1     -41.641 -49.035  11.167  1.00  0.00     0.097 C 
ENDBRANCH  12  14
ENDBRANCH   4   7
BRANCH   3  19
HETATM   19  C   UNL     1     -42.677 -53.089  13.680  1.00  0.00     0.154 C 
BRANCH  19  20
HETATM   20  C   UNL     1     -43.685 -53.024  12.509  1.00  0.00     0.292 C 
BRANCH  20  21
HETATM   21  N   UNL     1     -45.099 -52.761  12.837  1.00  0.00     0.090 N 
HETATM   22  C   UNL     1     -45.296 -51.367  13.272  1.00  0.00     0.272 C 
HETATM   23  C   UNL     1     -46.336 -51.403  14.387  1.00  0.00     0.032 C 
HETATM   24  C   UNL     1     -46.865 -52.822  14.365  1.00  0.00     0.032 C 
HETATM   25  C   UNL     1     -45.675 -53.623  13.866  1.00  0.00     0.272 C 
ENDBRANCH  20  21
ENDBRANCH  19  20
ENDBRANCH   3  19
TORSDOF 5
ENDMDL
MODEL 6
REMARK VINA RESULT:      -5.6      2.562      7.555
REMARK  5 active torsions:
REMARK  status: ('A' for Active; 'I' for Inactive)
REMARK       I    between atoms: C_2  and  N_3 
REMARK       I    between atoms: C_2  and  N_11 
REMARK    1  A    between atoms: N_3  and  C_4 
REMARK    2  A    between atoms: C_4  and  C_5 
REMARK    3  A    between atoms: C_5  and  N_6 
REMARK    4  A    between atoms: N_11  and  C_12 
REMARK    5  A    between atoms: C_18  and  N_19 
ROOT
HETATM    1  O   UNL     1     -41.701 -48.938  11.077  1.00  0.00    -0.247 OA
HETATM    2  C   UNL     1     -41.374 -49.837  11.848  1.00  0.00     0.320 C 
HETATM    3  N   UNL     1     -40.401 -49.684  12.793  1.00  0.00    -0.341 N 
HETATM    4  N   UNL     1     -41.935 -51.077  11.736  1.00  0.00    -0.306 N 
HETATM    5  H   UNL     1     -39.838 -50.513  12.904  1.00  0.00     0.164 HD
HETATM    6  H   UNL     1     -42.445 -51.216  10.868  1.00  0.00     0.171 HD
ENDROOT
BRANCH   4   7
HETATM    7  C   UNL     1     -41.937 -52.210  12.590  1.00  0.00     0.075 A 
HETATM    8  C   UNL     1     -40.808 -53.005  12.806  1.00  0.00     0.034 A 
HETATM    9  C   UNL     1     -40.898 -54.146  13.594  1.00  0.00     0.019 A 
HETATM   10  C   UNL     1     -42.112 -54.440  14.175  1.00  0.00     0.089 A 
HETATM   11  N   UNL     1     -43.209 -53.668  14.045  1.00  0.00    -0.355 N 
HETATM   12  C   UNL     1     -43.128 -52.551  13.281  1.00  0.00     0.109 A 
ATOM     13  HN  UNL     1     -44.081 -53.918  14.511  1.00  0.00     0.166 HD
BRANCH  12  14
HETATM   14  N   UNL     1     -44.253 -51.695  13.214  1.00  0.00    -0.267 NA
HETATM   15  C   UNL     1     -45.498 -52.373  12.796  1.00  0.00     0.097 C 
HETATM   16  C   UNL     1     -46.597 -51.559  13.468  1.00  0.00     0.016 C 
HETATM   17  C   UNL     1     -45.985 -51.285  14.829  1.00  0.00     0.016 C 
HETATM   18  C   UNL     1     -44.508 -51.032  14.515  1.00  0.00     0.097 C 
ENDBRANCH  12  14
ENDBRANCH   4   7
BRANCH   3  19
HETATM   19  C   UNL     1     -39.705 -48.429  12.992  1.00  0.00     0.154 C 
BRANCH  19  20
HETATM   20  C   UNL     1     -40.424 -47.414  13.910  1.00  0.00     0.292 C 
BRANCH  20  21
HETATM   21  N   UNL     1     -40.289 -45.981  13.585  1.00  0.00     0.090 N 
HETATM   22  C   UNL     1     -40.640 -45.717  12.178  1.00  0.00     0.272 C 
HETATM   23  C   UNL     1     -39.675 -44.645  11.683  1.00  0.00     0.032 C 
HETATM   24  C   UNL     1     -38.962 -44.171  12.933  1.00  0.00     0.032 C 
HETATM   25  C   UNL     1     -38.966 -45.406  13.818  1.00  0.00     0.272 C 
ENDBRANCH  20  21
ENDBRANCH  19  20
ENDBRANCH   3  19
TORSDOF 5
ENDMDL
MODEL 7
REMARK VINA RESULT:      -5.6      2.410      4.310
REMARK  5 active torsions:
REMARK  status: ('A' for Active; 'I' for Inactive)
REMARK       I    between atoms: C_2  and  N_3 
REMARK       I    between atoms: C_2  and  N_11 
REMARK    1  A    between atoms: N_3  and  C_4 
REMARK    2  A    between atoms: C_4  and  C_5 
REMARK    3  A    between atoms: C_5  and  N_6 
REMARK    4  A    between atoms: N_11  and  C_12 
REMARK    5  A    between atoms: C_18  and  N_19 
ROOT
HETATM    1  O   UNL     1     -40.692 -53.265  11.809  1.00  0.00    -0.247 OA
HETATM    2  C   UNL     1     -40.619 -52.214  12.441  1.00  0.00     0.320 C 
HETATM    3  N   UNL     1     -41.265 -52.016  13.628  1.00  0.00    -0.341 N 
HETATM    4  N   UNL     1     -39.929 -51.150  11.932  1.00  0.00    -0.306 N 
HETATM    5  H   UNL     1     -41.627 -51.080  13.718  1.00  0.00     0.164 HD
HETATM    6  H   UNL     1     -39.695 -51.251  10.948  1.00  0.00     0.171 HD
ENDROOT
BRANCH   4   7
HETATM    7  C   UNL     1     -39.485 -49.931  12.504  1.00  0.00     0.075 A 
HETATM    8  C   UNL     1     -38.228 -49.778  13.096  1.00  0.00     0.034 A 
HETATM    9  C   UNL     1     -37.885 -48.578  13.707  1.00  0.00     0.019 A 
HETATM   10  C   UNL     1     -38.802 -47.549  13.677  1.00  0.00     0.089 A 
HETATM   11  N   UNL     1     -39.998 -47.632  13.063  1.00  0.00    -0.355 N 
HETATM   12  C   UNL     1     -40.338 -48.798  12.462  1.00  0.00     0.109 A 
ATOM     13  HN  UNL     1     -40.635 -46.835  13.052  1.00  0.00     0.166 HD
BRANCH  12  14
HETATM   14  N   UNL     1     -41.557 -48.858  11.744  1.00  0.00    -0.267 NA
HETATM   15  C   UNL     1     -42.722 -48.350  12.497  1.00  0.00     0.097 C 
HETATM   16  C   UNL     1     -43.658 -47.832  11.412  1.00  0.00     0.016 C 
HETATM   17  C   UNL     1     -42.682 -47.167  10.460  1.00  0.00     0.016 C 
HETATM   18  C   UNL     1     -41.473 -48.105  10.470  1.00  0.00     0.097 C 
ENDBRANCH  12  14
ENDBRANCH   4   7
BRANCH   3  19
HETATM   19  C   UNL     1     -42.057 -53.053  14.259  1.00  0.00     0.154 C 
BRANCH  19  20
HETATM   20  C   UNL     1     -43.372 -53.415  13.532  1.00  0.00     0.292 C 
BRANCH  20  21
HETATM   21  N   UNL     1     -44.343 -52.331  13.293  1.00  0.00     0.090 N 
HETATM   22  C   UNL     1     -44.798 -51.732  14.560  1.00  0.00     0.272 C 
HETATM   23  C   UNL     1     -46.278 -51.412  14.383  1.00  0.00     0.032 C 
HETATM   24  C   UNL     1     -46.539 -51.632  12.907  1.00  0.00     0.032 C 
HETATM   25  C   UNL     1     -45.535 -52.711  12.539  1.00  0.00     0.272 C 
ENDBRANCH  20  21
ENDBRANCH  19  20
ENDBRANCH   3  19
TORSDOF 5
ENDMDL
MODEL 8
REMARK VINA RESULT:      -5.5      2.692      3.842
REMARK  5 active torsions:
REMARK  status: ('A' for Active; 'I' for Inactive)
REMARK       I    between atoms: C_2  and  N_3 
REMARK       I    between atoms: C_2  and  N_11 
REMARK    1  A    between atoms: N_3  and  C_4 
REMARK    2  A    between atoms: C_4  and  C_5 
REMARK    3  A    between atoms: C_5  and  N_6 
REMARK    4  A    between atoms: N_11  and  C_12 
REMARK    5  A    between atoms: C_18  and  N_19 
ROOT
HETATM    1  O   UNL     1     -43.439 -51.089  15.354  1.00  0.00    -0.247 OA
HETATM    2  C   UNL     1     -43.021 -50.842  14.226  1.00  0.00     0.320 C 
HETATM    3  N   UNL     1     -42.790 -51.813  13.292  1.00  0.00    -0.341 N 
HETATM    4  N   UNL     1     -42.693 -49.563  13.877  1.00  0.00    -0.306 N 
HETATM    5  H   UNL     1     -41.969 -51.626  12.739  1.00  0.00     0.164 HD
HETATM    6  H   UNL     1     -42.628 -48.930  14.670  1.00  0.00     0.171 HD
ENDROOT
BRANCH   4   7
HETATM    7  C   UNL     1     -42.417 -48.949  12.629  1.00  0.00     0.075 A 
HETATM    8  C   UNL     1     -43.356 -48.189  11.926  1.00  0.00     0.034 A 
HETATM    9  C   UNL     1     -43.045 -47.680  10.671  1.00  0.00     0.019 A 
HETATM   10  C   UNL     1     -41.784 -47.916  10.170  1.00  0.00     0.089 A 
HETATM   11  N   UNL     1     -40.826 -48.588  10.839  1.00  0.00    -0.355 N 
HETATM   12  C   UNL     1     -41.121 -49.084  12.065  1.00  0.00     0.109 A 
ATOM     13  HN  UNL     1     -39.900 -48.719  10.433  1.00  0.00     0.166 HD
BRANCH  12  14
HETATM   14  N   UNL     1     -40.092 -49.714  12.805  1.00  0.00    -0.267 NA
HETATM   15  C   UNL     1     -39.276 -50.657  12.012  1.00  0.00     0.097 C 
HETATM   16  C   UNL     1     -37.916 -50.626  12.700  1.00  0.00     0.016 C 
HETATM   17  C   UNL     1     -37.765 -49.149  13.011  1.00  0.00     0.016 C 
HETATM   18  C   UNL     1     -39.178 -48.721  13.417  1.00  0.00     0.097 C 
ENDBRANCH  12  14
ENDBRANCH   4   7
BRANCH   3  19
HETATM   19  C   UNL     1     -43.065 -53.212  13.547  1.00  0.00     0.154 C 
BRANCH  19  20
HETATM   20  C   UNL     1     -44.286 -53.792  12.798  1.00  0.00     0.292 C 
BRANCH  20  21
HETATM   21  N   UNL     1     -45.628 -53.457  13.312  1.00  0.00     0.090 N 
HETATM   22  C   UNL     1     -46.086 -52.154  12.800  1.00  0.00     0.272 C 
HETATM   23  C   UNL     1     -46.842 -51.481  13.940  1.00  0.00     0.032 C 
HETATM   24  C   UNL     1     -46.984 -52.562  14.991  1.00  0.00     0.032 C 
HETATM   25  C   UNL     1     -45.751 -53.420  14.768  1.00  0.00     0.272 C 
ENDBRANCH  20  21
ENDBRANCH  19  20
ENDBRANCH   3  19
TORSDOF 5
ENDMDL
MODEL 9
REMARK VINA RESULT:      -5.5      2.419      2.877
REMARK  5 active torsions:
REMARK  status: ('A' for Active; 'I' for Inactive)
REMARK       I    between atoms: C_2  and  N_3 
REMARK       I    between atoms: C_2  and  N_11 
REMARK    1  A    between atoms: N_3  and  C_4 
REMARK    2  A    between atoms: C_4  and  C_5 
REMARK    3  A    between atoms: C_5  and  N_6 
REMARK    4  A    between atoms: N_11  and  C_12 
REMARK    5  A    between atoms: C_18  and  N_19 
ROOT
HETATM    1  O   UNL     1     -42.530 -49.232  14.063  1.00  0.00    -0.247 OA
HETATM    2  C   UNL     1     -42.411 -48.934  12.877  1.00  0.00     0.320 C 
HETATM    3  N   UNL     1     -41.586 -49.609  12.023  1.00  0.00    -0.341 N 
HETATM    4  N   UNL     1     -43.060 -47.843  12.373  1.00  0.00    -0.306 N 
HETATM    5  H   UNL     1     -41.126 -48.996  11.368  1.00  0.00     0.164 HD
HETATM    6  H   UNL     1     -43.440 -47.229  13.089  1.00  0.00     0.171 HD
ENDROOT
BRANCH   4   7
HETATM    7  C   UNL     1     -43.298 -47.395  11.048  1.00  0.00     0.075 A 
HETATM    8  C   UNL     1     -44.353 -47.864  10.261  1.00  0.00     0.034 A 
HETATM    9  C   UNL     1     -44.484 -47.441   8.944  1.00  0.00     0.019 A 
HETATM   10  C   UNL     1     -43.571 -46.528   8.462  1.00  0.00     0.089 A 
HETATM   11  N   UNL     1     -42.578 -46.001   9.204  1.00  0.00    -0.355 N 
HETATM   12  C   UNL     1     -42.446 -46.406  10.491  1.00  0.00     0.109 A 
ATOM     13  HN  UNL     1     -41.939 -45.312   8.807  1.00  0.00     0.166 HD
BRANCH  12  14
HETATM   14  N   UNL     1     -41.458 -45.790  11.296  1.00  0.00    -0.267 NA
HETATM   15  C   UNL     1     -40.102 -45.819  10.708  1.00  0.00     0.097 C 
HETATM   16  C   UNL     1     -39.433 -44.576  11.280  1.00  0.00     0.016 C 
HETATM   17  C   UNL     1     -40.559 -43.563  11.211  1.00  0.00     0.016 C 
HETATM   18  C   UNL     1     -41.799 -44.378  11.588  1.00  0.00     0.097 C 
ENDBRANCH  12  14
ENDBRANCH   4   7
BRANCH   3  19
HETATM   19  C   UNL     1     -40.817 -50.763  12.441  1.00  0.00     0.154 C 
BRANCH  19  20
HETATM   20  C   UNL     1     -41.299 -52.118  11.873  1.00  0.00     0.292 C 
BRANCH  20  21
HETATM   21  N   UNL     1     -40.975 -53.336  12.641  1.00  0.00     0.090 N 
HETATM   22  C   UNL     1     -42.183 -53.921  13.249  1.00  0.00     0.272 C 
HETATM   23  C   UNL     1     -41.767 -54.447  14.619  1.00  0.00     0.032 C 
HETATM   24  C   UNL     1     -40.255 -54.346  14.621  1.00  0.00     0.032 C 
HETATM   25  C   UNL     1     -39.991 -53.162  13.707  1.00  0.00     0.272 C 
ENDBRANCH  20  21
ENDBRANCH  19  20
ENDBRANCH   3  19
TORSDOF 5
ENDMDL
