MODEL 1
REMARK VINA RESULT:      -7.1      0.000      0.000
REMARK  5 active torsions:
REMARK  status: ('A' for Active; 'I' for Inactive)
REMARK       I    between atoms: N_2  and  C_3 
REMARK    1  A    between atoms: C_3  and  C_5 
REMARK    2  A    between atoms: N_10  and  C_11 
REMARK    3  A    between atoms: C_11  and  C_12 
REMARK       I    between atoms: C_12  and  N_14 
REMARK    4  A    between atoms: N_14  and  C_15 
REMARK    5  A    between atoms: C_15  and  C_17 
ROOT
HETATM    1  C   UNL     1     -40.673 -50.052  11.311  1.00  0.00     0.234 C 
ENDROOT
BRANCH   1   2
HETATM    2  N   UNL     1     -40.921 -48.637  11.069  1.00  0.00    -0.315 N 
HETATM    3  C   UNL     1     -39.967 -47.728  11.513  1.00  0.00     0.247 A 
HETATM    4  C   UNL     1     -40.229 -46.304  11.190  1.00  0.00     0.075 A 
HETATM    5  O   UNL     1     -38.961 -48.040  12.148  1.00  0.00    -0.268 OA
HETATM    6  C   UNL     1     -41.353 -45.951  10.548  1.00  0.00     0.024 A 
HETATM    7  C   UNL     1     -42.324 -46.945  10.139  1.00  0.00     0.047 A 
HETATM    8  C   UNL     1     -42.087 -48.239  10.425  1.00  0.00     0.111 A 
BRANCH   7   9
HETATM    9  C   UNL     1     -43.611 -46.604   9.441  1.00  0.00     0.252 C 
HETATM   10  N   UNL     1     -44.622 -47.521   9.623  1.00  0.00    -0.361 N 
HETATM   11  C   UNL     1     -45.926 -47.319   9.039  1.00  0.00     0.149 C 
HETATM   12  H   UNL     1     -44.525 -48.247  10.315  1.00  0.00     0.162 HD
HETATM   13  O   UNL     1     -43.751 -45.570   8.800  1.00  0.00    -0.268 OA
ENDBRANCH   7   9
ENDBRANCH   1   2
BRANCH   1  14
HETATM   14  C   UNL     1     -41.553 -50.598  12.438  1.00  0.00     0.236 C 
HETATM   15  O   UNL     1     -41.621 -50.040  13.529  1.00  0.00    -0.272 OA
HETATM   16  N   UNL     1     -42.224 -51.764  12.110  1.00  0.00    -0.355 N 
HETATM   17  H   UNL     1     -41.746 -52.319  11.404  1.00  0.00     0.162 HD
BRANCH  16  18
HETATM   18  C   UNL     1     -43.131 -52.493  13.015  1.00  0.00     0.084 C 
HETATM   19  C   UNL     1     -42.501 -52.715  14.399  1.00  0.00     0.032 C 
BRANCH  18  20
HETATM   20  C   UNL     1     -44.455 -51.694  13.121  1.00  0.00     0.012 C 
HETATM   21  C   UNL     1     -44.853 -51.140  14.512  1.00  0.00     0.011 C 
HETATM   22  C   UNL     1     -46.334 -51.548  14.651  1.00  0.00    -0.014 C 
HETATM   23  C   UNL     1     -46.391 -53.051  14.959  1.00  0.00     0.005 C 
HETATM   24  C   UNL     1     -46.828 -51.509  13.208  1.00  0.00     0.010 C 
HETATM   25  C   UNL     1     -45.978 -53.687  13.624  1.00  0.00     0.005 C 
HETATM   26  C   UNL     1     -45.740 -52.467  12.713  1.00  0.00    -0.008 C 
ENDBRANCH  18  20
ENDBRANCH  16  18
ENDBRANCH   1  14
TORSDOF 5
ENDMDL
MODEL 2
REMARK VINA RESULT:      -7.1      1.489      1.626
REMARK  5 active torsions:
REMARK  status: ('A' for Active; 'I' for Inactive)
REMARK       I    between atoms: N_2  and  C_3 
REMARK    1  A    between atoms: C_3  and  C_5 
REMARK    2  A    between atoms: N_10  and  C_11 
REMARK    3  A    between atoms: C_11  and  C_12 
REMARK       I    between atoms: C_12  and  N_14 
REMARK    4  A    between atoms: N_14  and  C_15 
REMARK    5  A    between atoms: C_15  and  C_17 
ROOT
HETATM    1  C   UNL     1     -39.910 -51.018  12.377  1.00  0.00     0.234 C 
ENDROOT
BRANCH   1   2
HETATM    2  N   UNL     1     -40.255 -49.625  12.123  1.00  0.00    -0.315 N 
HETATM    3  C   UNL     1     -39.484 -48.646  12.737  1.00  0.00     0.247 A 
HETATM    4  C   UNL     1     -39.830 -47.242  12.402  1.00  0.00     0.075 A 
HETATM    5  O   UNL     1     -38.571 -48.882  13.526  1.00  0.00    -0.268 OA
HETATM    6  C   UNL     1     -40.862 -46.976  11.586  1.00  0.00     0.024 A 
HETATM    7  C   UNL     1     -41.648 -48.044  11.002  1.00  0.00     0.047 A 
HETATM    8  C   UNL     1     -41.333 -49.319  11.300  1.00  0.00     0.111 A 
BRANCH   7   9
HETATM    9  C   UNL     1     -42.829 -47.803  10.104  1.00  0.00     0.252 C 
HETATM   10  N   UNL     1     -42.577 -47.991   8.763  1.00  0.00    -0.361 N 
HETATM   11  C   UNL     1     -43.618 -47.826   7.778  1.00  0.00     0.149 C 
HETATM   12  H   UNL     1     -41.716 -48.426   8.469  1.00  0.00     0.162 HD
HETATM   13  O   UNL     1     -43.932 -47.505  10.544  1.00  0.00    -0.268 OA
ENDBRANCH   7   9
ENDBRANCH   1   2
BRANCH   1  14
HETATM   14  C   UNL     1     -41.155 -51.874  12.626  1.00  0.00     0.236 C 
HETATM   15  O   UNL     1     -41.573 -52.663  11.784  1.00  0.00    -0.272 OA
HETATM   16  N   UNL     1     -41.750 -51.651  13.856  1.00  0.00    -0.355 N 
HETATM   17  H   UNL     1     -41.587 -50.715  14.220  1.00  0.00     0.162 HD
BRANCH  16  18
HETATM   18  C   UNL     1     -42.959 -52.341  14.340  1.00  0.00     0.084 C 
HETATM   19  C   UNL     1     -43.004 -52.408  15.874  1.00  0.00     0.032 C 
BRANCH  18  20
HETATM   20  C   UNL     1     -44.199 -51.604  13.773  1.00  0.00     0.012 C 
HETATM   21  C   UNL     1     -45.211 -51.012  14.786  1.00  0.00     0.011 C 
HETATM   22  C   UNL     1     -46.577 -51.486  14.247  1.00  0.00    -0.014 C 
HETATM   23  C   UNL     1     -46.735 -52.976  14.583  1.00  0.00     0.005 C 
HETATM   24  C   UNL     1     -46.344 -51.531  12.740  1.00  0.00     0.010 C 
HETATM   25  C   UNL     1     -45.734 -53.645  13.631  1.00  0.00     0.005 C 
HETATM   26  C   UNL     1     -45.128 -52.454  12.863  1.00  0.00    -0.008 C 
ENDBRANCH  18  20
ENDBRANCH  16  18
ENDBRANCH   1  14
TORSDOF 5
ENDMDL
MODEL 3
REMARK VINA RESULT:      -7.0      1.010      1.918
REMARK  5 active torsions:
REMARK  status: ('A' for Active; 'I' for Inactive)
REMARK       I    between atoms: N_2  and  C_3 
REMARK    1  A    between atoms: C_3  and  C_5 
REMARK    2  A    between atoms: N_10  and  C_11 
REMARK    3  A    between atoms: C_11  and  C_12 
REMARK       I    between atoms: C_12  and  N_14 
REMARK    4  A    between atoms: N_14  and  C_15 
REMARK    5  A    between atoms: C_15  and  C_17 
ROOT
HETATM    1  C   UNL     1     -40.819 -50.035  11.479  1.00  0.00     0.234 C 
ENDROOT
BRANCH   1   2
HETATM    2  N   UNL     1     -40.975 -48.614  11.195  1.00  0.00    -0.315 N 
HETATM    3  C   UNL     1     -39.993 -47.750  11.664  1.00  0.00     0.247 A 
HETATM    4  C   UNL     1     -40.158 -46.321  11.299  1.00  0.00     0.075 A 
HETATM    5  O   UNL     1     -39.037 -48.102  12.352  1.00  0.00    -0.268 OA
HETATM    6  C   UNL     1     -41.229 -45.922  10.596  1.00  0.00     0.024 A 
HETATM    7  C   UNL     1     -42.236 -46.870  10.164  1.00  0.00     0.047 A 
HETATM    8  C   UNL     1     -42.086 -48.168  10.488  1.00  0.00     0.111 A 
BRANCH   7   9
HETATM    9  C   UNL     1     -43.467 -46.474   9.398  1.00  0.00     0.252 C 
HETATM   10  N   UNL     1     -44.616 -47.130   9.782  1.00  0.00    -0.361 N 
HETATM   11  C   UNL     1     -45.885 -46.837   9.161  1.00  0.00     0.149 C 
HETATM   12  H   UNL     1     -44.622 -47.683  10.625  1.00  0.00     0.162 HD
HETATM   13  O   UNL     1     -43.447 -45.607   8.533  1.00  0.00    -0.268 OA
ENDBRANCH   7   9
ENDBRANCH   1   2
BRANCH   1  14
HETATM   14  C   UNL     1     -41.620 -50.458  12.713  1.00  0.00     0.236 C 
HETATM   15  O   UNL     1     -41.193 -50.282  13.849  1.00  0.00    -0.272 OA
HETATM   16  N   UNL     1     -42.830 -51.063  12.415  1.00  0.00    -0.355 N 
HETATM   17  H   UNL     1     -42.837 -51.528  11.510  1.00  0.00     0.162 HD
BRANCH  16  18
HETATM   18  C   UNL     1     -43.788 -51.563  13.418  1.00  0.00     0.084 C 
HETATM   19  C   UNL     1     -45.236 -51.206  13.053  1.00  0.00     0.032 C 
BRANCH  18  20
HETATM   20  C   UNL     1     -43.600 -53.096  13.545  1.00  0.00     0.012 C 
HETATM   21  C   UNL     1     -44.677 -54.009  12.903  1.00  0.00     0.011 C 
HETATM   22  C   UNL     1     -44.989 -55.031  14.016  1.00  0.00    -0.014 C 
HETATM   23  C   UNL     1     -45.855 -54.336  15.077  1.00  0.00     0.005 C 
HETATM   24  C   UNL     1     -43.653 -55.155  14.741  1.00  0.00     0.010 C 
HETATM   25  C   UNL     1     -44.862 -53.380  15.752  1.00  0.00     0.005 C 
HETATM   26  C   UNL     1     -43.546 -53.649  14.996  1.00  0.00    -0.008 C 
ENDBRANCH  18  20
ENDBRANCH  16  18
ENDBRANCH   1  14
TORSDOF 5
ENDMDL
MODEL 4
REMARK VINA RESULT:      -6.9      2.188      3.298
REMARK  5 active torsions:
REMARK  status: ('A' for Active; 'I' for Inactive)
REMARK       I    between atoms: N_2  and  C_3 
REMARK    1  A    between atoms: C_3  and  C_5 
REMARK    2  A    between atoms: N_10  and  C_11 
REMARK    3  A    between atoms: C_11  and  C_12 
REMARK       I    between atoms: C_12  and  N_14 
REMARK    4  A    between atoms: N_14  and  C_15 
REMARK    5  A    between atoms: C_15  and  C_17 
ROOT
HETATM    1  C   UNL     1     -39.463 -52.090  13.999  1.00  0.00     0.234 C 
ENDROOT
BRANCH   1   2
HETATM    2  N   UNL     1     -39.090 -51.070  13.029  1.00  0.00    -0.315 N 
HETATM    3  C   UNL     1     -37.788 -51.086  12.541  1.00  0.00     0.247 A 
HETATM    4  C   UNL     1     -37.469 -50.069  11.508  1.00  0.00     0.075 A 
HETATM    5  O   UNL     1     -36.919 -51.868  12.923  1.00  0.00    -0.268 OA
HETATM    6  C   UNL     1     -38.396 -49.177  11.129  1.00  0.00     0.024 A 
HETATM    7  C   UNL     1     -39.728 -49.193  11.699  1.00  0.00     0.047 A 
HETATM    8  C   UNL     1     -40.022 -50.117  12.632  1.00  0.00     0.111 A 
BRANCH   7   9
HETATM    9  C   UNL     1     -40.795 -48.201  11.331  1.00  0.00     0.252 C 
HETATM   10  N   UNL     1     -41.557 -48.558  10.239  1.00  0.00    -0.361 N 
HETATM   11  C   UNL     1     -42.640 -47.723   9.781  1.00  0.00     0.149 C 
HETATM   12  H   UNL     1     -41.491 -49.491   9.863  1.00  0.00     0.162 HD
HETATM   13  O   UNL     1     -40.991 -47.182  11.981  1.00  0.00    -0.268 OA
ENDBRANCH   7   9
ENDBRANCH   1   2
BRANCH   1  14
HETATM   14  C   UNL     1     -40.702 -52.871  13.553  1.00  0.00     0.236 C 
HETATM   15  O   UNL     1     -40.735 -53.468  12.481  1.00  0.00    -0.272 OA
HETATM   16  N   UNL     1     -41.755 -52.811  14.450  1.00  0.00    -0.355 N 
HETATM   17  H   UNL     1     -41.754 -51.967  15.018  1.00  0.00     0.162 HD
BRANCH  16  18
HETATM   18  C   UNL     1     -43.059 -53.471  14.259  1.00  0.00     0.084 C 
HETATM   19  C   UNL     1     -43.004 -54.962  14.626  1.00  0.00     0.032 C 
BRANCH  18  20
HETATM   20  C   UNL     1     -44.113 -52.720  15.111  1.00  0.00     0.012 C 
HETATM   21  C   UNL     1     -45.561 -53.272  15.117  1.00  0.00     0.011 C 
HETATM   22  C   UNL     1     -46.425 -52.016  14.878  1.00  0.00    -0.014 C 
HETATM   23  C   UNL     1     -46.313 -51.631  13.395  1.00  0.00     0.005 C 
HETATM   24  C   UNL     1     -45.605 -50.915  15.545  1.00  0.00     0.010 C 
HETATM   25  C   UNL     1     -44.879 -51.093  13.292  1.00  0.00     0.005 C 
HETATM   26  C   UNL     1     -44.347 -51.232  14.732  1.00  0.00    -0.008 C 
ENDBRANCH  18  20
ENDBRANCH  16  18
ENDBRANCH   1  14
TORSDOF 5
ENDMDL
MODEL 5
REMARK VINA RESULT:      -6.8      1.233      1.534
REMARK  5 active torsions:
REMARK  status: ('A' for Active; 'I' for Inactive)
REMARK       I    between atoms: N_2  and  C_3 
REMARK    1  A    between atoms: C_3  and  C_5 
REMARK    2  A    between atoms: N_10  and  C_11 
REMARK    3  A    between atoms: C_11  and  C_12 
REMARK       I    between atoms: C_12  and  N_14 
REMARK    4  A    between atoms: N_14  and  C_15 
REMARK    5  A    between atoms: C_15  and  C_17 
ROOT
HETATM    1  C   UNL     1     -41.843 -49.208  13.082  1.00  0.00     0.234 C 
ENDROOT
BRANCH   1   2
HETATM    2  N   UNL     1     -41.930 -48.195  12.037  1.00  0.00    -0.315 N 
HETATM    3  C   UNL     1     -40.929 -47.234  11.984  1.00  0.00     0.247 A 
HETATM    4  C   UNL     1     -41.023 -46.261  10.866  1.00  0.00     0.075 A 
HETATM    5  O   UNL     1     -40.011 -47.148  12.798  1.00  0.00    -0.268 OA
HETATM    6  C   UNL     1     -42.053 -46.313  10.009  1.00  0.00     0.024 A 
HETATM    7  C   UNL     1     -43.083 -47.324  10.138  1.00  0.00     0.047 A 
HETATM    8  C   UNL     1     -42.998 -48.211  11.147  1.00  0.00     0.111 A 
BRANCH   7   9
HETATM    9  C   UNL     1     -44.271 -47.412   9.222  1.00  0.00     0.252 C 
HETATM   10  N   UNL     1     -45.469 -47.058   9.802  1.00  0.00    -0.361 N 
HETATM   11  C   UNL     1     -46.696 -47.064   9.042  1.00  0.00     0.149 C 
HETATM   12  H   UNL     1     -45.479 -46.612  10.705  1.00  0.00     0.162 HD
HETATM   13  O   UNL     1     -44.165 -47.735   8.045  1.00  0.00    -0.268 OA
ENDBRANCH   7   9
ENDBRANCH   1   2
BRANCH   1  14
HETATM   14  C   UNL     1     -42.042 -50.619  12.522  1.00  0.00     0.236 C 
HETATM   15  O   UNL     1     -41.247 -51.115  11.730  1.00  0.00    -0.272 OA
HETATM   16  N   UNL     1     -43.192 -51.243  12.974  1.00  0.00    -0.355 N 
HETATM   17  H   UNL     1     -43.931 -50.592  13.229  1.00  0.00     0.162 HD
BRANCH  16  18
HETATM   18  C   UNL     1     -43.617 -52.600  12.587  1.00  0.00     0.084 C 
HETATM   19  C   UNL     1     -42.750 -53.682  13.250  1.00  0.00     0.032 C 
BRANCH  18  20
HETATM   20  C   UNL     1     -45.111 -52.767  12.965  1.00  0.00     0.012 C 
HETATM   21  C   UNL     1     -46.000 -51.497  12.965  1.00  0.00     0.011 C 
HETATM   22  C   UNL     1     -46.755 -51.588  14.307  1.00  0.00    -0.014 C 
HETATM   23  C   UNL     1     -45.781 -51.207  15.432  1.00  0.00     0.005 C 
HETATM   24  C   UNL     1     -46.891 -53.094  14.513  1.00  0.00     0.010 C 
HETATM   25  C   UNL     1     -44.834 -52.414  15.483  1.00  0.00     0.005 C 
HETATM   26  C   UNL     1     -45.386 -53.341  14.382  1.00  0.00    -0.008 C 
ENDBRANCH  18  20
ENDBRANCH  16  18
ENDBRANCH   1  14
TORSDOF 5
ENDMDL
MODEL 6
REMARK VINA RESULT:      -6.4      4.472      7.326
REMARK  5 active torsions:
REMARK  status: ('A' for Active; 'I' for Inactive)
REMARK       I    between atoms: N_2  and  C_3 
REMARK    1  A    between atoms: C_3  and  C_5 
REMARK    2  A    between atoms: N_10  and  C_11 
REMARK    3  A    between atoms: C_11  and  C_12 
REMARK       I    between atoms: C_12  and  N_14 
REMARK    4  A    between atoms: N_14  and  C_15 
REMARK    5  A    between atoms: C_15  and  C_17 
ROOT
HETATM    1  C   UNL     1     -44.520 -54.831  14.527  1.00  0.00     0.234 C 
ENDROOT
BRANCH   1   2
HETATM    2  N   UNL     1     -45.299 -53.610  14.367  1.00  0.00    -0.315 N 
HETATM    3  C   UNL     1     -45.434 -53.093  13.084  1.00  0.00     0.247 A 
HETATM    4  C   UNL     1     -46.288 -51.886  12.957  1.00  0.00     0.075 A 
HETATM    5  O   UNL     1     -44.888 -53.567  12.089  1.00  0.00    -0.268 OA
HETATM    6  C   UNL     1     -46.840 -51.330  14.046  1.00  0.00     0.024 A 
HETATM    7  C   UNL     1     -46.634 -51.900  15.362  1.00  0.00     0.047 A 
HETATM    8  C   UNL     1     -45.866 -52.999  15.480  1.00  0.00     0.111 A 
BRANCH   7   9
HETATM    9  C   UNL     1     -47.207 -51.304  16.618  1.00  0.00     0.252 C 
HETATM   10  N   UNL     1     -46.343 -50.484  17.308  1.00  0.00    -0.361 N 
HETATM   11  C   UNL     1     -46.756 -49.815  18.518  1.00  0.00     0.149 C 
HETATM   12  H   UNL     1     -45.478 -50.191  16.881  1.00  0.00     0.162 HD
HETATM   13  O   UNL     1     -48.364 -51.506  16.967  1.00  0.00    -0.268 OA
ENDBRANCH   7   9
ENDBRANCH   1   2
BRANCH   1  14
HETATM   14  C   UNL     1     -43.094 -54.535  14.998  1.00  0.00     0.236 C 
HETATM   15  O   UNL     1     -42.668 -54.958  16.067  1.00  0.00    -0.272 OA
HETATM   16  N   UNL     1     -42.368 -53.744  14.122  1.00  0.00    -0.355 N 
HETATM   17  H   UNL     1     -42.950 -53.130  13.557  1.00  0.00     0.162 HD
BRANCH  16  18
HETATM   18  C   UNL     1     -40.976 -53.313  14.339  1.00  0.00     0.084 C 
HETATM   19  C   UNL     1     -39.975 -54.237  13.628  1.00  0.00     0.032 C 
BRANCH  18  20
HETATM   20  C   UNL     1     -40.839 -51.850  13.846  1.00  0.00     0.012 C 
HETATM   21  C   UNL     1     -40.057 -51.603  12.531  1.00  0.00     0.011 C 
HETATM   22  C   UNL     1     -39.105 -50.443  12.891  1.00  0.00    -0.014 C 
HETATM   23  C   UNL     1     -37.967 -51.006  13.754  1.00  0.00     0.005 C 
HETATM   24  C   UNL     1     -39.912 -49.656  13.921  1.00  0.00     0.010 C 
HETATM   25  C   UNL     1     -38.667 -51.308  15.085  1.00  0.00     0.005 C 
HETATM   26  C   UNL     1     -40.123 -50.876  14.823  1.00  0.00    -0.008 C 
ENDBRANCH  18  20
ENDBRANCH  16  18
ENDBRANCH   1  14
TORSDOF 5
ENDMDL
MODEL 7
REMARK VINA RESULT:      -6.2      3.062      3.505
REMARK  5 active torsions:
REMARK  status: ('A' for Active; 'I' for Inactive)
REMARK       I    between atoms: N_2  and  C_3 
REMARK    1  A    between atoms: C_3  and  C_5 
REMARK    2  A    between atoms: N_10  and  C_11 
REMARK    3  A    between atoms: C_11  and  C_12 
REMARK       I    between atoms: C_12  and  N_14 
REMARK    4  A    between atoms: N_14  and  C_15 
REMARK    5  A    between atoms: C_15  and  C_17 
ROOT
HETATM    1  C   UNL     1     -40.176 -50.482  11.409  1.00  0.00     0.234 C 
ENDROOT
BRANCH   1   2
HETATM    2  N   UNL     1     -39.404 -49.670  12.341  1.00  0.00    -0.315 N 
HETATM    3  C   UNL     1     -38.160 -50.148  12.737  1.00  0.00     0.247 A 
HETATM    4  C   UNL     1     -37.381 -49.260  13.637  1.00  0.00     0.075 A 
HETATM    5  O   UNL     1     -37.700 -51.237  12.400  1.00  0.00    -0.268 OA
HETATM    6  C   UNL     1     -37.901 -48.096  14.055  1.00  0.00     0.024 A 
HETATM    7  C   UNL     1     -39.218 -47.670  13.629  1.00  0.00     0.047 A 
HETATM    8  C   UNL     1     -39.925 -48.469  12.809  1.00  0.00     0.111 A 
BRANCH   7   9
HETATM    9  C   UNL     1     -39.859 -46.389  14.087  1.00  0.00     0.252 C 
HETATM   10  N   UNL     1     -41.093 -46.135  13.531  1.00  0.00    -0.361 N 
HETATM   11  C   UNL     1     -41.847 -44.960  13.894  1.00  0.00     0.149 C 
HETATM   12  H   UNL     1     -41.568 -46.856  13.009  1.00  0.00     0.162 HD
HETATM   13  O   UNL     1     -39.336 -45.660  14.920  1.00  0.00    -0.268 OA
ENDBRANCH   7   9
ENDBRANCH   1   2
BRANCH   1  14
HETATM   14  C   UNL     1     -40.952 -51.588  12.129  1.00  0.00     0.236 C 
HETATM   15  O   UNL     1     -40.556 -52.750  12.139  1.00  0.00    -0.272 OA
HETATM   16  N   UNL     1     -42.122 -51.153  12.728  1.00  0.00    -0.355 N 
HETATM   17  H   UNL     1     -42.527 -50.337  12.276  1.00  0.00     0.162 HD
BRANCH  16  18
HETATM   18  C   UNL     1     -43.050 -52.015  13.481  1.00  0.00     0.084 C 
HETATM   19  C   UNL     1     -42.648 -52.135  14.959  1.00  0.00     0.032 C 
BRANCH  18  20
HETATM   20  C   UNL     1     -44.480 -51.435  13.332  1.00  0.00     0.012 C 
HETATM   21  C   UNL     1     -45.221 -51.005  14.623  1.00  0.00     0.011 C 
HETATM   22  C   UNL     1     -46.617 -51.642  14.465  1.00  0.00    -0.014 C 
HETATM   23  C   UNL     1     -46.492 -53.147  14.742  1.00  0.00     0.005 C 
HETATM   24  C   UNL     1     -46.824 -51.623  12.953  1.00  0.00     0.010 C 
HETATM   25  C   UNL     1     -45.734 -53.658  13.509  1.00  0.00     0.005 C 
HETATM   26  C   UNL     1     -45.522 -52.380  12.673  1.00  0.00    -0.008 C 
ENDBRANCH  18  20
ENDBRANCH  16  18
ENDBRANCH   1  14
TORSDOF 5
ENDMDL
MODEL 8
REMARK VINA RESULT:      -6.1      2.851      7.894
REMARK  5 active torsions:
REMARK  status: ('A' for Active; 'I' for Inactive)
REMARK       I    between atoms: N_2  and  C_3 
REMARK    1  A    between atoms: C_3  and  C_5 
REMARK    2  A    between atoms: N_10  and  C_11 
REMARK    3  A    between atoms: C_11  and  C_12 
REMARK       I    between atoms: C_12  and  N_14 
REMARK    4  A    between atoms: N_14  and  C_15 
REMARK    5  A    between atoms: C_15  and  C_17 
ROOT
HETATM    1  C   UNL     1     -42.186 -52.557  12.016  1.00  0.00     0.234 C 
ENDROOT
BRANCH   1   2
HETATM    2  N   UNL     1     -42.490 -53.462  13.117  1.00  0.00    -0.315 N 
HETATM    3  C   UNL     1     -43.780 -53.974  13.195  1.00  0.00     0.247 A 
HETATM    4  C   UNL     1     -44.028 -54.941  14.294  1.00  0.00     0.075 A 
HETATM    5  O   UNL     1     -44.692 -53.664  12.432  1.00  0.00    -0.268 OA
HETATM    6  C   UNL     1     -43.053 -55.240  15.166  1.00  0.00     0.024 A 
HETATM    7  C   UNL     1     -41.736 -54.646  15.047  1.00  0.00     0.047 A 
HETATM    8  C   UNL     1     -41.506 -53.774  14.048  1.00  0.00     0.111 A 
BRANCH   7   9
HETATM    9  C   UNL     1     -40.616 -54.925  16.009  1.00  0.00     0.252 C 
HETATM   10  N   UNL     1     -39.420 -55.262  15.414  1.00  0.00    -0.361 N 
HETATM   11  C   UNL     1     -38.243 -55.529  16.205  1.00  0.00     0.149 C 
HETATM   12  H   UNL     1     -39.301 -55.142  14.420  1.00  0.00     0.162 HD
HETATM   13  O   UNL     1     -40.755 -54.817  17.222  1.00  0.00    -0.268 OA
ENDBRANCH   7   9
ENDBRANCH   1   2
BRANCH   1  14
HETATM   14  C   UNL     1     -42.081 -51.105  12.488  1.00  0.00     0.236 C 
HETATM   15  O   UNL     1     -42.866 -50.635  13.306  1.00  0.00    -0.272 OA
HETATM   16  N   UNL     1     -41.050 -50.396  11.894  1.00  0.00    -0.355 N 
HETATM   17  H   UNL     1     -40.801 -50.743  10.971  1.00  0.00     0.162 HD
BRANCH  16  18
HETATM   18  C   UNL     1     -40.734 -48.984  12.172  1.00  0.00     0.084 C 
HETATM   19  C   UNL     1     -39.218 -48.734  12.209  1.00  0.00     0.032 C 
BRANCH  18  20
HETATM   20  C   UNL     1     -41.422 -48.111  11.092  1.00  0.00     0.012 C 
HETATM   21  C   UNL     1     -40.790 -46.734  10.767  1.00  0.00     0.011 C 
HETATM   22  C   UNL     1     -41.996 -45.772  10.786  1.00  0.00    -0.014 C 
HETATM   23  C   UNL     1     -42.390 -45.524  12.249  1.00  0.00     0.005 C 
HETATM   24  C   UNL     1     -43.139 -46.661  10.304  1.00  0.00     0.010 C 
HETATM   25  C   UNL     1     -43.008 -46.866  12.666  1.00  0.00     0.005 C 
HETATM   26  C   UNL     1     -42.896 -47.717  11.386  1.00  0.00    -0.008 C 
ENDBRANCH  18  20
ENDBRANCH  16  18
ENDBRANCH   1  14
TORSDOF 5
ENDMDL
MODEL 9
REMARK VINA RESULT:      -6.0      3.441      6.167
REMARK  5 active torsions:
REMARK  status: ('A' for Active; 'I' for Inactive)
REMARK       I    between atoms: N_2  and  C_3 
REMARK    1  A    between atoms: C_3  and  C_5 
REMARK    2  A    between atoms: N_10  and  C_11 
REMARK    3  A    between atoms: C_11  and  C_12 
REMARK       I    between atoms: C_12  and  N_14 
REMARK    4  A    between atoms: N_14  and  C_15 
REMARK    5  A    between atoms: C_15  and  C_17 
ROOT
HETATM    1  C   UNL     1     -41.779 -54.516  16.936  1.00  0.00     0.234 C 
ENDROOT
BRANCH   1   2
HETATM    2  N   UNL     1     -40.784 -54.251  15.905  1.00  0.00    -0.315 N 
HETATM    3  C   UNL     1     -39.847 -55.242  15.640  1.00  0.00     0.247 A 
HETATM    4  C   UNL     1     -38.893 -54.956  14.540  1.00  0.00     0.075 A 
HETATM    5  O   UNL     1     -39.768 -56.300  16.263  1.00  0.00    -0.268 OA
HETATM    6  C   UNL     1     -38.936 -53.780  13.895  1.00  0.00     0.024 A 
HETATM    7  C   UNL     1     -39.920 -52.774  14.241  1.00  0.00     0.047 A 
HETATM    8  C   UNL     1     -40.791 -53.033  15.234  1.00  0.00     0.111 A 
BRANCH   7   9
HETATM    9  C   UNL     1     -39.997 -51.432  13.570  1.00  0.00     0.252 C 
HETATM   10  N   UNL     1     -40.087 -51.482  12.196  1.00  0.00    -0.361 N 
HETATM   11  C   UNL     1     -40.198 -50.276  11.412  1.00  0.00     0.149 C 
HETATM   12  H   UNL     1     -40.266 -52.360  11.735  1.00  0.00     0.162 HD
HETATM   13  O   UNL     1     -40.020 -50.385  14.206  1.00  0.00    -0.268 OA
ENDBRANCH   7   9
ENDBRANCH   1   2
BRANCH   1  14
HETATM   14  C   UNL     1     -43.198 -54.537  16.362  1.00  0.00     0.236 C 
HETATM   15  O   UNL     1     -43.600 -55.468  15.672  1.00  0.00    -0.272 OA
HETATM   16  N   UNL     1     -43.946 -53.415  16.677  1.00  0.00    -0.355 N 
HETATM   17  H   UNL     1     -43.380 -52.585  16.840  1.00  0.00     0.162 HD
BRANCH  16  18
HETATM   18  C   UNL     1     -45.338 -53.186  16.248  1.00  0.00     0.084 C 
HETATM   19  C   UNL     1     -46.280 -52.991  17.445  1.00  0.00     0.032 C 
BRANCH  18  20
HETATM   20  C   UNL     1     -45.359 -51.954  15.308  1.00  0.00     0.012 C 
HETATM   21  C   UNL     1     -46.705 -51.584  14.636  1.00  0.00     0.011 C 
HETATM   22  C   UNL     1     -46.321 -51.366  13.158  1.00  0.00    -0.014 C 
HETATM   23  C   UNL     1     -46.093 -52.740  12.513  1.00  0.00     0.005 C 
HETATM   24  C   UNL     1     -44.895 -50.832  13.259  1.00  0.00     0.010 C 
HETATM   25  C   UNL     1     -44.775 -53.200  13.151  1.00  0.00     0.005 C 
HETATM   26  C   UNL     1     -44.407 -52.028  14.082  1.00  0.00    -0.008 C 
ENDBRANCH  18  20
ENDBRANCH  16  18
ENDBRANCH   1  14
TORSDOF 5
ENDMDL
