MODEL 1
REMARK VINA RESULT:      -5.7      0.000      0.000
REMARK  2 active torsions:
REMARK  status: ('A' for Active; 'I' for Inactive)
REMARK    1  A    between atoms: C_2  and  N_9 
REMARK       I    between atoms: N_9  and  C_10 
REMARK       I    between atoms: C_10  and  N_12 
REMARK    2  A    between atoms: N_12  and  C_13 
ROOT
HETATM    1  N   UNL     1     -41.771 -48.461  10.649  1.00  0.00    -0.333 N 
HETATM    2  C   UNL     1     -41.735 -49.533  11.523  1.00  0.00     0.321 C 
HETATM    3  O   UNL     1     -42.455 -49.616  12.510  1.00  0.00    -0.247 OA
HETATM    4  N   UNL     1     -40.751 -50.434  11.190  1.00  0.00    -0.308 N 
HETATM    5  H   UNL     1     -41.379 -48.652   9.734  1.00  0.00     0.165 HD
HETATM    6  H   UNL     1     -39.933 -50.014  10.769  1.00  0.00     0.170 HD
ENDROOT
BRANCH   1   7
HETATM    7  C   UNL     1     -42.688 -47.316  10.801  1.00  0.00     0.044 C 
HETATM    8  C   UNL     1     -44.128 -47.699  10.405  1.00  0.00     0.039 C 
HETATM    9  C   UNL     1     -42.662 -46.761  12.250  1.00  0.00     0.046 C 
HETATM   10  C   UNL     1     -41.484 -45.806  12.416  1.00  0.00     0.143 C 
HETATM   11  S   UNL     1     -41.021 -45.247  10.795  1.00  0.00     0.146 S 
HETATM   12  O   UNL     1     -41.308 -43.830  10.674  1.00  0.00    -0.228 OA
HETATM   13  O   UNL     1     -39.735 -45.814  10.451  1.00  0.00    -0.228 OA
HETATM   14  C   UNL     1     -42.260 -46.147   9.894  1.00  0.00     0.170 C 
ENDBRANCH   1   7
BRANCH   4  15
HETATM   15  C   UNL     1     -40.526 -51.590  11.977  1.00  0.00     0.051 A 
HETATM   16  C   UNL     1     -39.665 -51.504  13.071  1.00  0.00     0.032 A 
HETATM   17  C   UNL     1     -39.504 -52.608  13.901  1.00  0.00     0.019 A 
HETATM   18  C   UNL     1     -40.165 -53.783  13.578  1.00  0.00     0.088 A 
HETATM   19  N   UNL     1     -40.966 -53.919  12.500  1.00  0.00    -0.373 N 
HETATM   20  C   UNL     1     -41.145 -52.816  11.734  1.00  0.00     0.117 A 
ATOM     21  HN  UNL     1     -41.414 -54.807  12.274  1.00  0.00     0.164 HD
ENDBRANCH   4  15
TORSDOF 2
ENDMDL
MODEL 2
REMARK VINA RESULT:      -5.7      4.342      6.628
REMARK  2 active torsions:
REMARK  status: ('A' for Active; 'I' for Inactive)
REMARK    1  A    between atoms: C_2  and  N_9 
REMARK       I    between atoms: N_9  and  C_10 
REMARK       I    between atoms: C_10  and  N_12 
REMARK    2  A    between atoms: N_12  and  C_13 
ROOT
HETATM    1  N   UNL     1     -43.778 -52.367  12.605  1.00  0.00    -0.333 N 
HETATM    2  C   UNL     1     -42.707 -51.524  12.842  1.00  0.00     0.321 C 
HETATM    3  O   UNL     1     -42.614 -50.823  13.842  1.00  0.00    -0.247 OA
HETATM    4  N   UNL     1     -41.818 -51.515  11.793  1.00  0.00    -0.308 N 
HETATM    5  H   UNL     1     -43.591 -53.104  11.936  1.00  0.00     0.165 HD
HETATM    6  H   UNL     1     -42.247 -51.650  10.888  1.00  0.00     0.170 HD
ENDROOT
BRANCH   1   7
HETATM    7  C   UNL     1     -44.911 -52.525  13.535  1.00  0.00     0.044 C 
HETATM    8  C   UNL     1     -45.876 -51.325  13.448  1.00  0.00     0.039 C 
HETATM    9  C   UNL     1     -45.679 -53.847  13.269  1.00  0.00     0.046 C 
HETATM   10  C   UNL     1     -44.974 -55.004  13.972  1.00  0.00     0.143 C 
HETATM   11  S   UNL     1     -43.980 -54.309  15.269  1.00  0.00     0.146 S 
HETATM   12  O   UNL     1     -44.515 -54.714  16.556  1.00  0.00    -0.228 OA
HETATM   13  O   UNL     1     -42.583 -54.461  14.924  1.00  0.00    -0.228 OA
HETATM   14  C   UNL     1     -44.417 -52.610  14.992  1.00  0.00     0.170 C 
ENDBRANCH   1   7
BRANCH   4  15
HETATM   15  C   UNL     1     -40.664 -50.694  11.822  1.00  0.00     0.051 A 
HETATM   16  C   UNL     1     -39.507 -51.178  12.432  1.00  0.00     0.032 A 
HETATM   17  C   UNL     1     -38.344 -50.417  12.390  1.00  0.00     0.019 A 
HETATM   18  C   UNL     1     -38.389 -49.169  11.789  1.00  0.00     0.088 A 
HETATM   19  N   UNL     1     -39.502 -48.646  11.234  1.00  0.00    -0.373 N 
HETATM   20  C   UNL     1     -40.610 -49.426  11.244  1.00  0.00     0.117 A 
ATOM     21  HN  UNL     1     -39.509 -47.711  10.826  1.00  0.00     0.164 HD
ENDBRANCH   4  15
TORSDOF 2
ENDMDL
MODEL 3
REMARK VINA RESULT:      -5.7      4.092      7.054
REMARK  2 active torsions:
REMARK  status: ('A' for Active; 'I' for Inactive)
REMARK    1  A    between atoms: C_2  and  N_9 
REMARK       I    between atoms: N_9  and  C_10 
REMARK       I    between atoms: C_10  and  N_12 
REMARK    2  A    between atoms: N_12  and  C_13 
ROOT
HETATM    1  N   UNL     1     -43.157 -51.320  13.201  1.00  0.00    -0.333 N 
HETATM    2  C   UNL     1     -42.925 -49.989  12.906  1.00  0.00     0.321 C 
HETATM    3  O   UNL     1     -43.246 -49.071  13.652  1.00  0.00    -0.247 OA
HETATM    4  N   UNL     1     -42.374 -49.828  11.657  1.00  0.00    -0.308 N 
HETATM    5  H   UNL     1     -42.579 -51.971  12.683  1.00  0.00     0.165 HD
HETATM    6  H   UNL     1     -42.675 -50.518  10.982  1.00  0.00     0.170 HD
ENDROOT
BRANCH   1   7
HETATM    7  C   UNL     1     -43.796 -51.778  14.449  1.00  0.00     0.044 C 
HETATM    8  C   UNL     1     -43.133 -51.136  15.684  1.00  0.00     0.039 C 
HETATM    9  C   UNL     1     -45.319 -51.480  14.446  1.00  0.00     0.046 C 
HETATM   10  C   UNL     1     -46.059 -52.581  13.692  1.00  0.00     0.143 C 
HETATM   11  S   UNL     1     -45.010 -54.013  13.679  1.00  0.00     0.146 S 
HETATM   12  O   UNL     1     -45.613 -55.060  14.482  1.00  0.00    -0.228 OA
HETATM   13  O   UNL     1     -44.538 -54.239  12.330  1.00  0.00    -0.228 OA
HETATM   14  C   UNL     1     -43.666 -53.305  14.602  1.00  0.00     0.170 C 
ENDBRANCH   1   7
BRANCH   4  15
HETATM   15  C   UNL     1     -42.086 -48.538  11.147  1.00  0.00     0.051 A 
HETATM   16  C   UNL     1     -43.138 -47.742  10.695  1.00  0.00     0.032 A 
HETATM   17  C   UNL     1     -42.878 -46.442  10.274  1.00  0.00     0.019 A 
HETATM   18  C   UNL     1     -41.565 -45.998  10.265  1.00  0.00     0.088 A 
HETATM   19  N   UNL     1     -40.516 -46.756  10.647  1.00  0.00    -0.373 N 
HETATM   20  C   UNL     1     -40.800 -48.002  11.098  1.00  0.00     0.117 A 
ATOM     21  HN  UNL     1     -39.558 -46.409  10.598  1.00  0.00     0.164 HD
ENDBRANCH   4  15
TORSDOF 2
ENDMDL
MODEL 4
REMARK VINA RESULT:      -5.6      3.575      4.508
REMARK  2 active torsions:
REMARK  status: ('A' for Active; 'I' for Inactive)
REMARK    1  A    between atoms: C_2  and  N_9 
REMARK       I    between atoms: N_9  and  C_10 
REMARK       I    between atoms: C_10  and  N_12 
REMARK    2  A    between atoms: N_12  and  C_13 
ROOT
HETATM    1  N   UNL     1     -41.719 -50.833  11.704  1.00  0.00    -0.333 N 
HETATM    2  C   UNL     1     -42.731 -51.350  12.493  1.00  0.00     0.321 C 
HETATM    3  O   UNL     1     -43.217 -50.745  13.440  1.00  0.00    -0.247 OA
HETATM    4  N   UNL     1     -43.056 -52.637  12.132  1.00  0.00    -0.308 N 
HETATM    5  H   UNL     1     -41.632 -51.270  10.794  1.00  0.00     0.165 HD
HETATM    6  H   UNL     1     -42.277 -53.175  11.779  1.00  0.00     0.170 HD
ENDROOT
BRANCH   1   7
HETATM    7  C   UNL     1     -41.131 -49.495  11.906  1.00  0.00     0.044 C 
HETATM    8  C   UNL     1     -41.945 -48.411  11.170  1.00  0.00     0.039 C 
HETATM    9  C   UNL     1     -41.024 -49.149  13.415  1.00  0.00     0.046 C 
HETATM   10  C   UNL     1     -39.756 -49.766  13.997  1.00  0.00     0.143 C 
HETATM   11  S   UNL     1     -38.646 -50.072  12.646  1.00  0.00     0.146 S 
HETATM   12  O   UNL     1     -37.491 -49.201  12.763  1.00  0.00    -0.228 OA
HETATM   13  O   UNL     1     -38.527 -51.501  12.448  1.00  0.00    -0.228 OA
HETATM   14  C   UNL     1     -39.693 -49.440  11.357  1.00  0.00     0.170 C 
ENDBRANCH   1   7
BRANCH   4  15
HETATM   15  C   UNL     1     -44.049 -53.361  12.835  1.00  0.00     0.051 A 
HETATM   16  C   UNL     1     -43.655 -54.391  13.689  1.00  0.00     0.032 A 
HETATM   17  C   UNL     1     -44.613 -55.052  14.451  1.00  0.00     0.019 A 
HETATM   18  C   UNL     1     -45.945 -54.700  14.291  1.00  0.00     0.088 A 
HETATM   19  N   UNL     1     -46.369 -53.744  13.438  1.00  0.00    -0.373 N 
HETATM   20  C   UNL     1     -45.413 -53.083  12.743  1.00  0.00     0.117 A 
ATOM     21  HN  UNL     1     -47.360 -53.531  13.322  1.00  0.00     0.164 HD
ENDBRANCH   4  15
TORSDOF 2
ENDMDL
MODEL 5
REMARK VINA RESULT:      -5.5      4.569      6.502
REMARK  2 active torsions:
REMARK  status: ('A' for Active; 'I' for Inactive)
REMARK    1  A    between atoms: C_2  and  N_9 
REMARK       I    between atoms: N_9  and  C_10 
REMARK       I    between atoms: C_10  and  N_12 
REMARK    2  A    between atoms: N_12  and  C_13 
ROOT
HETATM    1  N   UNL     1     -44.369 -50.754  13.475  1.00  0.00    -0.333 N 
HETATM    2  C   UNL     1     -43.001 -50.562  13.406  1.00  0.00     0.321 C 
HETATM    3  O   UNL     1     -42.227 -50.935  14.280  1.00  0.00    -0.247 OA
HETATM    4  N   UNL     1     -42.638 -49.843  12.292  1.00  0.00    -0.308 N 
HETATM    5  H   UNL     1     -44.846 -50.698  12.583  1.00  0.00     0.165 HD
HETATM    6  H   UNL     1     -43.325 -49.160  12.001  1.00  0.00     0.170 HD
ENDROOT
BRANCH   1   7
HETATM    7  C   UNL     1     -45.040 -51.439  14.595  1.00  0.00     0.044 C 
HETATM    8  C   UNL     1     -44.836 -50.676  15.920  1.00  0.00     0.039 C 
HETATM    9  C   UNL     1     -46.554 -51.628  14.316  1.00  0.00     0.046 C 
HETATM   10  C   UNL     1     -46.771 -52.871  13.458  1.00  0.00     0.143 C 
HETATM   11  S   UNL     1     -45.341 -53.906  13.654  1.00  0.00     0.146 S 
HETATM   12  O   UNL     1     -45.717 -55.121  14.352  1.00  0.00    -0.228 OA
HETATM   13  O   UNL     1     -44.595 -53.918  12.414  1.00  0.00    -0.228 OA
HETATM   14  C   UNL     1     -44.468 -52.856  14.792  1.00  0.00     0.170 C 
ENDBRANCH   1   7
BRANCH   4  15
HETATM   15  C   UNL     1     -41.283 -49.512  12.047  1.00  0.00     0.051 A 
HETATM   16  C   UNL     1     -40.770 -48.333  12.589  1.00  0.00     0.032 A 
HETATM   17  C   UNL     1     -39.419 -48.040  12.429  1.00  0.00     0.019 A 
HETATM   18  C   UNL     1     -38.636 -48.908  11.683  1.00  0.00     0.088 A 
HETATM   19  N   UNL     1     -39.109 -50.030  11.102  1.00  0.00    -0.373 N 
HETATM   20  C   UNL     1     -40.416 -50.319  11.312  1.00  0.00     0.117 A 
ATOM     21  HN  UNL     1     -38.512 -50.631  10.533  1.00  0.00     0.164 HD
ENDBRANCH   4  15
TORSDOF 2
ENDMDL
MODEL 6
REMARK VINA RESULT:      -5.5      3.653      6.979
REMARK  2 active torsions:
REMARK  status: ('A' for Active; 'I' for Inactive)
REMARK    1  A    between atoms: C_2  and  N_9 
REMARK       I    between atoms: N_9  and  C_10 
REMARK       I    between atoms: C_10  and  N_12 
REMARK    2  A    between atoms: N_12  and  C_13 
ROOT
HETATM    1  N   UNL     1     -42.749 -51.517  12.410  1.00  0.00    -0.333 N 
HETATM    2  C   UNL     1     -42.322 -50.216  12.600  1.00  0.00     0.321 C 
HETATM    3  O   UNL     1     -41.862 -49.810  13.661  1.00  0.00    -0.247 OA
HETATM    4  N   UNL     1     -42.551 -49.433  11.494  1.00  0.00    -0.308 N 
HETATM    5  H   UNL     1     -42.801 -51.804  11.439  1.00  0.00     0.165 HD
HETATM    6  H   UNL     1     -43.376 -49.691  10.970  1.00  0.00     0.170 HD
ENDROOT
BRANCH   1   7
HETATM    7  C   UNL     1     -42.681 -52.558  13.452  1.00  0.00     0.044 C 
HETATM    8  C   UNL     1     -41.220 -52.888  13.817  1.00  0.00     0.039 C 
HETATM    9  C   UNL     1     -43.466 -52.136  14.723  1.00  0.00     0.046 C 
HETATM   10  C   UNL     1     -44.948 -52.450  14.542  1.00  0.00     0.143 C 
HETATM   11  S   UNL     1     -45.077 -53.693  13.280  1.00  0.00     0.146 S 
HETATM   12  O   UNL     1     -45.559 -54.929  13.869  1.00  0.00    -0.228 OA
HETATM   13  O   UNL     1     -45.676 -53.106  12.101  1.00  0.00    -0.228 OA
HETATM   14  C   UNL     1     -43.337 -53.864  12.966  1.00  0.00     0.170 C 
ENDBRANCH   1   7
BRANCH   4  15
HETATM   15  C   UNL     1     -42.213 -48.057  11.492  1.00  0.00     0.051 A 
HETATM   16  C   UNL     1     -40.946 -47.675  11.052  1.00  0.00     0.032 A 
HETATM   17  C   UNL     1     -40.634 -46.322  10.963  1.00  0.00     0.019 A 
HETATM   18  C   UNL     1     -41.580 -45.394  11.372  1.00  0.00     0.088 A 
HETATM   19  N   UNL     1     -42.796 -45.729  11.850  1.00  0.00    -0.373 N 
HETATM   20  C   UNL     1     -43.095 -47.050  11.882  1.00  0.00     0.117 A 
ATOM     21  HN  UNL     1     -43.458 -45.022  12.172  1.00  0.00     0.164 HD
ENDBRANCH   4  15
TORSDOF 2
ENDMDL
MODEL 7
REMARK VINA RESULT:      -5.3      3.135      6.604
REMARK  2 active torsions:
REMARK  status: ('A' for Active; 'I' for Inactive)
REMARK    1  A    between atoms: C_2  and  N_9 
REMARK       I    between atoms: N_9  and  C_10 
REMARK       I    between atoms: C_10  and  N_12 
REMARK    2  A    between atoms: N_12  and  C_13 
ROOT
HETATM    1  N   UNL     1     -42.182 -51.272  12.091  1.00  0.00    -0.333 N 
HETATM    2  C   UNL     1     -41.987 -49.904  12.163  1.00  0.00     0.321 C 
HETATM    3  O   UNL     1     -42.094 -49.267  13.204  1.00  0.00    -0.247 OA
HETATM    4  N   UNL     1     -41.742 -49.354  10.928  1.00  0.00    -0.308 N 
HETATM    5  H   UNL     1     -41.763 -51.713  11.280  1.00  0.00     0.165 HD
HETATM    6  H   UNL     1     -42.214 -49.823  10.166  1.00  0.00     0.170 HD
ENDROOT
BRANCH   1   7
HETATM    7  C   UNL     1     -42.522 -52.109  13.256  1.00  0.00     0.044 C 
HETATM    8  C   UNL     1     -43.895 -51.720  13.841  1.00  0.00     0.039 C 
HETATM    9  C   UNL     1     -42.506 -53.617  12.891  1.00  0.00     0.046 C 
HETATM   10  C   UNL     1     -41.077 -54.150  12.958  1.00  0.00     0.143 C 
HETATM   11  S   UNL     1     -40.148 -53.047  13.995  1.00  0.00     0.146 S 
HETATM   12  O   UNL     1     -39.766 -53.738  15.212  1.00  0.00    -0.228 OA
HETATM   13  O   UNL     1     -39.198 -52.322  13.179  1.00  0.00    -0.228 OA
HETATM   14  C   UNL     1     -41.481 -51.936  14.378  1.00  0.00     0.170 C 
ENDBRANCH   1   7
BRANCH   4  15
HETATM   15  C   UNL     1     -41.543 -47.960  10.777  1.00  0.00     0.051 A 
HETATM   16  C   UNL     1     -42.593 -47.178  10.295  1.00  0.00     0.032 A 
HETATM   17  C   UNL     1     -42.440 -45.798  10.224  1.00  0.00     0.019 A 
HETATM   18  C   UNL     1     -41.220 -45.246  10.585  1.00  0.00     0.088 A 
HETATM   19  N   UNL     1     -40.166 -45.975  11.008  1.00  0.00    -0.373 N 
HETATM   20  C   UNL     1     -40.355 -47.312  11.113  1.00  0.00     0.117 A 
ATOM     21  HN  UNL     1     -39.271 -45.541  11.237  1.00  0.00     0.164 HD
ENDBRANCH   4  15
TORSDOF 2
ENDMDL
MODEL 8
REMARK VINA RESULT:      -5.3      4.945      7.177
REMARK  2 active torsions:
REMARK  status: ('A' for Active; 'I' for Inactive)
REMARK    1  A    between atoms: C_2  and  N_9 
REMARK       I    between atoms: N_9  and  C_10 
REMARK       I    between atoms: C_10  and  N_12 
REMARK    2  A    between atoms: N_12  and  C_13 
ROOT
HETATM    1  N   UNL     1     -42.974 -52.420  14.889  1.00  0.00    -0.333 N 
HETATM    2  C   UNL     1     -41.820 -52.219  14.154  1.00  0.00     0.321 C 
HETATM    3  O   UNL     1     -40.987 -53.097  13.962  1.00  0.00    -0.247 OA
HETATM    4  N   UNL     1     -41.692 -50.913  13.744  1.00  0.00    -0.308 N 
HETATM    5  H   UNL     1     -43.708 -51.745  14.710  1.00  0.00     0.165 HD
HETATM    6  H   UNL     1     -42.081 -50.239  14.389  1.00  0.00     0.170 HD
ENDROOT
BRANCH   1   7
HETATM    7  C   UNL     1     -43.334 -53.711  15.504  1.00  0.00     0.044 C 
HETATM    8  C   UNL     1     -42.226 -54.204  16.456  1.00  0.00     0.039 C 
HETATM    9  C   UNL     1     -44.685 -53.618  16.262  1.00  0.00     0.046 C 
HETATM   10  C   UNL     1     -45.841 -53.792  15.281  1.00  0.00     0.143 C 
HETATM   11  S   UNL     1     -45.201 -54.628  13.851  1.00  0.00     0.146 S 
HETATM   12  O   UNL     1     -45.788 -55.952  13.764  1.00  0.00    -0.228 OA
HETATM   13  O   UNL     1     -45.185 -53.707  12.735  1.00  0.00    -0.228 OA
HETATM   14  C   UNL     1     -43.528 -54.795  14.428  1.00  0.00     0.170 C 
ENDBRANCH   1   7
BRANCH   4  15
HETATM   15  C   UNL     1     -40.563 -50.489  13.002  1.00  0.00     0.051 A 
HETATM   16  C   UNL     1     -39.393 -50.158  13.685  1.00  0.00     0.032 A 
HETATM   17  C   UNL     1     -38.252 -49.824  12.964  1.00  0.00     0.019 A 
HETATM   18  C   UNL     1     -38.332 -49.777  11.580  1.00  0.00     0.088 A 
HETATM   19  N   UNL     1     -39.459 -50.042  10.887  1.00  0.00    -0.373 N 
HETATM   20  C   UNL     1     -40.544 -50.411  11.610  1.00  0.00     0.117 A 
ATOM     21  HN  UNL     1     -39.493 -49.968   9.870  1.00  0.00     0.164 HD
ENDBRANCH   4  15
TORSDOF 2
ENDMDL
MODEL 9
REMARK VINA RESULT:      -5.2      3.490      5.069
REMARK  2 active torsions:
REMARK  status: ('A' for Active; 'I' for Inactive)
REMARK    1  A    between atoms: C_2  and  N_9 
REMARK       I    between atoms: N_9  and  C_10 
REMARK       I    between atoms: C_10  and  N_12 
REMARK    2  A    between atoms: N_12  and  C_13 
ROOT
HETATM    1  N   UNL     1     -40.745 -51.271  12.580  1.00  0.00    -0.333 N 
HETATM    2  C   UNL     1     -41.883 -51.587  13.298  1.00  0.00     0.321 C 
HETATM    3  O   UNL     1     -41.891 -51.723  14.516  1.00  0.00    -0.247 OA
HETATM    4  N   UNL     1     -42.965 -51.804  12.477  1.00  0.00    -0.308 N 
HETATM    5  H   UNL     1     -40.923 -50.881  11.662  1.00  0.00     0.165 HD
HETATM    6  H   UNL     1     -42.728 -52.205  11.580  1.00  0.00     0.170 HD
ENDROOT
BRANCH   1   7
HETATM    7  C   UNL     1     -39.426 -51.047  13.200  1.00  0.00     0.044 C 
HETATM    8  C   UNL     1     -38.949 -52.298  13.965  1.00  0.00     0.039 C 
HETATM    9  C   UNL     1     -38.368 -50.632  12.144  1.00  0.00     0.046 C 
HETATM   10  C   UNL     1     -38.467 -49.133  11.874  1.00  0.00     0.143 C 
HETATM   11  S   UNL     1     -39.274 -48.395  13.274  1.00  0.00     0.146 S 
HETATM   12  O   UNL     1     -38.334 -47.543  13.978  1.00  0.00    -0.228 OA
HETATM   13  O   UNL     1     -40.589 -47.942  12.874  1.00  0.00    -0.228 OA
HETATM   14  C   UNL     1     -39.487 -49.888  14.214  1.00  0.00     0.170 C 
ENDBRANCH   1   7
BRANCH   4  15
HETATM   15  C   UNL     1     -44.224 -52.170  13.012  1.00  0.00     0.051 A 
HETATM   16  C   UNL     1     -45.049 -51.174  13.536  1.00  0.00     0.032 A 
HETATM   17  C   UNL     1     -46.322 -51.508  13.985  1.00  0.00     0.019 A 
HETATM   18  C   UNL     1     -46.710 -52.839  13.948  1.00  0.00     0.088 A 
HETATM   19  N   UNL     1     -45.922 -53.836  13.495  1.00  0.00    -0.373 N 
HETATM   20  C   UNL     1     -44.704 -53.479  13.020  1.00  0.00     0.117 A 
ATOM     21  HN  UNL     1     -46.227 -54.810  13.510  1.00  0.00     0.164 HD
ENDBRANCH   4  15
TORSDOF 2
ENDMDL
