MODEL 1
REMARK VINA RESULT:      -6.7      0.000      0.000
REMARK  4 active torsions:
REMARK  status: ('A' for Active; 'I' for Inactive)
REMARK    1  A    between atoms: O_1  and  C_2 
REMARK    2  A    between atoms: C_2  and  C_3 
REMARK    3  A    between atoms: C_2  and  C_16 
REMARK    4  A    between atoms: C_3  and  N_4 
ROOT
HETATM    1  N   UNL     1     -41.164 -47.607  11.414  1.00  0.00    -0.338 N 
HETATM    2  C   UNL     1     -40.280 -46.636  11.032  1.00  0.00     0.184 A 
HETATM    3  N   UNL     1     -40.826 -45.779  10.201  1.00  0.00    -0.350 N 
ATOM      4  HN  UNL     1     -40.385 -44.963   9.776  1.00  0.00     0.166 HD
HETATM    5  C   UNL     1     -42.113 -46.212  10.026  1.00  0.00     0.063 A 
HETATM    6  C   UNL     1     -43.136 -45.655   9.245  1.00  0.00     0.077 A 
HETATM    7  C   UNL     1     -44.374 -46.294   9.226  1.00  0.00     0.157 A 
HETATM    8  F   UNL     1     -45.365 -45.771   8.489  1.00  0.00    -0.203 F 
HETATM    9  C   UNL     1     -44.595 -47.459   9.954  1.00  0.00     0.157 A 
HETATM   10  F   UNL     1     -45.795 -48.055   9.909  1.00  0.00    -0.203 F 
HETATM   11  C   UNL     1     -43.591 -48.034  10.738  1.00  0.00     0.077 A 
HETATM   12  C   UNL     1     -42.354 -47.376  10.761  1.00  0.00     0.065 A 
ENDROOT
BRANCH   1  13
HETATM   13  C   UNL     1     -40.841 -48.714  12.291  1.00  0.00     0.166 C 
BRANCH  13  14
HETATM   14  C   UNL     1     -40.031 -49.847  11.636  1.00  0.00     0.169 C 
BRANCH  14  15
HETATM   15  O   UNL     1     -40.424 -50.045  10.277  1.00  0.00    -0.389 OA
HETATM   16  H   UNL     1     -39.883 -49.465   9.717  1.00  0.00     0.210 HD
ENDBRANCH  14  15
BRANCH  14  17
HETATM   17  C   UNL     1     -40.055 -51.169  12.381  1.00  0.00    -0.028 A 
HETATM   18  C   UNL     1     -39.113 -51.427  13.393  1.00  0.00     0.013 A 
HETATM   19  C   UNL     1     -39.078 -52.669  14.033  1.00  0.00     0.043 A 
HETATM   20  C   UNL     1     -39.987 -53.655  13.670  1.00  0.00     0.116 A 
HETATM   21  F   UNL     1     -39.931 -54.855  14.263  1.00  0.00    -0.206 F 
HETATM   22  C   UNL     1     -40.945 -53.416  12.694  1.00  0.00     0.043 A 
HETATM   23  C   UNL     1     -40.983 -52.175  12.056  1.00  0.00     0.013 A 
ENDBRANCH  14  17
ENDBRANCH  13  14
ENDBRANCH   1  13
TORSDOF 4
ENDMDL
MODEL 2
REMARK VINA RESULT:      -6.6      2.952      4.296
REMARK  4 active torsions:
REMARK  status: ('A' for Active; 'I' for Inactive)
REMARK    1  A    between atoms: O_1  and  C_2 
REMARK    2  A    between atoms: C_2  and  C_3 
REMARK    3  A    between atoms: C_2  and  C_16 
REMARK    4  A    between atoms: C_3  and  N_4 
ROOT
HETATM    1  N   UNL     1     -39.690 -51.284  13.170  1.00  0.00    -0.338 N 
HETATM    2  C   UNL     1     -38.391 -50.987  12.858  1.00  0.00     0.184 A 
HETATM    3  N   UNL     1     -38.298 -49.873  12.169  1.00  0.00    -0.350 N 
ATOM      4  HN  UNL     1     -37.447 -49.431  11.822  1.00  0.00     0.166 HD
HETATM    5  C   UNL     1     -39.585 -49.432  12.017  1.00  0.00     0.063 A 
HETATM    6  C   UNL     1     -40.054 -48.280  11.368  1.00  0.00     0.077 A 
HETATM    7  C   UNL     1     -41.428 -48.051  11.342  1.00  0.00     0.157 A 
HETATM    8  F   UNL     1     -41.893 -46.951  10.731  1.00  0.00    -0.203 F 
HETATM    9  C   UNL     1     -42.318 -48.941  11.935  1.00  0.00     0.157 A 
HETATM   10  F   UNL     1     -43.635 -48.697  11.886  1.00  0.00    -0.203 F 
HETATM   11  C   UNL     1     -41.875 -50.096  12.586  1.00  0.00     0.077 A 
HETATM   12  C   UNL     1     -40.491 -50.309  12.618  1.00  0.00     0.065 A 
ENDROOT
BRANCH   1  13
HETATM   13  C   UNL     1     -40.113 -52.470  13.887  1.00  0.00     0.166 C 
BRANCH  13  14
HETATM   14  C   UNL     1     -40.728 -53.574  13.010  1.00  0.00     0.169 C 
BRANCH  14  15
HETATM   15  O   UNL     1     -40.563 -53.284  11.621  1.00  0.00    -0.389 OA
HETATM   16  H   UNL     1     -41.435 -53.324  11.195  1.00  0.00     0.210 HD
ENDBRANCH  14  15
BRANCH  14  17
HETATM   17  C   UNL     1     -42.183 -53.894  13.303  1.00  0.00    -0.028 A 
HETATM   18  C   UNL     1     -42.524 -54.663  14.430  1.00  0.00     0.013 A 
HETATM   19  C   UNL     1     -43.852 -55.026  14.668  1.00  0.00     0.043 A 
HETATM   20  C   UNL     1     -44.845 -54.617  13.787  1.00  0.00     0.116 A 
HETATM   21  F   UNL     1     -46.113 -54.993  14.000  1.00  0.00    -0.206 F 
HETATM   22  C   UNL     1     -44.539 -53.833  12.683  1.00  0.00     0.043 A 
HETATM   23  C   UNL     1     -43.213 -53.467  12.445  1.00  0.00     0.013 A 
ENDBRANCH  14  17
ENDBRANCH  13  14
ENDBRANCH   1  13
TORSDOF 4
ENDMDL
MODEL 3
REMARK VINA RESULT:      -6.5      3.526      6.561
REMARK  4 active torsions:
REMARK  status: ('A' for Active; 'I' for Inactive)
REMARK    1  A    between atoms: O_1  and  C_2 
REMARK    2  A    between atoms: C_2  and  C_3 
REMARK    3  A    between atoms: C_2  and  C_16 
REMARK    4  A    between atoms: C_3  and  N_4 
ROOT
HETATM    1  N   UNL     1     -41.609 -51.499  12.529  1.00  0.00    -0.338 N 
HETATM    2  C   UNL     1     -41.002 -52.673  12.178  1.00  0.00     0.184 A 
HETATM    3  N   UNL     1     -41.827 -53.692  12.261  1.00  0.00    -0.350 N 
ATOM      4  HN  UNL     1     -41.626 -54.669  12.049  1.00  0.00     0.166 HD
HETATM    5  C   UNL     1     -43.014 -53.163  12.691  1.00  0.00     0.063 A 
HETATM    6  C   UNL     1     -44.234 -53.811  12.937  1.00  0.00     0.077 A 
HETATM    7  C   UNL     1     -45.310 -53.046  13.381  1.00  0.00     0.157 A 
HETATM    8  F   UNL     1     -46.485 -53.649  13.614  1.00  0.00    -0.203 F 
HETATM    9  C   UNL     1     -45.183 -51.676  13.587  1.00  0.00     0.157 A 
HETATM   10  F   UNL     1     -46.235 -50.968  14.023  1.00  0.00    -0.203 F 
HETATM   11  C   UNL     1     -43.979 -51.008  13.351  1.00  0.00     0.077 A 
HETATM   12  C   UNL     1     -42.907 -51.785  12.891  1.00  0.00     0.065 A 
ENDROOT
BRANCH   1  13
HETATM   13  C   UNL     1     -40.945 -50.212  12.577  1.00  0.00     0.166 C 
BRANCH  13  14
HETATM   14  C   UNL     1     -41.139 -49.333  11.329  1.00  0.00     0.169 C 
BRANCH  14  15
HETATM   15  O   UNL     1     -40.447 -49.875  10.202  1.00  0.00    -0.389 OA
HETATM   16  H   UNL     1     -40.957 -50.632   9.868  1.00  0.00     0.210 HD
ENDBRANCH  14  15
BRANCH  14  17
HETATM   17  C   UNL     1     -40.772 -47.871  11.507  1.00  0.00    -0.028 A 
HETATM   18  C   UNL     1     -41.218 -46.913  10.578  1.00  0.00     0.013 A 
HETATM   19  C   UNL     1     -40.824 -45.577  10.691  1.00  0.00     0.043 A 
HETATM   20  C   UNL     1     -39.992 -45.191  11.734  1.00  0.00     0.116 A 
HETATM   21  F   UNL     1     -39.590 -43.915  11.822  1.00  0.00    -0.206 F 
HETATM   22  C   UNL     1     -39.562 -46.111  12.681  1.00  0.00     0.043 A 
HETATM   23  C   UNL     1     -39.956 -47.446  12.571  1.00  0.00     0.013 A 
ENDBRANCH  14  17
ENDBRANCH  13  14
ENDBRANCH   1  13
TORSDOF 4
ENDMDL
MODEL 4
REMARK VINA RESULT:      -6.5      4.458      6.157
REMARK  4 active torsions:
REMARK  status: ('A' for Active; 'I' for Inactive)
REMARK    1  A    between atoms: O_1  and  C_2 
REMARK    2  A    between atoms: C_2  and  C_3 
REMARK    3  A    between atoms: C_2  and  C_16 
REMARK    4  A    between atoms: C_3  and  N_4 
ROOT
HETATM    1  N   UNL     1     -40.428 -50.427  12.201  1.00  0.00    -0.338 N 
HETATM    2  C   UNL     1     -40.043 -49.633  11.156  1.00  0.00     0.184 A 
HETATM    3  N   UNL     1     -38.953 -48.955  11.434  1.00  0.00    -0.350 N 
ATOM      4  HN  UNL     1     -38.460 -48.302  10.826  1.00  0.00     0.166 HD
HETATM    5  C   UNL     1     -38.619 -49.313  12.712  1.00  0.00     0.063 A 
HETATM    6  C   UNL     1     -37.534 -48.891  13.495  1.00  0.00     0.077 A 
HETATM    7  C   UNL     1     -37.414 -49.400  14.786  1.00  0.00     0.157 A 
HETATM    8  F   UNL     1     -36.379 -49.013  15.545  1.00  0.00    -0.203 F 
HETATM    9  C   UNL     1     -38.347 -50.298  15.296  1.00  0.00     0.157 A 
HETATM   10  F   UNL     1     -38.209 -50.764  16.545  1.00  0.00    -0.203 F 
HETATM   11  C   UNL     1     -39.437 -50.732  14.537  1.00  0.00     0.077 A 
HETATM   12  C   UNL     1     -39.541 -50.224  13.235  1.00  0.00     0.065 A 
ENDROOT
BRANCH   1  13
HETATM   13  C   UNL     1     -41.614 -51.258  12.208  1.00  0.00     0.166 C 
BRANCH  13  14
HETATM   14  C   UNL     1     -41.375 -52.728  12.595  1.00  0.00     0.169 C 
BRANCH  14  15
HETATM   15  O   UNL     1     -40.705 -53.436  11.550  1.00  0.00    -0.389 OA
HETATM   16  H   UNL     1     -39.761 -53.485  11.773  1.00  0.00     0.210 HD
ENDBRANCH  14  15
BRANCH  14  17
HETATM   17  C   UNL     1     -42.615 -53.491  13.025  1.00  0.00    -0.028 A 
HETATM   18  C   UNL     1     -43.838 -53.281  12.362  1.00  0.00     0.013 A 
HETATM   19  C   UNL     1     -45.001 -53.922  12.798  1.00  0.00     0.043 A 
HETATM   20  C   UNL     1     -44.947 -54.778  13.889  1.00  0.00     0.116 A 
HETATM   21  F   UNL     1     -46.070 -55.366  14.324  1.00  0.00    -0.206 F 
HETATM   22  C   UNL     1     -43.747 -55.025  14.542  1.00  0.00     0.043 A 
HETATM   23  C   UNL     1     -42.583 -54.388  14.108  1.00  0.00     0.013 A 
ENDBRANCH  14  17
ENDBRANCH  13  14
ENDBRANCH   1  13
TORSDOF 4
ENDMDL
MODEL 5
REMARK VINA RESULT:      -6.4      4.965      6.295
REMARK  4 active torsions:
REMARK  status: ('A' for Active; 'I' for Inactive)
REMARK    1  A    between atoms: O_1  and  C_2 
REMARK    2  A    between atoms: C_2  and  C_3 
REMARK    3  A    between atoms: C_2  and  C_16 
REMARK    4  A    between atoms: C_3  and  N_4 
ROOT
HETATM    1  N   UNL     1     -41.978 -53.223  12.935  1.00  0.00    -0.338 N 
HETATM    2  C   UNL     1     -41.786 -51.934  12.520  1.00  0.00     0.184 A 
HETATM    3  N   UNL     1     -42.899 -51.238  12.560  1.00  0.00    -0.350 N 
ATOM      4  HN  UNL     1     -43.024 -50.258  12.310  1.00  0.00     0.166 HD
HETATM    5  C   UNL     1     -43.856 -52.109  13.008  1.00  0.00     0.063 A 
HETATM    6  C   UNL     1     -45.220 -51.881  13.244  1.00  0.00     0.077 A 
HETATM    7  C   UNL     1     -45.997 -52.944  13.699  1.00  0.00     0.157 A 
HETATM    8  F   UNL     1     -47.301 -52.741  13.935  1.00  0.00    -0.203 F 
HETATM    9  C   UNL     1     -45.445 -54.204  13.907  1.00  0.00     0.157 A 
HETATM   10  F   UNL     1     -46.221 -55.209  14.338  1.00  0.00    -0.203 F 
HETATM   11  C   UNL     1     -44.089 -54.456  13.678  1.00  0.00     0.077 A 
HETATM   12  C   UNL     1     -43.313 -53.377  13.235  1.00  0.00     0.065 A 
ENDROOT
BRANCH   1  13
HETATM   13  C   UNL     1     -40.947 -54.241  12.961  1.00  0.00     0.166 C 
BRANCH  13  14
HETATM   14  C   UNL     1     -39.832 -54.010  13.996  1.00  0.00     0.169 C 
BRANCH  14  15
HETATM   15  O   UNL     1     -38.539 -54.149  13.403  1.00  0.00    -0.389 OA
HETATM   16  H   UNL     1     -37.880 -53.807  14.028  1.00  0.00     0.210 HD
ENDBRANCH  14  15
BRANCH  14  17
HETATM   17  C   UNL     1     -39.924 -54.868  15.244  1.00  0.00    -0.028 A 
HETATM   18  C   UNL     1     -38.760 -55.419  15.810  1.00  0.00     0.013 A 
HETATM   19  C   UNL     1     -38.842 -56.271  16.914  1.00  0.00     0.043 A 
HETATM   20  C   UNL     1     -40.083 -56.570  17.463  1.00  0.00     0.116 A 
HETATM   21  F   UNL     1     -40.161 -57.413  18.502  1.00  0.00    -0.206 F 
HETATM   22  C   UNL     1     -41.244 -56.015  16.941  1.00  0.00     0.043 A 
HETATM   23  C   UNL     1     -41.164 -55.162  15.839  1.00  0.00     0.013 A 
ENDBRANCH  14  17
ENDBRANCH  13  14
ENDBRANCH   1  13
TORSDOF 4
ENDMDL
MODEL 6
REMARK VINA RESULT:      -6.4      4.869      8.539
REMARK  4 active torsions:
REMARK  status: ('A' for Active; 'I' for Inactive)
REMARK    1  A    between atoms: O_1  and  C_2 
REMARK    2  A    between atoms: C_2  and  C_3 
REMARK    3  A    between atoms: C_2  and  C_16 
REMARK    4  A    between atoms: C_3  and  N_4 
ROOT
HETATM    1  N   UNL     1     -40.112 -53.683  14.220  1.00  0.00    -0.338 N 
HETATM    2  C   UNL     1     -38.863 -54.231  14.119  1.00  0.00     0.184 A 
HETATM    3  N   UNL     1     -38.677 -55.185  15.002  1.00  0.00    -0.350 N 
ATOM      4  HN  UNL     1     -37.840 -55.753  15.131  1.00  0.00     0.166 HD
HETATM    5  C   UNL     1     -39.845 -55.255  15.712  1.00  0.00     0.063 A 
HETATM    6  C   UNL     1     -40.188 -56.112  16.769  1.00  0.00     0.077 A 
HETATM    7  C   UNL     1     -41.453 -55.983  17.339  1.00  0.00     0.157 A 
HETATM    8  F   UNL     1     -41.800 -56.798  18.345  1.00  0.00    -0.203 F 
HETATM    9  C   UNL     1     -42.354 -55.025  16.884  1.00  0.00     0.157 A 
HETATM   10  F   UNL     1     -43.560 -54.919  17.459  1.00  0.00    -0.203 F 
HETATM   11  C   UNL     1     -42.035 -54.159  15.834  1.00  0.00     0.077 A 
HETATM   12  C   UNL     1     -40.766 -54.307  15.259  1.00  0.00     0.065 A 
ENDROOT
BRANCH   1  13
HETATM   13  C   UNL     1     -40.595 -52.583  13.409  1.00  0.00     0.166 C 
BRANCH  13  14
HETATM   14  C   UNL     1     -41.673 -52.961  12.378  1.00  0.00     0.169 C 
BRANCH  14  15
HETATM   15  O   UNL     1     -41.321 -52.506  11.071  1.00  0.00    -0.389 OA
HETATM   16  H   UNL     1     -40.382 -52.256  11.078  1.00  0.00     0.210 HD
ENDBRANCH  14  15
BRANCH  14  17
HETATM   17  C   UNL     1     -43.080 -52.507  12.723  1.00  0.00    -0.028 A 
HETATM   18  C   UNL     1     -44.183 -53.321  12.404  1.00  0.00     0.013 A 
HETATM   19  C   UNL     1     -45.486 -52.880  12.649  1.00  0.00     0.043 A 
HETATM   20  C   UNL     1     -45.694 -51.630  13.218  1.00  0.00     0.116 A 
HETATM   21  F   UNL     1     -46.945 -51.197  13.422  1.00  0.00    -0.206 F 
HETATM   22  C   UNL     1     -44.622 -50.820  13.568  1.00  0.00     0.043 A 
HETATM   23  C   UNL     1     -43.319 -51.260  13.327  1.00  0.00     0.013 A 
ENDBRANCH  14  17
ENDBRANCH  13  14
ENDBRANCH   1  13
TORSDOF 4
ENDMDL
MODEL 7
REMARK VINA RESULT:      -6.4      5.353      7.976
REMARK  4 active torsions:
REMARK  status: ('A' for Active; 'I' for Inactive)
REMARK    1  A    between atoms: O_1  and  C_2 
REMARK    2  A    between atoms: C_2  and  C_3 
REMARK    3  A    between atoms: C_2  and  C_16 
REMARK    4  A    between atoms: C_3  and  N_4 
ROOT
HETATM    1  N   UNL     1     -44.411 -53.650  13.425  1.00  0.00    -0.338 N 
HETATM    2  C   UNL     1     -44.630 -54.628  14.356  1.00  0.00     0.184 A 
HETATM    3  N   UNL     1     -43.508 -55.059  14.883  1.00  0.00    -0.350 N 
ATOM      4  HN  UNL     1     -43.397 -55.776  15.600  1.00  0.00     0.166 HD
HETATM    5  C   UNL     1     -42.518 -54.342  14.266  1.00  0.00     0.063 A 
HETATM    6  C   UNL     1     -41.130 -54.400  14.463  1.00  0.00     0.077 A 
HETATM    7  C   UNL     1     -40.320 -53.564  13.698  1.00  0.00     0.157 A 
HETATM    8  F   UNL     1     -38.992 -53.601  13.879  1.00  0.00    -0.203 F 
HETATM    9  C   UNL     1     -40.865 -52.697  12.756  1.00  0.00     0.157 A 
HETATM   10  F   UNL     1     -40.059 -51.911  12.029  1.00  0.00    -0.203 F 
HETATM   11  C   UNL     1     -42.244 -52.623  12.540  1.00  0.00     0.077 A 
HETATM   12  C   UNL     1     -43.051 -53.459  13.325  1.00  0.00     0.065 A 
ENDROOT
BRANCH   1  13
HETATM   13  C   UNL     1     -45.450 -53.010  12.644  1.00  0.00     0.166 C 
BRANCH  13  14
HETATM   14  C   UNL     1     -45.771 -51.562  13.051  1.00  0.00     0.169 C 
BRANCH  14  15
HETATM   15  O   UNL     1     -44.824 -50.646  12.498  1.00  0.00    -0.389 OA
HETATM   16  H   UNL     1     -44.803 -49.854  13.059  1.00  0.00     0.210 HD
ENDBRANCH  14  15
BRANCH  14  17
HETATM   17  C   UNL     1     -45.906 -51.328  14.545  1.00  0.00    -0.028 A 
HETATM   18  C   UNL     1     -47.114 -51.630  15.201  1.00  0.00     0.013 A 
HETATM   19  C   UNL     1     -47.273 -51.349  16.560  1.00  0.00     0.043 A 
HETATM   20  C   UNL     1     -46.229 -50.773  17.271  1.00  0.00     0.116 A 
HETATM   21  F   UNL     1     -46.396 -50.475  18.567  1.00  0.00    -0.206 F 
HETATM   22  C   UNL     1     -45.017 -50.492  16.654  1.00  0.00     0.043 A 
HETATM   23  C   UNL     1     -44.854 -50.774  15.297  1.00  0.00     0.013 A 
ENDBRANCH  14  17
ENDBRANCH  13  14
ENDBRANCH   1  13
TORSDOF 4
ENDMDL
MODEL 8
REMARK VINA RESULT:      -6.3      4.665      6.549
REMARK  4 active torsions:
REMARK  status: ('A' for Active; 'I' for Inactive)
REMARK    1  A    between atoms: O_1  and  C_2 
REMARK    2  A    between atoms: C_2  and  C_3 
REMARK    3  A    between atoms: C_2  and  C_16 
REMARK    4  A    between atoms: C_3  and  N_4 
ROOT
HETATM    1  N   UNL     1     -43.563 -52.936  13.397  1.00  0.00    -0.338 N 
HETATM    2  C   UNL     1     -44.277 -53.840  12.660  1.00  0.00     0.184 A 
HETATM    3  N   UNL     1     -45.558 -53.800  12.947  1.00  0.00    -0.350 N 
ATOM      4  HN  UNL     1     -46.301 -54.363  12.535  1.00  0.00     0.166 HD
HETATM    5  C   UNL     1     -45.683 -52.840  13.915  1.00  0.00     0.063 A 
HETATM    6  C   UNL     1     -46.839 -52.388  14.569  1.00  0.00     0.077 A 
HETATM    7  C   UNL     1     -46.704 -51.393  15.535  1.00  0.00     0.157 A 
HETATM    8  F   UNL     1     -47.800 -50.945  16.165  1.00  0.00    -0.203 F 
HETATM    9  C   UNL     1     -45.458 -50.863  15.855  1.00  0.00     0.157 A 
HETATM   10  F   UNL     1     -45.360 -49.913  16.795  1.00  0.00    -0.203 F 
HETATM   11  C   UNL     1     -44.292 -51.298  15.219  1.00  0.00     0.077 A 
HETATM   12  C   UNL     1     -44.440 -52.289  14.239  1.00  0.00     0.065 A 
ENDROOT
BRANCH   1  13
HETATM   13  C   UNL     1     -42.124 -52.776  13.334  1.00  0.00     0.166 C 
BRANCH  13  14
HETATM   14  C   UNL     1     -41.586 -52.268  11.984  1.00  0.00     0.169 C 
BRANCH  14  15
HETATM   15  O   UNL     1     -40.609 -53.163  11.448  1.00  0.00    -0.389 OA
HETATM   16  H   UNL     1     -40.663 -53.126  10.479  1.00  0.00     0.210 HD
ENDBRANCH  14  15
BRANCH  14  17
HETATM   17  C   UNL     1     -41.039 -50.853  12.001  1.00  0.00    -0.028 A 
HETATM   18  C   UNL     1     -41.918 -49.756  12.056  1.00  0.00     0.013 A 
HETATM   19  C   UNL     1     -41.429 -48.449  11.996  1.00  0.00     0.043 A 
HETATM   20  C   UNL     1     -40.061 -48.230  11.888  1.00  0.00     0.116 A 
HETATM   21  F   UNL     1     -39.597 -46.977  11.798  1.00  0.00    -0.206 F 
HETATM   22  C   UNL     1     -39.170 -49.295  11.860  1.00  0.00     0.043 A 
HETATM   23  C   UNL     1     -39.657 -50.602  11.923  1.00  0.00     0.013 A 
ENDBRANCH  14  17
ENDBRANCH  13  14
ENDBRANCH   1  13
TORSDOF 4
ENDMDL
MODEL 9
REMARK VINA RESULT:      -6.3      5.148      6.979
REMARK  4 active torsions:
REMARK  status: ('A' for Active; 'I' for Inactive)
REMARK    1  A    between atoms: O_1  and  C_2 
REMARK    2  A    between atoms: C_2  and  C_3 
REMARK    3  A    between atoms: C_2  and  C_16 
REMARK    4  A    between atoms: C_3  and  N_4 
ROOT
HETATM    1  N   UNL     1     -40.394 -52.468  13.186  1.00  0.00    -0.338 N 
HETATM    2  C   UNL     1     -40.827 -51.853  12.043  1.00  0.00     0.184 A 
HETATM    3  N   UNL     1     -42.049 -52.217  11.727  1.00  0.00    -0.350 N 
ATOM      4  HN  UNL     1     -42.601 -51.900  10.930  1.00  0.00     0.166 HD
HETATM    5  C   UNL     1     -42.424 -53.110  12.694  1.00  0.00     0.063 A 
HETATM    6  C   UNL     1     -43.638 -53.797  12.841  1.00  0.00     0.077 A 
HETATM    7  C   UNL     1     -43.776 -54.669  13.919  1.00  0.00     0.157 A 
HETATM    8  F   UNL     1     -44.932 -55.329  14.079  1.00  0.00    -0.203 F 
HETATM    9  C   UNL     1     -42.737 -54.866  14.825  1.00  0.00     0.157 A 
HETATM   10  F   UNL     1     -42.898 -55.718  15.847  1.00  0.00    -0.203 F 
HETATM   11  C   UNL     1     -41.518 -54.194  14.699  1.00  0.00     0.077 A 
HETATM   12  C   UNL     1     -41.395 -53.309  13.619  1.00  0.00     0.065 A 
ENDROOT
BRANCH   1  13
HETATM   13  C   UNL     1     -39.075 -52.300  13.760  1.00  0.00     0.166 C 
BRANCH  13  14
HETATM   14  C   UNL     1     -38.236 -51.168  13.142  1.00  0.00     0.169 C 
BRANCH  14  15
HETATM   15  O   UNL     1     -37.120 -51.688  12.417  1.00  0.00    -0.389 OA
HETATM   16  H   UNL     1     -36.317 -51.243  12.734  1.00  0.00     0.210 HD
ENDBRANCH  14  15
BRANCH  14  17
HETATM   17  C   UNL     1     -37.769 -50.105  14.120  1.00  0.00    -0.028 A 
HETATM   18  C   UNL     1     -37.677 -48.762  13.712  1.00  0.00     0.013 A 
HETATM   19  C   UNL     1     -37.177 -47.788  14.580  1.00  0.00     0.043 A 
HETATM   20  C   UNL     1     -36.775 -48.148  15.860  1.00  0.00     0.116 A 
HETATM   21  F   UNL     1     -36.266 -47.218  16.679  1.00  0.00    -0.206 F 
HETATM   22  C   UNL     1     -36.883 -49.462  16.297  1.00  0.00     0.043 A 
HETATM   23  C   UNL     1     -37.384 -50.436  15.432  1.00  0.00     0.013 A 
ENDBRANCH  14  17
ENDBRANCH  13  14
ENDBRANCH   1  13
TORSDOF 4
ENDMDL
