MODEL 1
REMARK VINA RESULT:      -5.9      0.000      0.000
REMARK  3 active torsions:
REMARK  status: ('A' for Active; 'I' for Inactive)
REMARK    1  A    between atoms: C_8  and  N_9 
REMARK       I    between atoms: N_9  and  C_10 
REMARK       I    between atoms: C_10  and  N_12 
REMARK    2  A    between atoms: N_12  and  C_13 
REMARK    3  A    between atoms: C_13  and  C_14 
ROOT
HETATM    1  N   UNL     1     -40.031 -51.245  11.686  1.00  0.00    -0.294 N 
HETATM    2  C   UNL     1     -40.604 -52.147  12.528  1.00  0.00     0.321 C 
HETATM    3  O   UNL     1     -40.235 -53.320  12.492  1.00  0.00    -0.247 OA
HETATM    4  N   UNL     1     -41.522 -51.688  13.431  1.00  0.00    -0.342 N 
HETATM    5  H   UNL     1     -39.286 -51.650  11.142  1.00  0.00     0.172 HD
HETATM    6  H   UNL     1     -41.955 -50.802  13.162  1.00  0.00     0.164 HD
ENDROOT
BRANCH   1   7
HETATM    7  C   UNL     1     -40.332 -49.889  11.501  1.00  0.00     0.114 A 
HETATM    8  C   UNL     1     -39.432 -48.909  11.947  1.00  0.00    -0.018 A 
HETATM    9  C   UNL     1     -38.144 -49.217  12.656  1.00  0.00     0.052 C 
HETATM   10  C   UNL     1     -39.772 -47.566  11.728  1.00  0.00     0.012 A 
HETATM   11  C   UNL     1     -40.958 -47.243  11.080  1.00  0.00     0.018 A 
HETATM   12  C   UNL     1     -41.774 -48.276  10.671  1.00  0.00     0.089 A 
HETATM   13  N   UNL     1     -41.493 -49.579  10.873  1.00  0.00    -0.352 N 
ATOM     14  HN  UNL     1     -42.135 -50.310  10.563  1.00  0.00     0.166 HD
ENDBRANCH   1   7
BRANCH   4  15
HETATM   15  C   UNL     1     -42.175 -52.603  14.341  1.00  0.00     0.131 C 
BRANCH  15  16
HETATM   16  C   UNL     1     -43.595 -53.032  13.981  1.00  0.00     0.029 C 
HETATM   17  C   UNL     1     -44.079 -54.325  14.607  1.00  0.00     0.034 C 
HETATM   18  C   UNL     1     -45.185 -54.782  13.670  1.00  0.00     0.168 C 
HETATM   19  O   UNL     1     -45.105 -53.994  12.475  1.00  0.00    -0.391 OA
HETATM   20  C   UNL     1     -43.875 -53.252  12.513  1.00  0.00     0.173 C 
ENDBRANCH  15  16
ENDBRANCH   4  15
TORSDOF 3
ENDMDL
MODEL 2
REMARK VINA RESULT:      -5.9      3.112      6.383
REMARK  3 active torsions:
REMARK  status: ('A' for Active; 'I' for Inactive)
REMARK    1  A    between atoms: C_8  and  N_9 
REMARK       I    between atoms: N_9  and  C_10 
REMARK       I    between atoms: C_10  and  N_12 
REMARK    2  A    between atoms: N_12  and  C_13 
REMARK    3  A    between atoms: C_13  and  C_14 
ROOT
HETATM    1  N   UNL     1     -42.436 -51.550  13.022  1.00  0.00    -0.294 N 
HETATM    2  C   UNL     1     -41.753 -50.580  12.356  1.00  0.00     0.321 C 
HETATM    3  O   UNL     1     -40.523 -50.604  12.355  1.00  0.00    -0.247 OA
HETATM    4  N   UNL     1     -42.475 -49.654  11.656  1.00  0.00    -0.342 N 
HETATM    5  H   UNL     1     -41.823 -52.252  13.407  1.00  0.00     0.172 HD
HETATM    6  H   UNL     1     -43.441 -49.556  11.980  1.00  0.00     0.164 HD
ENDROOT
BRANCH   1   7
HETATM    7  C   UNL     1     -43.815 -51.689  13.218  1.00  0.00     0.114 A 
HETATM    8  C   UNL     1     -44.430 -51.056  14.310  1.00  0.00    -0.018 A 
HETATM    9  C   UNL     1     -43.688 -50.238  15.329  1.00  0.00     0.052 C 
HETATM   10  C   UNL     1     -45.815 -51.214  14.458  1.00  0.00     0.012 A 
HETATM   11  C   UNL     1     -46.534 -51.967  13.537  1.00  0.00     0.018 A 
HETATM   12  C   UNL     1     -45.843 -52.545  12.493  1.00  0.00     0.089 A 
HETATM   13  N   UNL     1     -44.511 -52.430  12.320  1.00  0.00    -0.352 N 
ATOM     14  HN  UNL     1     -44.041 -52.885  11.538  1.00  0.00     0.166 HD
ENDBRANCH   1   7
BRANCH   4  15
HETATM   15  C   UNL     1     -41.806 -48.589  10.943  1.00  0.00     0.131 C 
BRANCH  15  16
HETATM   16  C   UNL     1     -42.677 -47.433  10.458  1.00  0.00     0.029 C 
HETATM   17  C   UNL     1     -43.328 -47.612   9.101  1.00  0.00     0.034 C 
HETATM   18  C   UNL     1     -43.598 -46.189   8.644  1.00  0.00     0.168 C 
HETATM   19  O   UNL     1     -42.880 -45.302   9.514  1.00  0.00    -0.391 OA
HETATM   20  C   UNL     1     -41.992 -46.093  10.320  1.00  0.00     0.173 C 
ENDBRANCH  15  16
ENDBRANCH   4  15
TORSDOF 3
ENDMDL
MODEL 3
REMARK VINA RESULT:      -5.8      2.091      2.844
REMARK  3 active torsions:
REMARK  status: ('A' for Active; 'I' for Inactive)
REMARK    1  A    between atoms: C_8  and  N_9 
REMARK       I    between atoms: N_9  and  C_10 
REMARK       I    between atoms: C_10  and  N_12 
REMARK    2  A    between atoms: N_12  and  C_13 
REMARK    3  A    between atoms: C_13  and  C_14 
ROOT
HETATM    1  N   UNL     1     -41.216 -48.954  10.650  1.00  0.00    -0.294 N 
HETATM    2  C   UNL     1     -41.538 -49.887  11.586  1.00  0.00     0.321 C 
HETATM    3  O   UNL     1     -40.715 -50.753  11.879  1.00  0.00    -0.247 OA
HETATM    4  N   UNL     1     -42.747 -49.775  12.214  1.00  0.00    -0.342 N 
HETATM    5  H   UNL     1     -40.265 -49.047  10.330  1.00  0.00     0.172 HD
HETATM    6  H   UNL     1     -43.435 -49.233  11.685  1.00  0.00     0.164 HD
ENDROOT
BRANCH   1   7
HETATM    7  C   UNL     1     -42.004 -47.929  10.112  1.00  0.00     0.114 A 
HETATM    8  C   UNL     1     -41.993 -46.657  10.706  1.00  0.00    -0.018 A 
HETATM    9  C   UNL     1     -41.193 -46.314  11.932  1.00  0.00     0.052 C 
HETATM   10  C   UNL     1     -42.789 -45.660  10.124  1.00  0.00     0.012 A 
HETATM   11  C   UNL     1     -43.545 -45.943   8.993  1.00  0.00     0.018 A 
HETATM   12  C   UNL     1     -43.485 -47.220   8.477  1.00  0.00     0.089 A 
HETATM   13  N   UNL     1     -42.745 -48.211   9.012  1.00  0.00    -0.352 N 
ATOM     14  HN  UNL     1     -42.741 -49.145   8.601  1.00  0.00     0.166 HD
ENDBRANCH   1   7
BRANCH   4  15
HETATM   15  C   UNL     1     -43.151 -50.746  13.206  1.00  0.00     0.131 C 
BRANCH  15  16
HETATM   16  C   UNL     1     -44.426 -51.534  12.918  1.00  0.00     0.029 C 
HETATM   17  C   UNL     1     -45.455 -51.568  14.030  1.00  0.00     0.034 C 
HETATM   18  C   UNL     1     -46.263 -52.819  13.730  1.00  0.00     0.168 C 
HETATM   19  O   UNL     1     -45.554 -53.576  12.739  1.00  0.00    -0.391 OA
HETATM   20  C   UNL     1     -44.247 -52.998  12.590  1.00  0.00     0.173 C 
ENDBRANCH  15  16
ENDBRANCH   4  15
TORSDOF 3
ENDMDL
MODEL 4
REMARK VINA RESULT:      -5.8      2.535      4.040
REMARK  3 active torsions:
REMARK  status: ('A' for Active; 'I' for Inactive)
REMARK    1  A    between atoms: C_8  and  N_9 
REMARK       I    between atoms: N_9  and  C_10 
REMARK       I    between atoms: C_10  and  N_12 
REMARK    2  A    between atoms: N_12  and  C_13 
REMARK    3  A    between atoms: C_13  and  C_14 
ROOT
HETATM    1  N   UNL     1     -42.753 -53.561  12.391  1.00  0.00    -0.294 N 
HETATM    2  C   UNL     1     -44.090 -53.332  12.501  1.00  0.00     0.321 C 
HETATM    3  O   UNL     1     -44.874 -54.266  12.337  1.00  0.00    -0.247 OA
HETATM    4  N   UNL     1     -44.498 -52.078  12.859  1.00  0.00    -0.342 N 
HETATM    5  H   UNL     1     -42.544 -54.535  12.242  1.00  0.00     0.172 HD
HETATM    6  H   UNL     1     -43.807 -51.350  12.664  1.00  0.00     0.164 HD
ENDROOT
BRANCH   1   7
HETATM    7  C   UNL     1     -41.689 -52.654  12.466  1.00  0.00     0.114 A 
HETATM    8  C   UNL     1     -40.635 -52.890  13.362  1.00  0.00    -0.018 A 
HETATM    9  C   UNL     1     -40.578 -54.066  14.295  1.00  0.00     0.052 C 
HETATM   10  C   UNL     1     -39.586 -51.959  13.392  1.00  0.00     0.012 A 
HETATM   11  C   UNL     1     -39.607 -50.857  12.547  1.00  0.00     0.018 A 
HETATM   12  C   UNL     1     -40.683 -50.714  11.695  1.00  0.00     0.089 A 
HETATM   13  N   UNL     1     -41.718 -51.576  11.643  1.00  0.00    -0.352 N 
ATOM     14  HN  UNL     1     -42.498 -51.423  11.004  1.00  0.00     0.166 HD
ENDBRANCH   1   7
BRANCH   4  15
HETATM   15  C   UNL     1     -45.906 -51.771  12.976  1.00  0.00     0.131 C 
BRANCH  15  16
HETATM   16  C   UNL     1     -46.421 -51.422  14.370  1.00  0.00     0.029 C 
HETATM   17  C   UNL     1     -45.381 -50.953  15.367  1.00  0.00     0.034 C 
HETATM   18  C   UNL     1     -46.019 -51.249  16.714  1.00  0.00     0.168 C 
HETATM   19  O   UNL     1     -47.158 -52.091  16.487  1.00  0.00    -0.391 OA
HETATM   20  C   UNL     1     -47.120 -52.532  15.121  1.00  0.00     0.173 C 
ENDBRANCH  15  16
ENDBRANCH   4  15
TORSDOF 3
ENDMDL
MODEL 5
REMARK VINA RESULT:      -5.7      1.862      2.904
REMARK  3 active torsions:
REMARK  status: ('A' for Active; 'I' for Inactive)
REMARK    1  A    between atoms: C_8  and  N_9 
REMARK       I    between atoms: N_9  and  C_10 
REMARK       I    between atoms: C_10  and  N_12 
REMARK    2  A    between atoms: N_12  and  C_13 
REMARK    3  A    between atoms: C_13  and  C_14 
ROOT
HETATM    1  N   UNL     1     -40.752 -48.757  10.954  1.00  0.00    -0.294 N 
HETATM    2  C   UNL     1     -40.480 -50.016  11.392  1.00  0.00     0.321 C 
HETATM    3  O   UNL     1     -39.340 -50.287  11.768  1.00  0.00    -0.247 OA
HETATM    4  N   UNL     1     -41.513 -50.908  11.461  1.00  0.00    -0.342 N 
HETATM    5  H   UNL     1     -39.961 -48.140  11.050  1.00  0.00     0.172 HD
HETATM    6  H   UNL     1     -42.300 -50.672  10.852  1.00  0.00     0.164 HD
ENDROOT
BRANCH   1   7
HETATM    7  C   UNL     1     -41.940 -48.241  10.421  1.00  0.00     0.114 A 
HETATM    8  C   UNL     1     -42.933 -47.747  11.282  1.00  0.00    -0.018 A 
HETATM    9  C   UNL     1     -42.821 -47.758  12.780  1.00  0.00     0.052 C 
HETATM   10  C   UNL     1     -44.099 -47.230  10.700  1.00  0.00     0.012 A 
HETATM   11  C   UNL     1     -44.239 -47.208   9.318  1.00  0.00     0.018 A 
HETATM   12  C   UNL     1     -43.206 -47.709   8.554  1.00  0.00     0.089 A 
HETATM   13  N   UNL     1     -42.074 -48.227   9.071  1.00  0.00    -0.352 N 
ATOM     14  HN  UNL     1     -41.341 -48.598   8.466  1.00  0.00     0.166 HD
ENDBRANCH   1   7
BRANCH   4  15
HETATM   15  C   UNL     1     -41.281 -52.265  11.903  1.00  0.00     0.131 C 
BRANCH  15  16
HETATM   16  C   UNL     1     -42.183 -52.788  13.018  1.00  0.00     0.029 C 
HETATM   17  C   UNL     1     -41.675 -53.999  13.775  1.00  0.00     0.034 C 
HETATM   18  C   UNL     1     -42.939 -54.617  14.349  1.00  0.00     0.168 C 
HETATM   19  O   UNL     1     -44.063 -53.997  13.710  1.00  0.00    -0.391 OA
HETATM   20  C   UNL     1     -43.573 -53.216  12.608  1.00  0.00     0.173 C 
ENDBRANCH  15  16
ENDBRANCH   4  15
TORSDOF 3
ENDMDL
MODEL 6
REMARK VINA RESULT:      -5.6      4.050      6.037
REMARK  3 active torsions:
REMARK  status: ('A' for Active; 'I' for Inactive)
REMARK    1  A    between atoms: C_8  and  N_9 
REMARK       I    between atoms: N_9  and  C_10 
REMARK       I    between atoms: C_10  and  N_12 
REMARK    2  A    between atoms: N_12  and  C_13 
REMARK    3  A    between atoms: C_13  and  C_14 
ROOT
HETATM    1  N   UNL     1     -40.038 -46.870  11.026  1.00  0.00    -0.294 N 
HETATM    2  C   UNL     1     -40.986 -46.088  10.442  1.00  0.00     0.321 C 
HETATM    3  O   UNL     1     -40.661 -44.996   9.977  1.00  0.00    -0.247 OA
HETATM    4  N   UNL     1     -42.253 -46.589  10.336  1.00  0.00    -0.342 N 
HETATM    5  H   UNL     1     -39.116 -46.470  10.953  1.00  0.00     0.172 HD
HETATM    6  H   UNL     1     -42.458 -47.332  11.008  1.00  0.00     0.164 HD
ENDROOT
BRANCH   1   7
HETATM    7  C   UNL     1     -40.181 -48.102  11.676  1.00  0.00     0.114 A 
HETATM    8  C   UNL     1     -40.282 -48.143  13.076  1.00  0.00    -0.018 A 
HETATM    9  C   UNL     1     -40.217 -46.926  13.955  1.00  0.00     0.052 C 
HETATM   10  C   UNL     1     -40.436 -49.399  13.680  1.00  0.00     0.012 A 
HETATM   11  C   UNL     1     -40.496 -50.547  12.899  1.00  0.00     0.018 A 
HETATM   12  C   UNL     1     -40.395 -50.405  11.530  1.00  0.00     0.089 A 
HETATM   13  N   UNL     1     -40.233 -49.219  10.910  1.00  0.00    -0.352 N 
ATOM     14  HN  UNL     1     -40.151 -49.164   9.894  1.00  0.00     0.166 HD
ENDBRANCH   1   7
BRANCH   4  15
HETATM   15  C   UNL     1     -43.306 -45.799   9.739  1.00  0.00     0.131 C 
BRANCH  15  16
HETATM   16  C   UNL     1     -44.245 -46.520   8.775  1.00  0.00     0.029 C 
HETATM   17  C   UNL     1     -45.470 -47.164   9.394  1.00  0.00     0.034 C 
HETATM   18  C   UNL     1     -45.854 -48.236   8.388  1.00  0.00     0.168 C 
HETATM   19  O   UNL     1     -44.767 -48.386   7.464  1.00  0.00    -0.391 OA
HETATM   20  C   UNL     1     -43.643 -47.654   7.978  1.00  0.00     0.173 C 
ENDBRANCH  15  16
ENDBRANCH   4  15
TORSDOF 3
ENDMDL
MODEL 7
REMARK VINA RESULT:      -5.4      2.227      5.981
REMARK  3 active torsions:
REMARK  status: ('A' for Active; 'I' for Inactive)
REMARK    1  A    between atoms: C_8  and  N_9 
REMARK       I    between atoms: N_9  and  C_10 
REMARK       I    between atoms: C_10  and  N_12 
REMARK    2  A    between atoms: N_12  and  C_13 
REMARK    3  A    between atoms: C_13  and  C_14 
ROOT
HETATM    1  N   UNL     1     -42.918 -53.072  12.532  1.00  0.00    -0.294 N 
HETATM    2  C   UNL     1     -41.810 -52.397  12.121  1.00  0.00     0.321 C 
HETATM    3  O   UNL     1     -40.787 -53.027  11.859  1.00  0.00    -0.247 OA
HETATM    4  N   UNL     1     -41.910 -51.045  11.950  1.00  0.00    -0.342 N 
HETATM    5  H   UNL     1     -42.785 -54.070  12.514  1.00  0.00     0.172 HD
HETATM    6  H   UNL     1     -42.676 -50.620  12.478  1.00  0.00     0.164 HD
ENDROOT
BRANCH   1   7
HETATM    7  C   UNL     1     -44.159 -52.571  12.946  1.00  0.00     0.114 A 
HETATM    8  C   UNL     1     -44.317 -52.103  14.260  1.00  0.00    -0.018 A 
HETATM    9  C   UNL     1     -43.226 -52.127  15.293  1.00  0.00     0.052 C 
HETATM   10  C   UNL     1     -45.574 -51.600  14.624  1.00  0.00     0.012 A 
HETATM   11  C   UNL     1     -46.608 -51.566  13.697  1.00  0.00     0.018 A 
HETATM   12  C   UNL     1     -46.354 -52.041  12.427  1.00  0.00     0.089 A 
HETATM   13  N   UNL     1     -45.166 -52.546  12.039  1.00  0.00    -0.352 N 
ATOM     14  HN  UNL     1     -45.029 -52.897  11.091  1.00  0.00     0.166 HD
ENDBRANCH   1   7
BRANCH   4  15
HETATM   15  C   UNL     1     -40.762 -50.272  11.531  1.00  0.00     0.131 C 
BRANCH  15  16
HETATM   16  C   UNL     1     -39.788 -49.840  12.624  1.00  0.00     0.029 C 
HETATM   17  C   UNL     1     -39.673 -48.348  12.863  1.00  0.00     0.034 C 
HETATM   18  C   UNL     1     -38.305 -48.195  13.508  1.00  0.00     0.168 C 
HETATM   19  O   UNL     1     -37.600 -49.434  13.348  1.00  0.00    -0.391 OA
HETATM   20  C   UNL     1     -38.347 -50.256  12.436  1.00  0.00     0.173 C 
ENDBRANCH  15  16
ENDBRANCH   4  15
TORSDOF 3
ENDMDL
MODEL 8
REMARK VINA RESULT:      -5.4      2.533      5.766
REMARK  3 active torsions:
REMARK  status: ('A' for Active; 'I' for Inactive)
REMARK    1  A    between atoms: C_8  and  N_9 
REMARK       I    between atoms: N_9  and  C_10 
REMARK       I    between atoms: C_10  and  N_12 
REMARK    2  A    between atoms: N_12  and  C_13 
REMARK    3  A    between atoms: C_13  and  C_14 
ROOT
HETATM    1  N   UNL     1     -40.345 -51.571  11.638  1.00  0.00    -0.294 N 
HETATM    2  C   UNL     1     -40.161 -50.229  11.764  1.00  0.00     0.321 C 
HETATM    3  O   UNL     1     -39.217 -49.696  11.184  1.00  0.00    -0.247 OA
HETATM    4  N   UNL     1     -41.085 -49.520  12.480  1.00  0.00    -0.342 N 
HETATM    5  H   UNL     1     -39.687 -51.989  10.999  1.00  0.00     0.172 HD
HETATM    6  H   UNL     1     -41.616 -50.091  13.143  1.00  0.00     0.164 HD
ENDROOT
BRANCH   1   7
HETATM    7  C   UNL     1     -41.295 -52.398  12.251  1.00  0.00     0.114 A 
HETATM    8  C   UNL     1     -40.927 -53.179  13.358  1.00  0.00    -0.018 A 
HETATM    9  C   UNL     1     -39.539 -53.213  13.933  1.00  0.00     0.052 C 
HETATM   10  C   UNL     1     -41.916 -53.981  13.945  1.00  0.00     0.012 A 
HETATM   11  C   UNL     1     -43.210 -53.978  13.438  1.00  0.00     0.018 A 
HETATM   12  C   UNL     1     -43.477 -53.172  12.351  1.00  0.00     0.089 A 
HETATM   13  N   UNL     1     -42.554 -52.396  11.748  1.00  0.00    -0.352 N 
ATOM     14  HN  UNL     1     -42.796 -51.825  10.938  1.00  0.00     0.166 HD
ENDBRANCH   1   7
BRANCH   4  15
HETATM   15  C   UNL     1     -40.934 -48.094  12.662  1.00  0.00     0.131 C 
BRANCH  15  16
HETATM   16  C   UNL     1     -41.792 -47.193  11.778  1.00  0.00     0.029 C 
HETATM   17  C   UNL     1     -42.876 -47.884  10.974  1.00  0.00     0.034 C 
HETATM   18  C   UNL     1     -43.134 -46.924   9.825  1.00  0.00     0.168 C 
HETATM   19  O   UNL     1     -42.078 -45.954   9.814  1.00  0.00    -0.391 OA
HETATM   20  C   UNL     1     -41.058 -46.397  10.724  1.00  0.00     0.173 C 
ENDBRANCH  15  16
ENDBRANCH   4  15
TORSDOF 3
ENDMDL
MODEL 9
REMARK VINA RESULT:      -5.4      2.168      5.882
REMARK  3 active torsions:
REMARK  status: ('A' for Active; 'I' for Inactive)
REMARK    1  A    between atoms: C_8  and  N_9 
REMARK       I    between atoms: N_9  and  C_10 
REMARK       I    between atoms: C_10  and  N_12 
REMARK    2  A    between atoms: N_12  and  C_13 
REMARK    3  A    between atoms: C_13  and  C_14 
ROOT
HETATM    1  N   UNL     1     -40.904 -52.905  12.509  1.00  0.00    -0.294 N 
HETATM    2  C   UNL     1     -40.365 -51.674  12.723  1.00  0.00     0.321 C 
HETATM    3  O   UNL     1     -39.202 -51.461  12.385  1.00  0.00    -0.247 OA
HETATM    4  N   UNL     1     -41.173 -50.703  13.246  1.00  0.00    -0.342 N 
HETATM    5  H   UNL     1     -40.274 -53.517  12.015  1.00  0.00     0.172 HD
HETATM    6  H   UNL     1     -41.980 -51.071  13.755  1.00  0.00     0.164 HD
ENDROOT
BRANCH   1   7
HETATM    7  C   UNL     1     -42.165 -53.396  12.868  1.00  0.00     0.114 A 
HETATM    8  C   UNL     1     -42.310 -54.152  14.043  1.00  0.00    -0.018 A 
HETATM    9  C   UNL     1     -41.170 -54.506  14.955  1.00  0.00     0.052 C 
HETATM   10  C   UNL     1     -43.595 -54.611  14.366  1.00  0.00     0.012 A 
HETATM   11  C   UNL     1     -44.673 -54.306  13.544  1.00  0.00     0.018 A 
HETATM   12  C   UNL     1     -44.433 -53.550  12.415  1.00  0.00     0.089 A 
HETATM   13  N   UNL     1     -43.213 -53.101  12.059  1.00  0.00    -0.352 N 
ATOM     14  HN  UNL     1     -43.081 -52.554  11.208  1.00  0.00     0.166 HD
ENDBRANCH   1   7
BRANCH   4  15
HETATM   15  C   UNL     1     -40.652 -49.381  13.510  1.00  0.00     0.131 C 
BRANCH  15  16
HETATM   16  C   UNL     1     -41.085 -48.268  12.559  1.00  0.00     0.029 C 
HETATM   17  C   UNL     1     -42.127 -48.644  11.523  1.00  0.00     0.034 C 
HETATM   18  C   UNL     1     -41.924 -47.614  10.425  1.00  0.00     0.168 C 
HETATM   19  O   UNL     1     -40.687 -46.935  10.678  1.00  0.00    -0.391 OA
HETATM   20  C   UNL     1     -39.995 -47.645  11.719  1.00  0.00     0.173 C 
ENDBRANCH  15  16
ENDBRANCH   4  15
TORSDOF 3
ENDMDL
