MODEL 1
REMARK VINA RESULT:      -4.7      0.000      0.000
REMARK  7 active torsions:
REMARK  status: ('A' for Active; 'I' for Inactive)
REMARK    1  A    between atoms: C_6  and  N_7 
REMARK    2  A    between atoms: N_7  and  C_8 
REMARK    3  A    between atoms: C_8  and  C_9 
REMARK    4  A    between atoms: C_9  and  O_10 
REMARK    5  A    between atoms: O_10  and  C_11 
REMARK    6  A    between atoms: C_11  and  C_12 
REMARK    7  A    between atoms: C_12  and  O_13 
ROOT
HETATM    1  C   UNL     1     -42.626 -45.762  10.294  1.00  0.00     0.052 C 
HETATM    2  C   UNL     1     -41.683 -46.886  10.570  1.00  0.00    -0.024 A 
HETATM    3  C   UNL     1     -42.024 -48.198  10.314  1.00  0.00     0.099 A 
HETATM    4  N   UNL     1     -41.200 -49.246  10.506  1.00  0.00    -0.342 N 
ATOM      5  HN  UNL     1     -41.494 -50.203  10.306  1.00  0.00     0.167 HD
HETATM    6  C   UNL     1     -39.976 -48.971  10.970  1.00  0.00     0.157 A 
HETATM    7  N   UNL     1     -39.558 -47.738  11.281  1.00  0.00    -0.336 N 
ATOM      8  HN  UNL     1     -38.624 -47.581  11.660  1.00  0.00     0.168 HD
HETATM    9  C   UNL     1     -40.408 -46.707  11.078  1.00  0.00     0.015 A 
HETATM   10  C   UNL     1     -39.878 -45.344  11.420  1.00  0.00     0.069 C 
ENDROOT
BRANCH   6  11
HETATM   11  N   UNL     1     -39.035 -49.974  11.123  1.00  0.00    -0.262 NA
HETATM   12  H   UNL     1     -38.519 -50.020  10.249  1.00  0.00     0.130 HD
BRANCH  11  13
HETATM   13  C   UNL     1     -38.193 -49.877  12.303  1.00  0.00     0.121 C 
BRANCH  13  14
HETATM   14  C   UNL     1     -38.450 -51.089  13.210  1.00  0.00     0.182 C 
BRANCH  14  15
HETATM   15  O   UNL     1     -39.309 -52.029  12.545  1.00  0.00    -0.388 OA
BRANCH  15  16
HETATM   16  C   UNL     1     -40.501 -52.262  13.308  1.00  0.00     0.193 C 
BRANCH  16  17
HETATM   17  C   UNL     1     -41.677 -52.430  12.352  1.00  0.00     0.190 C 
BRANCH  17  18
HETATM   18  O   UNL     1     -41.223 -52.373  11.001  1.00  0.00    -0.399 OA
HETATM   19  H   UNL     1     -41.803 -51.724  10.562  1.00  0.00     0.209 HD
ENDBRANCH  17  18
ENDBRANCH  16  17
ENDBRANCH  15  16
ENDBRANCH  14  15
ENDBRANCH  13  14
ENDBRANCH  11  13
ENDBRANCH   6  11
TORSDOF 7
ENDMDL
MODEL 2
REMARK VINA RESULT:      -4.5      3.643      6.072
REMARK  7 active torsions:
REMARK  status: ('A' for Active; 'I' for Inactive)
REMARK    1  A    between atoms: C_6  and  N_7 
REMARK    2  A    between atoms: N_7  and  C_8 
REMARK    3  A    between atoms: C_8  and  C_9 
REMARK    4  A    between atoms: C_9  and  O_10 
REMARK    5  A    between atoms: O_10  and  C_11 
REMARK    6  A    between atoms: C_11  and  C_12 
REMARK    7  A    between atoms: C_12  and  O_13 
ROOT
HETATM    1  C   UNL     1     -46.341 -54.343  14.644  1.00  0.00     0.052 C 
HETATM    2  C   UNL     1     -45.143 -53.823  13.922  1.00  0.00    -0.024 A 
HETATM    3  C   UNL     1     -43.907 -54.425  14.040  1.00  0.00     0.099 A 
HETATM    4  N   UNL     1     -42.803 -54.023  13.381  1.00  0.00    -0.342 N 
ATOM      5  HN  UNL     1     -41.907 -54.495  13.499  1.00  0.00     0.167 HD
HETATM    6  C   UNL     1     -42.941 -52.973  12.564  1.00  0.00     0.157 A 
HETATM    7  N   UNL     1     -44.086 -52.298  12.404  1.00  0.00    -0.336 N 
ATOM      8  HN  UNL     1     -44.134 -51.485  11.790  1.00  0.00     0.168 HD
HETATM    9  C   UNL     1     -45.176 -52.726  13.079  1.00  0.00     0.015 A 
HETATM   10  C   UNL     1     -46.439 -51.949  12.842  1.00  0.00     0.069 C 
ENDROOT
BRANCH   6  11
HETATM   11  N   UNL     1     -41.881 -52.538  11.787  1.00  0.00    -0.262 NA
HETATM   12  H   UNL     1     -42.090 -52.819  10.832  1.00  0.00     0.130 HD
BRANCH  11  13
HETATM   13  C   UNL     1     -41.528 -51.135  11.926  1.00  0.00     0.121 C 
BRANCH  13  14
HETATM   14  C   UNL     1     -40.077 -51.025  12.414  1.00  0.00     0.182 C 
BRANCH  14  15
HETATM   15  O   UNL     1     -39.550 -52.332  12.695  1.00  0.00    -0.388 OA
BRANCH  15  16
HETATM   16  C   UNL     1     -39.167 -52.445  14.073  1.00  0.00     0.193 C 
BRANCH  16  17
HETATM   17  C   UNL     1     -39.206 -53.915  14.478  1.00  0.00     0.190 C 
BRANCH  17  18
HETATM   18  O   UNL     1     -38.772 -54.734  13.394  1.00  0.00    -0.399 OA
HETATM   19  H   UNL     1     -37.842 -54.485  13.241  1.00  0.00     0.209 HD
ENDBRANCH  17  18
ENDBRANCH  16  17
ENDBRANCH  15  16
ENDBRANCH  14  15
ENDBRANCH  13  14
ENDBRANCH  11  13
ENDBRANCH   6  11
TORSDOF 7
ENDMDL
MODEL 3
REMARK VINA RESULT:      -4.5      1.942      2.730
REMARK  7 active torsions:
REMARK  status: ('A' for Active; 'I' for Inactive)
REMARK    1  A    between atoms: C_6  and  N_7 
REMARK    2  A    between atoms: N_7  and  C_8 
REMARK    3  A    between atoms: C_8  and  C_9 
REMARK    4  A    between atoms: C_9  and  O_10 
REMARK    5  A    between atoms: O_10  and  C_11 
REMARK    6  A    between atoms: C_11  and  C_12 
REMARK    7  A    between atoms: C_12  and  O_13 
ROOT
HETATM    1  C   UNL     1     -45.571 -47.143   9.393  1.00  0.00     0.052 C 
HETATM    2  C   UNL     1     -44.165 -47.441   9.796  1.00  0.00    -0.024 A 
HETATM    3  C   UNL     1     -43.763 -47.392  11.115  1.00  0.00     0.099 A 
HETATM    4  N   UNL     1     -42.519 -47.690  11.539  1.00  0.00    -0.342 N 
ATOM      5  HN  UNL     1     -42.263 -47.638  12.524  1.00  0.00     0.167 HD
HETATM    6  C   UNL     1     -41.638 -48.058  10.602  1.00  0.00     0.157 A 
HETATM    7  N   UNL     1     -41.917 -48.105   9.294  1.00  0.00    -0.336 N 
ATOM      8  HN  UNL     1     -41.202 -48.364   8.614  1.00  0.00     0.168 HD
HETATM    9  C   UNL     1     -43.173 -47.800   8.900  1.00  0.00     0.015 A 
HETATM   10  C   UNL     1     -43.438 -47.895   7.424  1.00  0.00     0.069 C 
ENDROOT
BRANCH   6  11
HETATM   11  N   UNL     1     -40.360 -48.458  10.952  1.00  0.00    -0.262 NA
HETATM   12  H   UNL     1     -40.040 -47.806  11.664  1.00  0.00     0.130 HD
BRANCH  11  13
HETATM   13  C   UNL     1     -40.213 -49.855  11.322  1.00  0.00     0.121 C 
BRANCH  13  14
HETATM   14  C   UNL     1     -39.933 -49.954  12.828  1.00  0.00     0.182 C 
BRANCH  14  15
HETATM   15  O   UNL     1     -40.754 -50.976  13.416  1.00  0.00    -0.388 OA
BRANCH  15  16
HETATM   16  C   UNL     1     -41.576 -51.607  12.424  1.00  0.00     0.193 C 
BRANCH  16  17
HETATM   17  C   UNL     1     -41.353 -53.115  12.482  1.00  0.00     0.190 C 
BRANCH  17  18
HETATM   18  O   UNL     1     -40.522 -53.530  11.400  1.00  0.00    -0.399 OA
HETATM   19  H   UNL     1     -40.114 -54.365  11.696  1.00  0.00     0.209 HD
ENDBRANCH  17  18
ENDBRANCH  16  17
ENDBRANCH  15  16
ENDBRANCH  14  15
ENDBRANCH  13  14
ENDBRANCH  11  13
ENDBRANCH   6  11
TORSDOF 7
ENDMDL
MODEL 4
REMARK VINA RESULT:      -4.5      1.427      2.340
REMARK  7 active torsions:
REMARK  status: ('A' for Active; 'I' for Inactive)
REMARK    1  A    between atoms: C_6  and  N_7 
REMARK    2  A    between atoms: N_7  and  C_8 
REMARK    3  A    between atoms: C_8  and  C_9 
REMARK    4  A    between atoms: C_9  and  O_10 
REMARK    5  A    between atoms: O_10  and  C_11 
REMARK    6  A    between atoms: C_11  and  C_12 
REMARK    7  A    between atoms: C_12  and  O_13 
ROOT
HETATM    1  C   UNL     1     -42.674 -45.105  10.859  1.00  0.00     0.052 C 
HETATM    2  C   UNL     1     -42.182 -46.512  10.941  1.00  0.00    -0.024 A 
HETATM    3  C   UNL     1     -43.045 -47.572  11.133  1.00  0.00     0.099 A 
HETATM    4  N   UNL     1     -42.661 -48.863  11.174  1.00  0.00    -0.342 N 
ATOM      5  HN  UNL     1     -43.333 -49.617  11.322  1.00  0.00     0.167 HD
HETATM    6  C   UNL     1     -41.356 -49.107  11.012  1.00  0.00     0.157 A 
HETATM    7  N   UNL     1     -40.434 -48.150  10.853  1.00  0.00    -0.336 N 
ATOM      8  HN  UNL     1     -39.445 -48.384  10.762  1.00  0.00     0.168 HD
HETATM    9  C   UNL     1     -40.850 -46.864  10.816  1.00  0.00     0.015 A 
HETATM   10  C   UNL     1     -39.776 -45.834  10.610  1.00  0.00     0.069 C 
ENDROOT
BRANCH   6  11
HETATM   11  N   UNL     1     -40.881 -50.405  10.962  1.00  0.00    -0.262 NA
HETATM   12  H   UNL     1     -39.877 -50.338  10.812  1.00  0.00     0.130 HD
BRANCH  11  13
HETATM   13  C   UNL     1     -41.256 -51.260  12.075  1.00  0.00     0.121 C 
BRANCH  13  14
HETATM   14  C   UNL     1     -39.986 -51.787  12.759  1.00  0.00     0.182 C 
BRANCH  14  15
HETATM   15  O   UNL     1     -39.166 -50.688  13.189  1.00  0.00    -0.388 OA
BRANCH  15  16
HETATM   16  C   UNL     1     -37.811 -50.857  12.750  1.00  0.00     0.193 C 
BRANCH  16  17
HETATM   17  C   UNL     1     -37.458 -49.730  11.786  1.00  0.00     0.190 C 
BRANCH  17  18
HETATM   18  O   UNL     1     -37.924 -50.042  10.475  1.00  0.00    -0.399 OA
HETATM   19  H   UNL     1     -38.859 -49.766  10.462  1.00  0.00     0.209 HD
ENDBRANCH  17  18
ENDBRANCH  16  17
ENDBRANCH  15  16
ENDBRANCH  14  15
ENDBRANCH  13  14
ENDBRANCH  11  13
ENDBRANCH   6  11
TORSDOF 7
ENDMDL
MODEL 5
REMARK VINA RESULT:      -4.5      3.892      6.144
REMARK  7 active torsions:
REMARK  status: ('A' for Active; 'I' for Inactive)
REMARK    1  A    between atoms: C_6  and  N_7 
REMARK    2  A    between atoms: N_7  and  C_8 
REMARK    3  A    between atoms: C_8  and  C_9 
REMARK    4  A    between atoms: C_9  and  O_10 
REMARK    5  A    between atoms: O_10  and  C_11 
REMARK    6  A    between atoms: C_11  and  C_12 
REMARK    7  A    between atoms: C_12  and  O_13 
ROOT
HETATM    1  C   UNL     1     -46.850 -52.681  14.581  1.00  0.00     0.052 C 
HETATM    2  C   UNL     1     -45.611 -52.671  13.749  1.00  0.00    -0.024 A 
HETATM    3  C   UNL     1     -45.022 -51.493  13.339  1.00  0.00     0.099 A 
HETATM    4  N   UNL     1     -43.883 -51.424  12.623  1.00  0.00    -0.342 N 
ATOM      5  HN  UNL     1     -43.483 -50.530  12.338  1.00  0.00     0.167 HD
HETATM    6  C   UNL     1     -43.304 -52.586  12.304  1.00  0.00     0.157 A 
HETATM    7  N   UNL     1     -43.810 -53.784  12.623  1.00  0.00    -0.336 N 
ATOM      8  HN  UNL     1     -43.346 -54.644  12.332  1.00  0.00     0.168 HD
HETATM    9  C   UNL     1     -44.954 -53.820  13.342  1.00  0.00     0.015 A 
HETATM   10  C   UNL     1     -45.464 -55.188  13.694  1.00  0.00     0.069 C 
ENDROOT
BRANCH   6  11
HETATM   11  N   UNL     1     -42.091 -52.612  11.638  1.00  0.00    -0.262 NA
HETATM   12  H   UNL     1     -42.005 -51.718  11.162  1.00  0.00     0.130 HD
BRANCH  11  13
HETATM   13  C   UNL     1     -40.934 -52.966  12.443  1.00  0.00     0.121 C 
BRANCH  13  14
HETATM   14  C   UNL     1     -40.225 -51.684  12.901  1.00  0.00     0.182 C 
BRANCH  14  15
HETATM   15  O   UNL     1     -38.836 -51.732  12.537  1.00  0.00    -0.388 OA
BRANCH  15  16
HETATM   16  C   UNL     1     -38.181 -50.495  12.854  1.00  0.00     0.193 C 
BRANCH  16  17
HETATM   17  C   UNL     1     -37.395 -50.025  11.634  1.00  0.00     0.190 C 
BRANCH  17  18
HETATM   18  O   UNL     1     -38.234 -50.021  10.481  1.00  0.00    -0.399 OA
HETATM   19  H   UNL     1     -38.582 -49.111  10.421  1.00  0.00     0.209 HD
ENDBRANCH  17  18
ENDBRANCH  16  17
ENDBRANCH  15  16
ENDBRANCH  14  15
ENDBRANCH  13  14
ENDBRANCH  11  13
ENDBRANCH   6  11
TORSDOF 7
ENDMDL
MODEL 6
REMARK VINA RESULT:      -4.5      1.387      1.738
REMARK  7 active torsions:
REMARK  status: ('A' for Active; 'I' for Inactive)
REMARK    1  A    between atoms: C_6  and  N_7 
REMARK    2  A    between atoms: N_7  and  C_8 
REMARK    3  A    between atoms: C_8  and  C_9 
REMARK    4  A    between atoms: C_9  and  O_10 
REMARK    5  A    between atoms: O_10  and  C_11 
REMARK    6  A    between atoms: C_11  and  C_12 
REMARK    7  A    between atoms: C_12  and  O_13 
ROOT
HETATM    1  C   UNL     1     -43.062 -44.873  10.275  1.00  0.00     0.052 C 
HETATM    2  C   UNL     1     -42.375 -46.189  10.433  1.00  0.00    -0.024 A 
HETATM    3  C   UNL     1     -43.075 -47.377  10.430  1.00  0.00     0.099 A 
HETATM    4  N   UNL     1     -42.503 -48.593  10.528  1.00  0.00    -0.342 N 
ATOM      5  HN  UNL     1     -43.059 -49.449  10.525  1.00  0.00     0.167 HD
HETATM    6  C   UNL     1     -41.170 -48.623  10.630  1.00  0.00     0.157 A 
HETATM    7  N   UNL     1     -40.402 -47.528  10.675  1.00  0.00    -0.336 N 
ATOM      8  HN  UNL     1     -39.390 -47.601  10.782  1.00  0.00     0.168 HD
HETATM    9  C   UNL     1     -41.005 -46.323  10.575  1.00  0.00     0.015 A 
HETATM   10  C   UNL     1     -40.093 -45.130  10.606  1.00  0.00     0.069 C 
ENDROOT
BRANCH   6  11
HETATM   11  N   UNL     1     -40.490 -49.829  10.656  1.00  0.00    -0.262 NA
HETATM   12  H   UNL     1     -39.557 -49.640  10.299  1.00  0.00     0.130 HD
BRANCH  11  13
HETATM   13  C   UNL     1     -40.505 -50.536  11.925  1.00  0.00     0.121 C 
BRANCH  13  14
HETATM   14  C   UNL     1     -39.082 -50.575  12.499  1.00  0.00     0.182 C 
BRANCH  14  15
HETATM   15  O   UNL     1     -38.742 -51.917  12.883  1.00  0.00    -0.388 OA
BRANCH  15  16
HETATM   16  C   UNL     1     -39.576 -52.370  13.959  1.00  0.00     0.193 C 
BRANCH  16  17
HETATM   17  C   UNL     1     -39.915 -53.840  13.738  1.00  0.00     0.190 C 
BRANCH  17  18
HETATM   18  O   UNL     1     -38.733 -54.574  13.424  1.00  0.00    -0.399 OA
HETATM   19  H   UNL     1     -38.010 -53.920  13.455  1.00  0.00     0.209 HD
ENDBRANCH  17  18
ENDBRANCH  16  17
ENDBRANCH  15  16
ENDBRANCH  14  15
ENDBRANCH  13  14
ENDBRANCH  11  13
ENDBRANCH   6  11
TORSDOF 7
ENDMDL
MODEL 7
REMARK VINA RESULT:      -4.4      2.194      3.669
REMARK  7 active torsions:
REMARK  status: ('A' for Active; 'I' for Inactive)
REMARK    1  A    between atoms: C_6  and  N_7 
REMARK    2  A    between atoms: N_7  and  C_8 
REMARK    3  A    between atoms: C_8  and  C_9 
REMARK    4  A    between atoms: C_9  and  O_10 
REMARK    5  A    between atoms: O_10  and  C_11 
REMARK    6  A    between atoms: C_11  and  C_12 
REMARK    7  A    between atoms: C_12  and  O_13 
ROOT
HETATM    1  C   UNL     1     -39.643 -47.453  11.643  1.00  0.00     0.052 C 
HETATM    2  C   UNL     1     -40.218 -48.828  11.729  1.00  0.00    -0.024 A 
HETATM    3  C   UNL     1     -41.580 -49.042  11.779  1.00  0.00     0.099 A 
HETATM    4  N   UNL     1     -42.154 -50.261  11.817  1.00  0.00    -0.342 N 
ATOM      5  HN  UNL     1     -43.167 -50.375  11.857  1.00  0.00     0.167 HD
HETATM    6  C   UNL     1     -41.330 -51.313  11.800  1.00  0.00     0.157 A 
HETATM    7  N   UNL     1     -39.995 -51.214  11.786  1.00  0.00    -0.336 N 
ATOM      8  HN  UNL     1     -39.406 -52.047  11.803  1.00  0.00     0.168 HD
HETATM    9  C   UNL     1     -39.449 -49.978  11.749  1.00  0.00     0.015 A 
HETATM   10  C   UNL     1     -37.948 -49.926  11.709  1.00  0.00     0.069 C 
ENDROOT
BRANCH   6  11
HETATM   11  N   UNL     1     -41.830 -52.603  11.757  1.00  0.00    -0.262 NA
HETATM   12  H   UNL     1     -41.098 -53.208  12.122  1.00  0.00     0.130 HD
BRANCH  11  13
HETATM   13  C   UNL     1     -43.126 -52.800  12.384  1.00  0.00     0.121 C 
BRANCH  13  14
HETATM   14  C   UNL     1     -43.007 -53.885  13.463  1.00  0.00     0.182 C 
BRANCH  14  15
HETATM   15  O   UNL     1     -41.679 -54.433  13.467  1.00  0.00    -0.388 OA
BRANCH  15  16
HETATM   16  C   UNL     1     -41.060 -54.268  14.750  1.00  0.00     0.193 C 
BRANCH  16  17
HETATM   17  C   UNL     1     -39.637 -53.755  14.552  1.00  0.00     0.190 C 
BRANCH  17  18
HETATM   18  O   UNL     1     -39.255 -53.884  13.184  1.00  0.00    -0.399 OA
HETATM   19  H   UNL     1     -38.591 -53.185  13.036  1.00  0.00     0.209 HD
ENDBRANCH  17  18
ENDBRANCH  16  17
ENDBRANCH  15  16
ENDBRANCH  14  15
ENDBRANCH  13  14
ENDBRANCH  11  13
ENDBRANCH   6  11
TORSDOF 7
ENDMDL
MODEL 8
REMARK VINA RESULT:      -4.4      5.025      6.613
REMARK  7 active torsions:
REMARK  status: ('A' for Active; 'I' for Inactive)
REMARK    1  A    between atoms: C_6  and  N_7 
REMARK    2  A    between atoms: N_7  and  C_8 
REMARK    3  A    between atoms: C_8  and  C_9 
REMARK    4  A    between atoms: C_9  and  O_10 
REMARK    5  A    between atoms: O_10  and  C_11 
REMARK    6  A    between atoms: C_11  and  C_12 
REMARK    7  A    between atoms: C_12  and  O_13 
ROOT
HETATM    1  C   UNL     1     -47.413 -51.530  15.769  1.00  0.00     0.052 C 
HETATM    2  C   UNL     1     -46.421 -51.991  14.753  1.00  0.00    -0.024 A 
HETATM    3  C   UNL     1     -46.269 -51.346  13.543  1.00  0.00     0.099 A 
HETATM    4  N   UNL     1     -45.364 -51.693  12.608  1.00  0.00    -0.342 N 
ATOM      5  HN  UNL     1     -45.287 -51.190  11.724  1.00  0.00     0.167 HD
HETATM    6  C   UNL     1     -44.572 -52.732  12.896  1.00  0.00     0.157 A 
HETATM    7  N   UNL     1     -44.660 -53.446  14.025  1.00  0.00    -0.336 N 
ATOM      8  HN  UNL     1     -44.052 -54.249  14.187  1.00  0.00     0.168 HD
HETATM    9  C   UNL     1     -45.579 -53.073  14.944  1.00  0.00     0.015 A 
HETATM   10  C   UNL     1     -45.617 -53.892  16.201  1.00  0.00     0.069 C 
ENDROOT
BRANCH   6  11
HETATM   11  N   UNL     1     -43.561 -53.112  12.030  1.00  0.00    -0.262 NA
HETATM   12  H   UNL     1     -43.931 -52.998  11.090  1.00  0.00     0.130 HD
BRANCH  11  13
HETATM   13  C   UNL     1     -42.274 -52.471  12.240  1.00  0.00     0.121 C 
BRANCH  13  14
HETATM   14  C   UNL     1     -41.262 -53.517  12.728  1.00  0.00     0.182 C 
BRANCH  14  15
HETATM   15  O   UNL     1     -41.658 -54.024  14.013  1.00  0.00    -0.388 OA
BRANCH  15  16
HETATM   16  C   UNL     1     -40.511 -54.345  14.813  1.00  0.00     0.193 C 
BRANCH  16  17
HETATM   17  C   UNL     1     -39.253 -54.170  13.968  1.00  0.00     0.190 C 
BRANCH  17  18
HETATM   18  O   UNL     1     -38.675 -55.441  13.680  1.00  0.00    -0.399 OA
HETATM   19  H   UNL     1     -39.207 -55.805  12.948  1.00  0.00     0.209 HD
ENDBRANCH  17  18
ENDBRANCH  16  17
ENDBRANCH  15  16
ENDBRANCH  14  15
ENDBRANCH  13  14
ENDBRANCH  11  13
ENDBRANCH   6  11
TORSDOF 7
ENDMDL
MODEL 9
REMARK VINA RESULT:      -4.4      5.337      7.475
REMARK  7 active torsions:
REMARK  status: ('A' for Active; 'I' for Inactive)
REMARK    1  A    between atoms: C_6  and  N_7 
REMARK    2  A    between atoms: N_7  and  C_8 
REMARK    3  A    between atoms: C_8  and  C_9 
REMARK    4  A    between atoms: C_9  and  O_10 
REMARK    5  A    between atoms: O_10  and  C_11 
REMARK    6  A    between atoms: C_11  and  C_12 
REMARK    7  A    between atoms: C_12  and  O_13 
ROOT
HETATM    1  C   UNL     1     -40.520 -54.107  14.072  1.00  0.00     0.052 C 
HETATM    2  C   UNL     1     -41.932 -53.949  13.613  1.00  0.00    -0.024 A 
HETATM    3  C   UNL     1     -42.970 -54.630  14.214  1.00  0.00     0.099 A 
HETATM    4  N   UNL     1     -44.265 -54.496  13.868  1.00  0.00    -0.342 N 
ATOM      5  HN  UNL     1     -45.002 -55.021  14.338  1.00  0.00     0.167 HD
HETATM    6  C   UNL     1     -44.536 -53.638  12.878  1.00  0.00     0.157 A 
HETATM    7  N   UNL     1     -43.600 -52.954  12.209  1.00  0.00    -0.336 N 
ATOM      8  HN  UNL     1     -43.854 -52.332  11.441  1.00  0.00     0.168 HD
HETATM    9  C   UNL     1     -42.310 -53.111  12.579  1.00  0.00     0.015 A 
HETATM   10  C   UNL     1     -41.305 -52.301  11.811  1.00  0.00     0.069 C 
ENDROOT
BRANCH   6  11
HETATM   11  N   UNL     1     -45.843 -53.376  12.508  1.00  0.00    -0.262 NA
HETATM   12  H   UNL     1     -46.432 -53.947  13.109  1.00  0.00     0.130 HD
BRANCH  11  13
HETATM   13  C   UNL     1     -46.221 -51.973  12.471  1.00  0.00     0.121 C 
BRANCH  13  14
HETATM   14  C   UNL     1     -46.589 -51.511  13.888  1.00  0.00     0.182 C 
BRANCH  14  15
HETATM   15  O   UNL     1     -46.723 -52.647  14.758  1.00  0.00    -0.388 OA
BRANCH  15  16
HETATM   16  C   UNL     1     -46.589 -52.257  16.133  1.00  0.00     0.193 C 
BRANCH  16  17
HETATM   17  C   UNL     1     -45.999 -53.422  16.922  1.00  0.00     0.190 C 
BRANCH  17  18
HETATM   18  O   UNL     1     -46.085 -54.624  16.160  1.00  0.00    -0.399 OA
HETATM   19  H   UNL     1     -46.665 -54.408  15.406  1.00  0.00     0.209 HD
ENDBRANCH  17  18
ENDBRANCH  16  17
ENDBRANCH  15  16
ENDBRANCH  14  15
ENDBRANCH  13  14
ENDBRANCH  11  13
ENDBRANCH   6  11
TORSDOF 7
ENDMDL
