MODEL 1
REMARK VINA RESULT:      -6.2      0.000      0.000
REMARK  4 active torsions:
REMARK  status: ('A' for Active; 'I' for Inactive)
REMARK    1  A    between atoms: C_2  and  O_3 
REMARK    2  A    between atoms: O_3  and  C_4 
REMARK    3  A    between atoms: C_6  and  N_7 
REMARK       I    between atoms: N_7  and  C_8 
REMARK       I    between atoms: C_8  and  N_10 
REMARK    4  A    between atoms: N_10  and  C_11 
ROOT
HETATM    1  N   UNL     1     -41.782 -48.442   9.955  1.00  0.00    -0.337 N 
HETATM    2  C   UNL     1     -41.035 -48.812  11.053  1.00  0.00     0.321 C 
HETATM    3  O   UNL     1     -41.078 -48.166  12.093  1.00  0.00    -0.247 OA
HETATM    4  N   UNL     1     -40.242 -49.910  10.809  1.00  0.00    -0.308 N 
HETATM    5  H   UNL     1     -42.055 -49.197   9.339  1.00  0.00     0.164 HD
HETATM    6  H   UNL     1     -40.113 -50.163   9.840  1.00  0.00     0.170 HD
ENDROOT
BRANCH   1   7
HETATM    7  C   UNL     1     -42.652 -47.233  10.056  1.00  0.00     0.099 C 
HETATM    8  C   UNL     1     -43.925 -47.448  10.896  1.00  0.00     0.059 C 
HETATM    9  C   UNL     1     -44.695 -47.742   9.589  1.00  0.00     0.133 C 
HETATM   10  C   UNL     1     -43.581 -46.957   8.818  1.00  0.00    -0.001 C 
HETATM   11  C   UNL     1     -43.211 -47.595   7.476  1.00  0.00     0.019 C 
HETATM   12  C   UNL     1     -43.855 -45.458   8.626  1.00  0.00     0.019 C 
BRANCH   9  13
HETATM   13  O   UNL     1     -46.039 -47.218   9.527  1.00  0.00    -0.385 OA
BRANCH  13  14
HETATM   14  C   UNL     1     -47.042 -48.136   9.102  1.00  0.00     0.163 C 
HETATM   15  C   UNL     1     -46.510 -48.931   7.929  1.00  0.00     0.033 C 
ENDBRANCH  13  14
ENDBRANCH   9  13
ENDBRANCH   1   7
BRANCH   4  16
HETATM   16  C   UNL     1     -39.372 -50.504  11.757  1.00  0.00     0.051 A 
HETATM   17  C   UNL     1     -37.992 -50.301  11.763  1.00  0.00     0.032 A 
HETATM   18  C   UNL     1     -37.189 -50.957  12.689  1.00  0.00     0.019 A 
HETATM   19  C   UNL     1     -37.795 -51.791  13.608  1.00  0.00     0.088 A 
HETATM   20  N   UNL     1     -39.130 -51.991  13.669  1.00  0.00    -0.373 N 
HETATM   21  C   UNL     1     -39.883 -51.344  12.743  1.00  0.00     0.117 A 
ATOM     22  HN  UNL     1     -39.550 -52.596  14.374  1.00  0.00     0.164 HD
ENDBRANCH   4  16
TORSDOF 4
ENDMDL
MODEL 2
REMARK VINA RESULT:      -5.9      4.603      6.387
REMARK  4 active torsions:
REMARK  status: ('A' for Active; 'I' for Inactive)
REMARK    1  A    between atoms: C_2  and  O_3 
REMARK    2  A    between atoms: O_3  and  C_4 
REMARK    3  A    between atoms: C_6  and  N_7 
REMARK       I    between atoms: N_7  and  C_8 
REMARK       I    between atoms: C_8  and  N_10 
REMARK    4  A    between atoms: N_10  and  C_11 
ROOT
HETATM    1  N   UNL     1     -43.835 -50.496  12.967  1.00  0.00    -0.337 N 
HETATM    2  C   UNL     1     -43.149 -49.309  12.816  1.00  0.00     0.321 C 
HETATM    3  O   UNL     1     -43.162 -48.457  13.694  1.00  0.00    -0.247 OA
HETATM    4  N   UNL     1     -42.532 -49.205  11.590  1.00  0.00    -0.308 N 
HETATM    5  H   UNL     1     -43.447 -51.289  12.472  1.00  0.00     0.164 HD
HETATM    6  H   UNL     1     -42.832 -49.860  10.881  1.00  0.00     0.170 HD
ENDROOT
BRANCH   1   7
HETATM    7  C   UNL     1     -44.598 -50.726  14.229  1.00  0.00     0.099 C 
HETATM    8  C   UNL     1     -44.014 -51.842  15.117  1.00  0.00     0.059 C 
HETATM    9  C   UNL     1     -45.017 -52.827  14.475  1.00  0.00     0.133 C 
HETATM   10  C   UNL     1     -45.901 -51.594  14.088  1.00  0.00    -0.001 C 
HETATM   11  C   UNL     1     -46.543 -51.722  12.704  1.00  0.00     0.019 C 
HETATM   12  C   UNL     1     -46.967 -51.206  15.124  1.00  0.00     0.019 C 
BRANCH   9  13
HETATM   13  O   UNL     1     -45.593 -53.800  15.372  1.00  0.00    -0.385 OA
BRANCH  13  14
HETATM   14  C   UNL     1     -46.319 -54.859  14.754  1.00  0.00     0.163 C 
HETATM   15  C   UNL     1     -45.480 -55.437  13.634  1.00  0.00     0.033 C 
ENDBRANCH  13  14
ENDBRANCH   9  13
ENDBRANCH   1   7
BRANCH   4  16
HETATM   16  C   UNL     1     -41.761 -48.096  11.166  1.00  0.00     0.051 A 
HETATM   17  C   UNL     1     -40.475 -47.832  11.635  1.00  0.00     0.032 A 
HETATM   18  C   UNL     1     -39.792 -46.695  11.217  1.00  0.00     0.019 A 
HETATM   19  C   UNL     1     -40.413 -45.853  10.314  1.00  0.00     0.088 A 
HETATM   20  N   UNL     1     -41.641 -46.083   9.801  1.00  0.00    -0.373 N 
HETATM   21  C   UNL     1     -42.283 -47.196  10.239  1.00  0.00     0.117 A 
ATOM     22  HN  UNL     1     -42.063 -45.454   9.119  1.00  0.00     0.164 HD
ENDBRANCH   4  16
TORSDOF 4
ENDMDL
MODEL 3
REMARK VINA RESULT:      -5.6      4.009      6.669
REMARK  4 active torsions:
REMARK  status: ('A' for Active; 'I' for Inactive)
REMARK    1  A    between atoms: C_2  and  O_3 
REMARK    2  A    between atoms: O_3  and  C_4 
REMARK    3  A    between atoms: C_6  and  N_7 
REMARK       I    between atoms: N_7  and  C_8 
REMARK       I    between atoms: C_8  and  N_10 
REMARK    4  A    between atoms: N_10  and  C_11 
ROOT
HETATM    1  N   UNL     1     -42.306 -51.201  12.163  1.00  0.00    -0.337 N 
HETATM    2  C   UNL     1     -42.008 -49.861  12.293  1.00  0.00     0.321 C 
HETATM    3  O   UNL     1     -41.640 -49.398  13.365  1.00  0.00    -0.247 OA
HETATM    4  N   UNL     1     -42.224 -49.154  11.133  1.00  0.00    -0.308 N 
HETATM    5  H   UNL     1     -42.160 -51.591  11.240  1.00  0.00     0.164 HD
HETATM    6  H   UNL     1     -42.776 -49.614  10.424  1.00  0.00     0.170 HD
ENDROOT
BRANCH   1   7
HETATM    7  C   UNL     1     -42.170 -52.084  13.358  1.00  0.00     0.099 C 
HETATM    8  C   UNL     1     -42.176 -53.589  13.026  1.00  0.00     0.059 C 
HETATM    9  C   UNL     1     -43.690 -53.614  13.332  1.00  0.00     0.133 C 
HETATM   10  C   UNL     1     -43.486 -52.317  14.186  1.00  0.00    -0.001 C 
HETATM   11  C   UNL     1     -44.627 -51.309  14.035  1.00  0.00     0.019 C 
HETATM   12  C   UNL     1     -43.194 -52.558  15.675  1.00  0.00     0.019 C 
BRANCH   9  13
HETATM   13  O   UNL     1     -44.166 -54.791  14.018  1.00  0.00    -0.385 OA
BRANCH  13  14
HETATM   14  C   UNL     1     -45.508 -55.174  13.732  1.00  0.00     0.163 C 
HETATM   15  C   UNL     1     -46.423 -54.562  14.773  1.00  0.00     0.033 C 
ENDBRANCH  13  14
ENDBRANCH   9  13
ENDBRANCH   1   7
BRANCH   4  16
HETATM   16  C   UNL     1     -42.003 -47.763  10.982  1.00  0.00     0.051 A 
HETATM   17  C   UNL     1     -40.732 -47.197  10.874  1.00  0.00     0.032 A 
HETATM   18  C   UNL     1     -40.582 -45.817  10.781  1.00  0.00     0.019 A 
HETATM   19  C   UNL     1     -41.720 -45.033  10.776  1.00  0.00     0.088 A 
HETATM   20  N   UNL     1     -42.973 -45.535  10.839  1.00  0.00    -0.373 N 
HETATM   21  C   UNL     1     -43.082 -46.884  10.940  1.00  0.00     0.117 A 
ATOM     22  HN  UNL     1     -43.794 -44.931  10.811  1.00  0.00     0.164 HD
ENDBRANCH   4  16
TORSDOF 4
ENDMDL
MODEL 4
REMARK VINA RESULT:      -5.2      4.484      5.788
REMARK  4 active torsions:
REMARK  status: ('A' for Active; 'I' for Inactive)
REMARK    1  A    between atoms: C_2  and  O_3 
REMARK    2  A    between atoms: O_3  and  C_4 
REMARK    3  A    between atoms: C_6  and  N_7 
REMARK       I    between atoms: N_7  and  C_8 
REMARK       I    between atoms: C_8  and  N_10 
REMARK    4  A    between atoms: N_10  and  C_11 
ROOT
HETATM    1  N   UNL     1     -43.358 -49.633  12.562  1.00  0.00    -0.337 N 
HETATM    2  C   UNL     1     -43.766 -50.681  13.360  1.00  0.00     0.321 C 
HETATM    3  O   UNL     1     -43.341 -50.808  14.501  1.00  0.00    -0.247 OA
HETATM    4  N   UNL     1     -44.622 -51.541  12.711  1.00  0.00    -0.308 N 
HETATM    5  H   UNL     1     -44.028 -49.328  11.867  1.00  0.00     0.164 HD
HETATM    6  H   UNL     1     -44.665 -51.455  11.705  1.00  0.00     0.170 HD
ENDROOT
BRANCH   1   7
HETATM    7  C   UNL     1     -42.384 -48.648  13.116  1.00  0.00     0.099 C 
HETATM    8  C   UNL     1     -42.994 -47.262  13.406  1.00  0.00     0.059 C 
HETATM    9  C   UNL     1     -42.494 -46.793  12.022  1.00  0.00     0.133 C 
HETATM   10  C   UNL     1     -41.444 -47.954  12.065  1.00  0.00    -0.001 C 
HETATM   11  C   UNL     1     -41.242 -48.636  10.710  1.00  0.00     0.019 C 
HETATM   12  C   UNL     1     -40.082 -47.578  12.669  1.00  0.00     0.019 C 
BRANCH   9  13
HETATM   13  O   UNL     1     -41.987 -45.442  11.969  1.00  0.00    -0.385 OA
BRANCH  13  14
HETATM   14  C   UNL     1     -42.418 -44.662  10.858  1.00  0.00     0.163 C 
HETATM   15  C   UNL     1     -43.153 -45.561   9.886  1.00  0.00     0.033 C 
ENDBRANCH  13  14
ENDBRANCH   9  13
ENDBRANCH   1   7
BRANCH   4  16
HETATM   16  C   UNL     1     -45.195 -52.700  13.289  1.00  0.00     0.051 A 
HETATM   17  C   UNL     1     -44.580 -53.952  13.263  1.00  0.00     0.032 A 
HETATM   18  C   UNL     1     -45.221 -55.062  13.804  1.00  0.00     0.019 A 
HETATM   19  C   UNL     1     -46.463 -54.884  14.382  1.00  0.00     0.088 A 
HETATM   20  N   UNL     1     -47.083 -53.687  14.466  1.00  0.00    -0.373 N 
HETATM   21  C   UNL     1     -46.435 -52.628  13.919  1.00  0.00     0.117 A 
ATOM     22  HN  UNL     1     -47.991 -53.585  14.919  1.00  0.00     0.164 HD
ENDBRANCH   4  16
TORSDOF 4
ENDMDL
MODEL 5
REMARK VINA RESULT:      -5.2      3.963      7.518
REMARK  4 active torsions:
REMARK  status: ('A' for Active; 'I' for Inactive)
REMARK    1  A    between atoms: C_2  and  O_3 
REMARK    2  A    between atoms: O_3  and  C_4 
REMARK    3  A    between atoms: C_6  and  N_7 
REMARK       I    between atoms: N_7  and  C_8 
REMARK       I    between atoms: C_8  and  N_10 
REMARK    4  A    between atoms: N_10  and  C_11 
ROOT
HETATM    1  N   UNL     1     -40.171 -47.574  12.296  1.00  0.00    -0.337 N 
HETATM    2  C   UNL     1     -40.417 -46.384  11.644  1.00  0.00     0.321 C 
HETATM    3  O   UNL     1     -40.113 -46.236  10.467  1.00  0.00    -0.247 OA
HETATM    4  N   UNL     1     -40.967 -45.430  12.469  1.00  0.00    -0.308 N 
HETATM    5  H   UNL     1     -40.806 -47.794  13.053  1.00  0.00     0.164 HD
HETATM    6  H   UNL     1     -40.908 -45.609  13.461  1.00  0.00     0.170 HD
ENDROOT
BRANCH   1   7
HETATM    7  C   UNL     1     -39.526 -48.686  11.539  1.00  0.00     0.099 C 
HETATM    8  C   UNL     1     -40.392 -49.957  11.437  1.00  0.00     0.059 C 
HETATM    9  C   UNL     1     -39.643 -50.522  12.664  1.00  0.00     0.133 C 
HETATM   10  C   UNL     1     -38.472 -49.534  12.340  1.00  0.00    -0.001 C 
HETATM   11  C   UNL     1     -37.840 -48.915  13.589  1.00  0.00     0.019 C 
HETATM   12  C   UNL     1     -37.375 -50.102  11.426  1.00  0.00     0.019 C 
BRANCH   9  13
HETATM   13  O   UNL     1     -39.350 -51.935  12.617  1.00  0.00    -0.385 OA
BRANCH  13  14
HETATM   14  C   UNL     1     -39.986 -52.732  13.612  1.00  0.00     0.163 C 
HETATM   15  C   UNL     1     -40.911 -53.718  12.930  1.00  0.00     0.033 C 
ENDBRANCH  13  14
ENDBRANCH   9  13
ENDBRANCH   1   7
BRANCH   4  16
HETATM   16  C   UNL     1     -41.319 -44.119  12.064  1.00  0.00     0.051 A 
HETATM   17  C   UNL     1     -42.629 -43.728  11.792  1.00  0.00     0.032 A 
HETATM   18  C   UNL     1     -42.901 -42.438  11.348  1.00  0.00     0.019 A 
HETATM   19  C   UNL     1     -41.845 -41.558  11.207  1.00  0.00     0.088 A 
HETATM   20  N   UNL     1     -40.564 -41.876  11.494  1.00  0.00    -0.373 N 
HETATM   21  C   UNL     1     -40.334 -43.146  11.914  1.00  0.00     0.117 A 
ATOM     22  HN  UNL     1     -39.809 -41.196  11.401  1.00  0.00     0.164 HD
ENDBRANCH   4  16
TORSDOF 4
ENDMDL
MODEL 6
REMARK VINA RESULT:      -5.2      4.202      7.542
REMARK  4 active torsions:
REMARK  status: ('A' for Active; 'I' for Inactive)
REMARK    1  A    between atoms: C_2  and  O_3 
REMARK    2  A    between atoms: O_3  and  C_4 
REMARK    3  A    between atoms: C_6  and  N_7 
REMARK       I    between atoms: N_7  and  C_8 
REMARK       I    between atoms: C_8  and  N_10 
REMARK    4  A    between atoms: N_10  and  C_11 
ROOT
HETATM    1  N   UNL     1     -42.159 -45.263  11.597  1.00  0.00    -0.337 N 
HETATM    2  C   UNL     1     -42.943 -46.287  11.107  1.00  0.00     0.321 C 
HETATM    3  O   UNL     1     -43.043 -47.348  11.710  1.00  0.00    -0.247 OA
HETATM    4  N   UNL     1     -43.516 -45.983   9.894  1.00  0.00    -0.308 N 
HETATM    5  H   UNL     1     -42.453 -44.329  11.340  1.00  0.00     0.164 HD
HETATM    6  H   UNL     1     -43.130 -45.190   9.402  1.00  0.00     0.170 HD
ENDROOT
BRANCH   1   7
HETATM    7  C   UNL     1     -41.431 -45.471  12.882  1.00  0.00     0.099 C 
HETATM    8  C   UNL     1     -41.972 -44.624  14.051  1.00  0.00     0.059 C 
HETATM    9  C   UNL     1     -40.882 -43.572  13.745  1.00  0.00     0.133 C 
HETATM   10  C   UNL     1     -40.068 -44.700  13.025  1.00  0.00    -0.001 C 
HETATM   11  C   UNL     1     -39.368 -44.221  11.752  1.00  0.00     0.019 C 
HETATM   12  C   UNL     1     -39.071 -45.454  13.919  1.00  0.00     0.019 C 
BRANCH   9  13
HETATM   13  O   UNL     1     -40.277 -42.951  14.899  1.00  0.00    -0.385 OA
BRANCH  13  14
HETATM   14  C   UNL     1     -40.513 -41.554  15.045  1.00  0.00     0.163 C 
HETATM   15  C   UNL     1     -40.429 -40.899  13.682  1.00  0.00     0.033 C 
ENDBRANCH  13  14
ENDBRANCH   9  13
ENDBRANCH   1   7
BRANCH   4  16
HETATM   16  C   UNL     1     -44.366 -46.849   9.163  1.00  0.00     0.051 A 
HETATM   17  C   UNL     1     -45.704 -47.064   9.490  1.00  0.00     0.032 A 
HETATM   18  C   UNL     1     -46.470 -47.969   8.762  1.00  0.00     0.019 A 
HETATM   19  C   UNL     1     -45.876 -48.625   7.701  1.00  0.00     0.088 A 
HETATM   20  N   UNL     1     -44.597 -48.423   7.320  1.00  0.00    -0.373 N 
HETATM   21  C   UNL     1     -43.875 -47.543   8.059  1.00  0.00     0.117 A 
ATOM     22  HN  UNL     1     -44.193 -48.907   6.518  1.00  0.00     0.164 HD
ENDBRANCH   4  16
TORSDOF 4
ENDMDL
MODEL 7
REMARK VINA RESULT:      -5.1      5.168      6.413
REMARK  4 active torsions:
REMARK  status: ('A' for Active; 'I' for Inactive)
REMARK    1  A    between atoms: C_2  and  O_3 
REMARK    2  A    between atoms: O_3  and  C_4 
REMARK    3  A    between atoms: C_6  and  N_7 
REMARK       I    between atoms: N_7  and  C_8 
REMARK       I    between atoms: C_8  and  N_10 
REMARK    4  A    between atoms: N_10  and  C_11 
ROOT
HETATM    1  N   UNL     1     -43.812 -50.929  13.909  1.00  0.00    -0.337 N 
HETATM    2  C   UNL     1     -42.610 -51.255  13.317  1.00  0.00     0.321 C 
HETATM    3  O   UNL     1     -42.412 -52.377  12.868  1.00  0.00    -0.247 OA
HETATM    4  N   UNL     1     -41.703 -50.221  13.351  1.00  0.00    -0.308 N 
HETATM    5  H   UNL     1     -44.079 -49.954  13.843  1.00  0.00     0.164 HD
HETATM    6  H   UNL     1     -41.913 -49.462  13.983  1.00  0.00     0.170 HD
ENDROOT
BRANCH   1   7
HETATM    7  C   UNL     1     -44.875 -51.972  13.994  1.00  0.00     0.099 C 
HETATM    8  C   UNL     1     -46.307 -51.416  13.868  1.00  0.00     0.059 C 
HETATM    9  C   UNL     1     -46.390 -51.381  15.410  1.00  0.00     0.133 C 
HETATM   10  C   UNL     1     -45.246 -52.450  15.445  1.00  0.00    -0.001 C 
HETATM   11  C   UNL     1     -44.234 -52.215  16.568  1.00  0.00     0.019 C 
HETATM   12  C   UNL     1     -45.722 -53.911  15.466  1.00  0.00     0.019 C 
BRANCH   9  13
HETATM   13  O   UNL     1     -47.665 -51.756  15.973  1.00  0.00    -0.385 OA
BRANCH  13  14
HETATM   14  C   UNL     1     -48.088 -51.002  17.105  1.00  0.00     0.163 C 
HETATM   15  C   UNL     1     -47.756 -51.779  18.361  1.00  0.00     0.033 C 
ENDBRANCH  13  14
ENDBRANCH   9  13
ENDBRANCH   1   7
BRANCH   4  16
HETATM   16  C   UNL     1     -40.392 -50.278  12.817  1.00  0.00     0.051 A 
HETATM   17  C   UNL     1     -39.276 -50.647  13.568  1.00  0.00     0.032 A 
HETATM   18  C   UNL     1     -38.008 -50.632  12.996  1.00  0.00     0.019 A 
HETATM   19  C   UNL     1     -37.891 -50.266  11.669  1.00  0.00     0.088 A 
HETATM   20  N   UNL     1     -38.945 -49.938  10.890  1.00  0.00    -0.373 N 
HETATM   21  C   UNL     1     -40.166 -49.952  11.482  1.00  0.00     0.117 A 
ATOM     22  HN  UNL     1     -38.828 -49.693   9.907  1.00  0.00     0.164 HD
ENDBRANCH   4  16
TORSDOF 4
ENDMDL
MODEL 8
REMARK VINA RESULT:      -5.0      5.008      7.200
REMARK  4 active torsions:
REMARK  status: ('A' for Active; 'I' for Inactive)
REMARK    1  A    between atoms: C_2  and  O_3 
REMARK    2  A    between atoms: O_3  and  C_4 
REMARK    3  A    between atoms: C_6  and  N_7 
REMARK       I    between atoms: N_7  and  C_8 
REMARK       I    between atoms: C_8  and  N_10 
REMARK    4  A    between atoms: N_10  and  C_11 
ROOT
HETATM    1  N   UNL     1     -42.486 -52.184  14.567  1.00  0.00    -0.337 N 
HETATM    2  C   UNL     1     -41.658 -51.912  13.498  1.00  0.00     0.321 C 
HETATM    3  O   UNL     1     -41.993 -52.190  12.354  1.00  0.00    -0.247 OA
HETATM    4  N   UNL     1     -40.454 -51.369  13.884  1.00  0.00    -0.308 N 
HETATM    5  H   UNL     1     -42.385 -51.567  15.363  1.00  0.00     0.164 HD
HETATM    6  H   UNL     1     -40.220 -51.449  14.863  1.00  0.00     0.170 HD
ENDROOT
BRANCH   1   7
HETATM    7  C   UNL     1     -43.807 -52.826  14.305  1.00  0.00     0.099 C 
HETATM    8  C   UNL     1     -44.918 -52.389  15.280  1.00  0.00     0.059 C 
HETATM    9  C   UNL     1     -44.615 -53.644  16.129  1.00  0.00     0.133 C 
HETATM   10  C   UNL     1     -43.975 -54.289  14.854  1.00  0.00    -0.001 C 
HETATM   11  C   UNL     1     -42.712 -55.100  15.156  1.00  0.00     0.019 C 
HETATM   12  C   UNL     1     -44.937 -55.121  13.992  1.00  0.00     0.019 C 
BRANCH   9  13
HETATM   13  O   UNL     1     -45.767 -54.303  16.697  1.00  0.00    -0.385 OA
BRANCH  13  14
HETATM   14  C   UNL     1     -46.118 -53.905  18.019  1.00  0.00     0.163 C 
HETATM   15  C   UNL     1     -46.165 -55.134  18.903  1.00  0.00     0.033 C 
ENDBRANCH  13  14
ENDBRANCH   9  13
ENDBRANCH   1   7
BRANCH   4  16
HETATM   16  C   UNL     1     -39.416 -50.994  12.996  1.00  0.00     0.051 A 
HETATM   17  C   UNL     1     -38.086 -51.380  13.167  1.00  0.00     0.032 A 
HETATM   18  C   UNL     1     -37.106 -50.933  12.287  1.00  0.00     0.019 A 
HETATM   19  C   UNL     1     -37.489 -50.122  11.236  1.00  0.00     0.088 A 
HETATM   20  N   UNL     1     -38.767 -49.753  11.006  1.00  0.00    -0.373 N 
HETATM   21  C   UNL     1     -39.696 -50.197  11.890  1.00  0.00     0.117 A 
ATOM     22  HN  UNL     1     -39.021 -49.171  10.207  1.00  0.00     0.164 HD
ENDBRANCH   4  16
TORSDOF 4
ENDMDL
MODEL 9
REMARK VINA RESULT:      -4.8      3.855      4.624
REMARK  4 active torsions:
REMARK  status: ('A' for Active; 'I' for Inactive)
REMARK    1  A    between atoms: C_2  and  O_3 
REMARK    2  A    between atoms: O_3  and  C_4 
REMARK    3  A    between atoms: C_6  and  N_7 
REMARK       I    between atoms: N_7  and  C_8 
REMARK       I    between atoms: C_8  and  N_10 
REMARK    4  A    between atoms: N_10  and  C_11 
ROOT
HETATM    1  N   UNL     1     -41.715 -47.961  12.109  1.00  0.00    -0.337 N 
HETATM    2  C   UNL     1     -41.663 -49.194  12.725  1.00  0.00     0.321 C 
HETATM    3  O   UNL     1     -41.316 -49.301  13.894  1.00  0.00    -0.247 OA
HETATM    4  N   UNL     1     -41.984 -50.227  11.874  1.00  0.00    -0.308 N 
HETATM    5  H   UNL     1     -42.395 -47.875  11.364  1.00  0.00     0.164 HD
HETATM    6  H   UNL     1     -41.984 -50.010  10.888  1.00  0.00     0.170 HD
ENDROOT
BRANCH   1   7
HETATM    7  C   UNL     1     -41.340 -46.751  12.897  1.00  0.00     0.099 C 
HETATM    8  C   UNL     1     -42.547 -45.927  13.388  1.00  0.00     0.059 C 
HETATM    9  C   UNL     1     -42.386 -45.019  12.148  1.00  0.00     0.133 C 
HETATM   10  C   UNL     1     -40.898 -45.499  12.054  1.00  0.00    -0.001 C 
HETATM   11  C   UNL     1     -40.426 -45.723  10.615  1.00  0.00     0.019 C 
HETATM   12  C   UNL     1     -39.884 -44.626  12.808  1.00  0.00     0.019 C 
BRANCH   9  13
HETATM   13  O   UNL     1     -42.615 -43.612  12.374  1.00  0.00    -0.385 OA
BRANCH  13  14
HETATM   14  C   UNL     1     -43.043 -42.865  11.239  1.00  0.00     0.163 C 
HETATM   15  C   UNL     1     -41.969 -41.860  10.882  1.00  0.00     0.033 C 
ENDBRANCH  13  14
ENDBRANCH   9  13
ENDBRANCH   1   7
BRANCH   4  16
HETATM   16  C   UNL     1     -42.010 -51.595  12.239  1.00  0.00     0.051 A 
HETATM   17  C   UNL     1     -43.092 -52.195  12.884  1.00  0.00     0.032 A 
HETATM   18  C   UNL     1     -43.032 -53.532  13.262  1.00  0.00     0.019 A 
HETATM   19  C   UNL     1     -41.889 -54.247  12.963  1.00  0.00     0.088 A 
HETATM   20  N   UNL     1     -40.831 -53.723  12.306  1.00  0.00    -0.373 N 
HETATM   21  C   UNL     1     -40.918 -52.413  11.962  1.00  0.00     0.117 A 
ATOM     22  HN  UNL     1     -40.009 -54.284  12.080  1.00  0.00     0.164 HD
ENDBRANCH   4  16
TORSDOF 4
ENDMDL
