MODEL 1
REMARK VINA RESULT:      -5.9      0.000      0.000
REMARK  6 active torsions:
REMARK  status: ('A' for Active; 'I' for Inactive)
REMARK    1  A    between atoms: O_1  and  C_2 
REMARK    2  A    between atoms: C_2  and  C_3 
REMARK    3  A    between atoms: N_12  and  C_13 
REMARK    4  A    between atoms: C_13  and  C_14 
REMARK    5  A    between atoms: C_14  and  O_15 
REMARK    6  A    between atoms: O_15  and  C_16 
ROOT
HETATM    1  C   UNL     1     -42.422 -53.442  12.963  1.00  0.00     0.108 A 
HETATM    2  N   UNL     1     -43.522 -53.582  12.244  1.00  0.00    -0.342 N 
ATOM      3  HN  UNL     1     -43.632 -54.133  11.393  1.00  0.00     0.167 HD
HETATM    4  C   UNL     1     -44.484 -52.837  12.872  1.00  0.00     0.060 A 
HETATM    5  C   UNL     1     -45.824 -52.634  12.510  1.00  0.00     0.032 A 
HETATM    6  C   UNL     1     -46.620 -51.804  13.307  1.00  0.00     0.002 A 
HETATM    7  C   UNL     1     -46.090 -51.190  14.441  1.00  0.00     0.002 A 
HETATM    8  C   UNL     1     -44.756 -51.389  14.822  1.00  0.00     0.032 A 
HETATM    9  C   UNL     1     -43.976 -52.230  14.015  1.00  0.00     0.062 A 
HETATM   10  N   UNL     1     -42.667 -52.652  14.072  1.00  0.00    -0.331 N 
ENDROOT
BRANCH  10  11
HETATM   11  C   UNL     1     -41.706 -52.284  15.099  1.00  0.00     0.157 C 
BRANCH  11  12
HETATM   12  C   UNL     1     -41.137 -50.894  14.847  1.00  0.00     0.196 C 
BRANCH  12  13
HETATM   13  O   UNL     1     -40.308 -50.884  13.679  1.00  0.00    -0.348 OA
BRANCH  13  14
HETATM   14  C   UNL     1     -40.586 -49.858  12.801  1.00  0.00     0.090 A 
HETATM   15  C   UNL     1     -41.822 -49.720  12.151  1.00  0.00     0.038 A 
HETATM   16  C   UNL     1     -42.065 -48.648  11.291  1.00  0.00     0.003 A 
HETATM   17  C   UNL     1     -41.066 -47.713  11.044  1.00  0.00     0.002 A 
HETATM   18  C   UNL     1     -39.816 -47.859  11.646  1.00  0.00     0.026 A 
HETATM   19  C   UNL     1     -39.573 -48.930  12.515  1.00  0.00     0.067 A 
HETATM   20 CL   UNL     1     -38.003 -49.056  13.227  1.00  0.00    -0.081 Cl
ENDBRANCH  13  14
ENDBRANCH  12  13
ENDBRANCH  11  12
ENDBRANCH  10  11
BRANCH   1  21
HETATM   21  C   UNL     1     -41.113 -54.070  12.628  1.00  0.00     0.240 C 
BRANCH  21  22
HETATM   22  O   UNL     1     -40.468 -53.266  11.648  1.00  0.00    -0.393 OA
HETATM   23  H   UNL     1     -39.516 -53.440  11.733  1.00  0.00     0.209 HD
ENDBRANCH  21  22
ENDBRANCH   1  21
TORSDOF 6
ENDMDL
MODEL 2
REMARK VINA RESULT:      -5.8      1.692      2.349
REMARK  6 active torsions:
REMARK  status: ('A' for Active; 'I' for Inactive)
REMARK    1  A    between atoms: O_1  and  C_2 
REMARK    2  A    between atoms: C_2  and  C_3 
REMARK    3  A    between atoms: N_12  and  C_13 
REMARK    4  A    between atoms: C_13  and  C_14 
REMARK    5  A    between atoms: C_14  and  O_15 
REMARK    6  A    between atoms: O_15  and  C_16 
ROOT
HETATM    1  C   UNL     1     -42.427 -52.328  12.333  1.00  0.00     0.108 A 
HETATM    2  N   UNL     1     -43.167 -53.420  12.400  1.00  0.00    -0.342 N 
ATOM      3  HN  UNL     1     -42.941 -54.338  12.019  1.00  0.00     0.167 HD
HETATM    4  C   UNL     1     -44.301 -53.069  13.083  1.00  0.00     0.060 A 
HETATM    5  C   UNL     1     -45.415 -53.855  13.413  1.00  0.00     0.032 A 
HETATM    6  C   UNL     1     -46.476 -53.264  14.109  1.00  0.00     0.002 A 
HETATM    7  C   UNL     1     -46.426 -51.917  14.467  1.00  0.00     0.002 A 
HETATM    8  C   UNL     1     -45.316 -51.120  14.153  1.00  0.00     0.032 A 
HETATM    9  C   UNL     1     -44.260 -51.733  13.462  1.00  0.00     0.062 A 
HETATM   10  N   UNL     1     -43.043 -51.284  13.000  1.00  0.00    -0.331 N 
ENDROOT
BRANCH  10  11
HETATM   11  C   UNL     1     -42.530 -49.932  13.152  1.00  0.00     0.157 C 
BRANCH  11  12
HETATM   12  C   UNL     1     -41.644 -49.817  14.385  1.00  0.00     0.196 C 
BRANCH  12  13
HETATM   13  O   UNL     1     -40.539 -48.938  14.143  1.00  0.00    -0.348 OA
BRANCH  13  14
HETATM   14  C   UNL     1     -39.480 -49.533  13.490  1.00  0.00     0.090 A 
HETATM   15  C   UNL     1     -38.779 -50.631  14.011  1.00  0.00     0.038 A 
HETATM   16  C   UNL     1     -37.730 -51.215  13.300  1.00  0.00     0.003 A 
HETATM   17  C   UNL     1     -37.347 -50.694  12.070  1.00  0.00     0.002 A 
HETATM   18  C   UNL     1     -38.002 -49.574  11.557  1.00  0.00     0.026 A 
HETATM   19  C   UNL     1     -39.060 -48.990  12.266  1.00  0.00     0.067 A 
HETATM   20 CL   UNL     1     -39.829 -47.604  11.578  1.00  0.00    -0.081 Cl
ENDBRANCH  13  14
ENDBRANCH  12  13
ENDBRANCH  11  12
ENDBRANCH  10  11
BRANCH   1  21
HETATM   21  C   UNL     1     -41.105 -52.248  11.650  1.00  0.00     0.240 C 
BRANCH  21  22
HETATM   22  O   UNL     1     -40.574 -53.564  11.546  1.00  0.00    -0.393 OA
HETATM   23  H   UNL     1     -39.823 -53.606  12.160  1.00  0.00     0.209 HD
ENDBRANCH  21  22
ENDBRANCH   1  21
TORSDOF 6
ENDMDL
MODEL 3
REMARK VINA RESULT:      -5.8      1.543      2.080
REMARK  6 active torsions:
REMARK  status: ('A' for Active; 'I' for Inactive)
REMARK    1  A    between atoms: O_1  and  C_2 
REMARK    2  A    between atoms: C_2  and  C_3 
REMARK    3  A    between atoms: N_12  and  C_13 
REMARK    4  A    between atoms: C_13  and  C_14 
REMARK    5  A    between atoms: C_14  and  O_15 
REMARK    6  A    between atoms: O_15  and  C_16 
ROOT
HETATM    1  C   UNL     1     -42.225 -52.794  12.956  1.00  0.00     0.108 A 
HETATM    2  N   UNL     1     -43.245 -53.281  12.272  1.00  0.00    -0.342 N 
ATOM      3  HN  UNL     1     -43.203 -53.943  11.498  1.00  0.00     0.167 HD
HETATM    4  C   UNL     1     -44.369 -52.717  12.813  1.00  0.00     0.060 A 
HETATM    5  C   UNL     1     -45.712 -52.888  12.444  1.00  0.00     0.032 A 
HETATM    6  C   UNL     1     -46.699 -52.183  13.140  1.00  0.00     0.002 A 
HETATM    7  C   UNL     1     -46.353 -51.324  14.184  1.00  0.00     0.002 A 
HETATM    8  C   UNL     1     -45.018 -51.148  14.572  1.00  0.00     0.032 A 
HETATM    9  C   UNL     1     -44.044 -51.871  13.866  1.00  0.00     0.062 A 
HETATM   10  N   UNL     1     -42.673 -51.956  13.961  1.00  0.00    -0.331 N 
ENDROOT
BRANCH  10  11
HETATM   11  C   UNL     1     -41.848 -51.244  14.924  1.00  0.00     0.157 C 
BRANCH  11  12
HETATM   12  C   UNL     1     -41.592 -49.812  14.476  1.00  0.00     0.196 C 
BRANCH  12  13
HETATM   13  O   UNL     1     -40.242 -49.421  14.753  1.00  0.00    -0.348 OA
BRANCH  13  14
HETATM   14  C   UNL     1     -39.340 -49.781  13.774  1.00  0.00     0.090 A 
HETATM   15  C   UNL     1     -39.412 -49.308  12.455  1.00  0.00     0.038 A 
HETATM   16  C   UNL     1     -38.459 -49.681  11.506  1.00  0.00     0.003 A 
HETATM   17  C   UNL     1     -37.436 -50.555  11.853  1.00  0.00     0.002 A 
HETATM   18  C   UNL     1     -37.374 -51.072  13.147  1.00  0.00     0.026 A 
HETATM   19  C   UNL     1     -38.327 -50.694  14.103  1.00  0.00     0.067 A 
HETATM   20 CL   UNL     1     -38.197 -51.371  15.688  1.00  0.00    -0.081 Cl
ENDBRANCH  13  14
ENDBRANCH  12  13
ENDBRANCH  11  12
ENDBRANCH  10  11
BRANCH   1  21
HETATM   21  C   UNL     1     -40.797 -53.125  12.687  1.00  0.00     0.240 C 
BRANCH  21  22
HETATM   22  O   UNL     1     -40.610 -53.195  11.279  1.00  0.00    -0.393 OA
HETATM   23  H   UNL     1     -41.282 -52.615  10.884  1.00  0.00     0.209 HD
ENDBRANCH  21  22
ENDBRANCH   1  21
TORSDOF 6
ENDMDL
MODEL 4
REMARK VINA RESULT:      -5.7      2.934      5.184
REMARK  6 active torsions:
REMARK  status: ('A' for Active; 'I' for Inactive)
REMARK    1  A    between atoms: O_1  and  C_2 
REMARK    2  A    between atoms: C_2  and  C_3 
REMARK    3  A    between atoms: N_12  and  C_13 
REMARK    4  A    between atoms: C_13  and  C_14 
REMARK    5  A    between atoms: C_14  and  O_15 
REMARK    6  A    between atoms: O_15  and  C_16 
ROOT
HETATM    1  C   UNL     1     -40.388 -53.278  14.093  1.00  0.00     0.108 A 
HETATM    2  N   UNL     1     -39.971 -52.366  13.233  1.00  0.00    -0.342 N 
ATOM      3  HN  UNL     1     -39.100 -52.376  12.703  1.00  0.00     0.167 HD
HETATM    4  C   UNL     1     -40.944 -51.404  13.197  1.00  0.00     0.060 A 
HETATM    5  C   UNL     1     -40.987 -50.214  12.456  1.00  0.00     0.032 A 
HETATM    6  C   UNL     1     -42.092 -49.367  12.600  1.00  0.00     0.002 A 
HETATM    7  C   UNL     1     -43.133 -49.702  13.466  1.00  0.00     0.002 A 
HETATM    8  C   UNL     1     -43.111 -50.892  14.208  1.00  0.00     0.032 A 
HETATM    9  C   UNL     1     -41.998 -51.730  14.043  1.00  0.00     0.062 A 
HETATM   10  N   UNL     1     -41.637 -52.944  14.583  1.00  0.00    -0.331 N 
ENDROOT
BRANCH  10  11
HETATM   11  C   UNL     1     -42.422 -53.708  15.540  1.00  0.00     0.157 C 
BRANCH  11  12
HETATM   12  C   UNL     1     -43.239 -54.787  14.843  1.00  0.00     0.196 C 
BRANCH  12  13
HETATM   13  O   UNL     1     -44.623 -54.694  15.198  1.00  0.00    -0.348 OA
BRANCH  13  14
HETATM   14  C   UNL     1     -45.301 -53.679  14.557  1.00  0.00     0.090 A 
HETATM   15  C   UNL     1     -45.300 -53.519  13.162  1.00  0.00     0.038 A 
HETATM   16  C   UNL     1     -46.025 -52.491  12.557  1.00  0.00     0.003 A 
HETATM   17  C   UNL     1     -46.738 -51.589  13.339  1.00  0.00     0.002 A 
HETATM   18  C   UNL     1     -46.713 -51.704  14.729  1.00  0.00     0.026 A 
HETATM   19  C   UNL     1     -45.992 -52.740  15.337  1.00  0.00     0.067 A 
HETATM   20 CL   UNL     1     -45.999 -52.826  17.063  1.00  0.00    -0.081 Cl
ENDBRANCH  13  14
ENDBRANCH  12  13
ENDBRANCH  11  12
ENDBRANCH  10  11
BRANCH   1  21
HETATM   21  C   UNL     1     -39.620 -54.502  14.459  1.00  0.00     0.240 C 
BRANCH  21  22
HETATM   22  O   UNL     1     -38.803 -54.866  13.354  1.00  0.00    -0.393 OA
HETATM   23  H   UNL     1     -39.015 -55.792  13.150  1.00  0.00     0.209 HD
ENDBRANCH  21  22
ENDBRANCH   1  21
TORSDOF 6
ENDMDL
MODEL 5
REMARK VINA RESULT:      -5.7      2.818      6.092
REMARK  6 active torsions:
REMARK  status: ('A' for Active; 'I' for Inactive)
REMARK    1  A    between atoms: O_1  and  C_2 
REMARK    2  A    between atoms: C_2  and  C_3 
REMARK    3  A    between atoms: N_12  and  C_13 
REMARK    4  A    between atoms: C_13  and  C_14 
REMARK    5  A    between atoms: C_14  and  O_15 
REMARK    6  A    between atoms: O_15  and  C_16 
ROOT
HETATM    1  C   UNL     1     -39.554 -52.774  13.658  1.00  0.00     0.108 A 
HETATM    2  N   UNL     1     -38.547 -52.148  14.241  1.00  0.00    -0.342 N 
ATOM      3  HN  UNL     1     -37.881 -52.544  14.903  1.00  0.00     0.167 HD
HETATM    4  C   UNL     1     -38.580 -50.861  13.777  1.00  0.00     0.060 A 
HETATM    5  C   UNL     1     -37.740 -49.783  14.095  1.00  0.00     0.032 A 
HETATM    6  C   UNL     1     -37.984 -48.539  13.502  1.00  0.00     0.002 A 
HETATM    7  C   UNL     1     -39.044 -48.375  12.610  1.00  0.00     0.002 A 
HETATM    8  C   UNL     1     -39.888 -49.443  12.275  1.00  0.00     0.032 A 
HETATM    9  C   UNL     1     -39.622 -50.683  12.875  1.00  0.00     0.062 A 
HETATM   10  N   UNL     1     -40.214 -51.923  12.789  1.00  0.00    -0.331 N 
ENDROOT
BRANCH  10  11
HETATM   11  C   UNL     1     -41.363 -52.254  11.962  1.00  0.00     0.157 C 
BRANCH  11  12
HETATM   12  C   UNL     1     -42.662 -51.824  12.629  1.00  0.00     0.196 C 
BRANCH  12  13
HETATM   13  O   UNL     1     -43.668 -52.834  12.492  1.00  0.00    -0.348 OA
BRANCH  13  14
HETATM   14  C   UNL     1     -44.756 -52.661  13.322  1.00  0.00     0.090 A 
HETATM   15  C   UNL     1     -45.587 -51.531  13.269  1.00  0.00     0.038 A 
HETATM   16  C   UNL     1     -46.693 -51.414  14.113  1.00  0.00     0.003 A 
HETATM   17  C   UNL     1     -46.968 -52.411  15.043  1.00  0.00     0.002 A 
HETATM   18  C   UNL     1     -46.126 -53.519  15.141  1.00  0.00     0.026 A 
HETATM   19  C   UNL     1     -45.020 -53.641  14.290  1.00  0.00     0.067 A 
HETATM   20 CL   UNL     1     -44.015 -55.036  14.464  1.00  0.00    -0.081 Cl
ENDBRANCH  13  14
ENDBRANCH  12  13
ENDBRANCH  11  12
ENDBRANCH  10  11
BRANCH   1  21
HETATM   21  C   UNL     1     -39.907 -54.203  13.894  1.00  0.00     0.240 C 
BRANCH  21  22
HETATM   22  O   UNL     1     -38.874 -55.015  13.350  1.00  0.00    -0.393 OA
HETATM   23  H   UNL     1     -39.208 -55.927  13.361  1.00  0.00     0.209 HD
ENDBRANCH  21  22
ENDBRANCH   1  21
TORSDOF 6
ENDMDL
MODEL 6
REMARK VINA RESULT:      -5.6      2.192      3.229
REMARK  6 active torsions:
REMARK  status: ('A' for Active; 'I' for Inactive)
REMARK    1  A    between atoms: O_1  and  C_2 
REMARK    2  A    between atoms: C_2  and  C_3 
REMARK    3  A    between atoms: N_12  and  C_13 
REMARK    4  A    between atoms: C_13  and  C_14 
REMARK    5  A    between atoms: C_14  and  O_15 
REMARK    6  A    between atoms: O_15  and  C_16 
ROOT
HETATM    1  C   UNL     1     -40.727 -53.835  13.973  1.00  0.00     0.108 A 
HETATM    2  N   UNL     1     -41.475 -54.553  14.793  1.00  0.00    -0.342 N 
ATOM      3  HN  UNL     1     -41.163 -55.061  15.620  1.00  0.00     0.167 HD
HETATM    4  C   UNL     1     -42.752 -54.476  14.306  1.00  0.00     0.060 A 
HETATM    5  C   UNL     1     -43.924 -55.070  14.797  1.00  0.00     0.032 A 
HETATM    6  C   UNL     1     -45.126 -54.861  14.111  1.00  0.00     0.002 A 
HETATM    7  C   UNL     1     -45.157 -54.074  12.960  1.00  0.00     0.002 A 
HETATM    8  C   UNL     1     -43.997 -53.466  12.460  1.00  0.00     0.032 A 
HETATM    9  C   UNL     1     -42.804 -53.681  13.167  1.00  0.00     0.062 A 
HETATM   10  N   UNL     1     -41.506 -53.258  12.987  1.00  0.00    -0.331 N 
ENDROOT
BRANCH  10  11
HETATM   11  C   UNL     1     -41.042 -52.393  11.914  1.00  0.00     0.157 C 
BRANCH  11  12
HETATM   12  C   UNL     1     -41.434 -50.944  12.169  1.00  0.00     0.196 C 
BRANCH  12  13
HETATM   13  O   UNL     1     -40.289 -50.085  12.112  1.00  0.00    -0.348 OA
BRANCH  13  14
HETATM   14  C   UNL     1     -39.509 -50.114  13.248  1.00  0.00     0.090 A 
HETATM   15  C   UNL     1     -40.036 -49.990  14.543  1.00  0.00     0.038 A 
HETATM   16  C   UNL     1     -39.207 -50.053  15.665  1.00  0.00     0.003 A 
HETATM   17  C   UNL     1     -37.835 -50.211  15.508  1.00  0.00     0.002 A 
HETATM   18  C   UNL     1     -37.287 -50.289  14.228  1.00  0.00     0.026 A 
HETATM   19  C   UNL     1     -38.118 -50.234  13.101  1.00  0.00     0.067 A 
HETATM   20 CL   UNL     1     -37.378 -50.334  11.543  1.00  0.00    -0.081 Cl
ENDBRANCH  13  14
ENDBRANCH  12  13
ENDBRANCH  11  12
ENDBRANCH  10  11
BRANCH   1  21
HETATM   21  C   UNL     1     -39.253 -53.661  14.114  1.00  0.00     0.240 C 
BRANCH  21  22
HETATM   22  O   UNL     1     -38.607 -54.698  13.386  1.00  0.00    -0.393 OA
HETATM   23  H   UNL     1     -39.308 -55.184  12.921  1.00  0.00     0.209 HD
ENDBRANCH  21  22
ENDBRANCH   1  21
TORSDOF 6
ENDMDL
MODEL 7
REMARK VINA RESULT:      -5.5      2.120      2.637
REMARK  6 active torsions:
REMARK  status: ('A' for Active; 'I' for Inactive)
REMARK    1  A    between atoms: O_1  and  C_2 
REMARK    2  A    between atoms: C_2  and  C_3 
REMARK    3  A    between atoms: N_12  and  C_13 
REMARK    4  A    between atoms: C_13  and  C_14 
REMARK    5  A    between atoms: C_14  and  O_15 
REMARK    6  A    between atoms: O_15  and  C_16 
ROOT
HETATM    1  C   UNL     1     -42.552 -52.781  12.917  1.00  0.00     0.108 A 
HETATM    2  N   UNL     1     -43.418 -53.777  12.975  1.00  0.00    -0.342 N 
ATOM      3  HN  UNL     1     -43.279 -54.730  12.640  1.00  0.00     0.167 HD
HETATM    4  C   UNL     1     -44.540 -53.272  13.576  1.00  0.00     0.060 A 
HETATM    5  C   UNL     1     -45.755 -53.911  13.863  1.00  0.00     0.032 A 
HETATM    6  C   UNL     1     -46.777 -53.175  14.473  1.00  0.00     0.002 A 
HETATM    7  C   UNL     1     -46.590 -51.829  14.788  1.00  0.00     0.002 A 
HETATM    8  C   UNL     1     -45.379 -51.177  14.516  1.00  0.00     0.032 A 
HETATM    9  C   UNL     1     -44.365 -51.934  13.912  1.00  0.00     0.062 A 
HETATM   10  N   UNL     1     -43.079 -51.648  13.510  1.00  0.00    -0.331 N 
ENDROOT
BRANCH  10  11
HETATM   11  C   UNL     1     -42.421 -50.359  13.648  1.00  0.00     0.157 C 
BRANCH  11  12
HETATM   12  C   UNL     1     -42.941 -49.363  12.620  1.00  0.00     0.196 C 
BRANCH  12  13
HETATM   13  O   UNL     1     -42.092 -49.326  11.467  1.00  0.00    -0.348 OA
BRANCH  13  14
HETATM   14  C   UNL     1     -41.593 -48.074  11.176  1.00  0.00     0.090 A 
HETATM   15  C   UNL     1     -40.312 -47.651  11.566  1.00  0.00     0.038 A 
HETATM   16  C   UNL     1     -39.841 -46.382  11.225  1.00  0.00     0.003 A 
HETATM   17  C   UNL     1     -40.653 -45.506  10.513  1.00  0.00     0.002 A 
HETATM   18  C   UNL     1     -41.946 -45.893  10.156  1.00  0.00     0.026 A 
HETATM   19  C   UNL     1     -42.418 -47.168  10.493  1.00  0.00     0.067 A 
HETATM   20 CL   UNL     1     -44.028 -47.585  10.024  1.00  0.00    -0.081 Cl
ENDBRANCH  13  14
ENDBRANCH  12  13
ENDBRANCH  11  12
ENDBRANCH  10  11
BRANCH   1  21
HETATM   21  C   UNL     1     -41.193 -52.881  12.314  1.00  0.00     0.240 C 
BRANCH  21  22
HETATM   22  O   UNL     1     -41.246 -52.344  10.998  1.00  0.00    -0.393 OA
HETATM   23  H   UNL     1     -42.113 -51.916  10.911  1.00  0.00     0.209 HD
ENDBRANCH  21  22
ENDBRANCH   1  21
TORSDOF 6
ENDMDL
MODEL 8
REMARK VINA RESULT:      -5.3      1.189      2.349
REMARK  6 active torsions:
REMARK  status: ('A' for Active; 'I' for Inactive)
REMARK    1  A    between atoms: O_1  and  C_2 
REMARK    2  A    between atoms: C_2  and  C_3 
REMARK    3  A    between atoms: N_12  and  C_13 
REMARK    4  A    between atoms: C_13  and  C_14 
REMARK    5  A    between atoms: C_14  and  O_15 
REMARK    6  A    between atoms: O_15  and  C_16 
ROOT
HETATM    1  C   UNL     1     -42.375 -52.501  15.311  1.00  0.00     0.108 A 
HETATM    2  N   UNL     1     -43.397 -51.748  15.675  1.00  0.00    -0.342 N 
ATOM      3  HN  UNL     1     -43.473 -51.184  16.520  1.00  0.00     0.167 HD
HETATM    4  C   UNL     1     -44.336 -51.879  14.686  1.00  0.00     0.060 A 
HETATM    5  C   UNL     1     -45.610 -51.299  14.592  1.00  0.00     0.032 A 
HETATM    6  C   UNL     1     -46.408 -51.599  13.483  1.00  0.00     0.002 A 
HETATM    7  C   UNL     1     -45.944 -52.459  12.488  1.00  0.00     0.002 A 
HETATM    8  C   UNL     1     -44.670 -53.040  12.561  1.00  0.00     0.032 A 
HETATM    9  C   UNL     1     -43.883 -52.721  13.677  1.00  0.00     0.062 A 
HETATM   10  N   UNL     1     -42.617 -53.084  14.080  1.00  0.00    -0.331 N 
ENDROOT
BRANCH  10  11
HETATM   11  C   UNL     1     -41.722 -53.968  13.351  1.00  0.00     0.157 C 
BRANCH  11  12
HETATM   12  C   UNL     1     -41.004 -53.223  12.234  1.00  0.00     0.196 C 
BRANCH  12  13
HETATM   13  O   UNL     1     -39.945 -52.412  12.755  1.00  0.00    -0.348 OA
BRANCH  13  14
HETATM   14  C   UNL     1     -40.001 -51.092  12.361  1.00  0.00     0.090 A 
HETATM   15  C   UNL     1     -41.194 -50.456  11.981  1.00  0.00     0.038 A 
HETATM   16  C   UNL     1     -41.203 -49.109  11.615  1.00  0.00     0.003 A 
HETATM   17  C   UNL     1     -40.017 -48.384  11.595  1.00  0.00     0.002 A 
HETATM   18  C   UNL     1     -38.815 -49.012  11.925  1.00  0.00     0.026 A 
HETATM   19  C   UNL     1     -38.805 -50.362  12.299  1.00  0.00     0.067 A 
HETATM   20 CL   UNL     1     -37.284 -51.081  12.694  1.00  0.00    -0.081 Cl
ENDBRANCH  13  14
ENDBRANCH  12  13
ENDBRANCH  11  12
ENDBRANCH  10  11
BRANCH   1  21
HETATM   21  C   UNL     1     -41.130 -52.673  16.112  1.00  0.00     0.240 C 
BRANCH  21  22
HETATM   22  O   UNL     1     -40.164 -51.737  15.647  1.00  0.00    -0.393 OA
HETATM   23  H   UNL     1     -40.160 -51.807  14.678  1.00  0.00     0.209 HD
ENDBRANCH  21  22
ENDBRANCH   1  21
TORSDOF 6
ENDMDL
MODEL 9
REMARK VINA RESULT:      -5.3      1.994      3.088
REMARK  6 active torsions:
REMARK  status: ('A' for Active; 'I' for Inactive)
REMARK    1  A    between atoms: O_1  and  C_2 
REMARK    2  A    between atoms: C_2  and  C_3 
REMARK    3  A    between atoms: N_12  and  C_13 
REMARK    4  A    between atoms: C_13  and  C_14 
REMARK    5  A    between atoms: C_14  and  O_15 
REMARK    6  A    between atoms: O_15  and  C_16 
ROOT
HETATM    1  C   UNL     1     -42.565 -50.668  12.487  1.00  0.00     0.108 A 
HETATM    2  N   UNL     1     -43.821 -50.448  12.831  1.00  0.00    -0.342 N 
ATOM      3  HN  UNL     1     -44.296 -49.547  12.874  1.00  0.00     0.167 HD
HETATM    4  C   UNL     1     -44.356 -51.675  13.119  1.00  0.00     0.060 A 
HETATM    5  C   UNL     1     -45.652 -51.997  13.549  1.00  0.00     0.032 A 
HETATM    6  C   UNL     1     -45.966 -53.337  13.802  1.00  0.00     0.002 A 
HETATM    7  C   UNL     1     -45.007 -54.335  13.630  1.00  0.00     0.002 A 
HETATM    8  C   UNL     1     -43.709 -54.032  13.193  1.00  0.00     0.032 A 
HETATM    9  C   UNL     1     -43.417 -52.683  12.937  1.00  0.00     0.062 A 
HETATM   10  N   UNL     1     -42.289 -52.024  12.505  1.00  0.00    -0.331 N 
ENDROOT
BRANCH  10  11
HETATM   11  C   UNL     1     -41.019 -52.651  12.176  1.00  0.00     0.157 C 
BRANCH  11  12
HETATM   12  C   UNL     1     -40.181 -52.885  13.425  1.00  0.00     0.196 C 
BRANCH  12  13
HETATM   13  O   UNL     1     -38.866 -52.340  13.271  1.00  0.00    -0.348 OA
BRANCH  13  14
HETATM   14  C   UNL     1     -38.723 -51.064  13.774  1.00  0.00     0.090 A 
HETATM   15  C   UNL     1     -39.301 -50.649  14.984  1.00  0.00     0.038 A 
HETATM   16  C   UNL     1     -39.105 -49.354  15.465  1.00  0.00     0.003 A 
HETATM   17  C   UNL     1     -38.354 -48.444  14.730  1.00  0.00     0.002 A 
HETATM   18  C   UNL     1     -37.810 -48.825  13.502  1.00  0.00     0.026 A 
HETATM   19  C   UNL     1     -38.000 -50.127  13.021  1.00  0.00     0.067 A 
HETATM   20 CL   UNL     1     -37.303 -50.535  11.493  1.00  0.00    -0.081 Cl
ENDBRANCH  13  14
ENDBRANCH  12  13
ENDBRANCH  11  12
ENDBRANCH  10  11
BRANCH   1  21
HETATM   21  C   UNL     1     -41.596 -49.600  12.112  1.00  0.00     0.240 C 
BRANCH  21  22
HETATM   22  O   UNL     1     -41.975 -49.075  10.845  1.00  0.00    -0.393 OA
HETATM   23  H   UNL     1     -41.587 -48.187  10.789  1.00  0.00     0.209 HD
ENDBRANCH  21  22
ENDBRANCH   1  21
TORSDOF 6
ENDMDL
