MODEL 1
REMARK VINA RESULT:      -5.7      0.000      0.000
REMARK  5 active torsions:
REMARK  status: ('A' for Active; 'I' for Inactive)
REMARK    1  A    between atoms: C_2  and  C_3 
REMARK    2  A    between atoms: C_6  and  C_7 
REMARK    3  A    between atoms: C_7  and  N_8 
REMARK       I    between atoms: N_8  and  C_9 
REMARK    4  A    between atoms: C_9  and  C_11 
REMARK    5  A    between atoms: C_11  and  N_12 
ROOT
HETATM    1  N   UNL     1     -41.375 -51.775  12.880  1.00  0.00    -0.359 N 
HETATM    2  C   UNL     1     -41.128 -50.442  12.633  1.00  0.00     0.237 C 
HETATM    3  O   UNL     1     -41.856 -49.744  11.931  1.00  0.00    -0.272 OA
HETATM    4  H   UNL     1     -40.816 -52.278  13.559  1.00  0.00     0.162 HD
ENDROOT
BRANCH   1   5
HETATM    5  C   UNL     1     -42.550 -52.446  12.358  1.00  0.00     0.127 C 
BRANCH   5   6
HETATM    6  C   UNL     1     -43.413 -53.085  13.464  1.00  0.00     0.003 C 
HETATM    7  C   UNL     1     -44.727 -53.679  12.924  1.00  0.00     0.006 C 
HETATM    8  C   UNL     1     -45.739 -52.611  12.503  1.00  0.00     0.005 C 
HETATM    9  C   UNL     1     -46.026 -51.585  13.616  1.00  0.00    -0.015 C 
HETATM   10  C   UNL     1     -44.705 -50.988  14.129  1.00  0.00     0.005 C 
HETATM   11  C   UNL     1     -43.710 -52.060  14.573  1.00  0.00     0.006 C 
BRANCH   9  12
HETATM   12  C   UNL     1     -46.896 -52.219  14.723  1.00  0.00     0.000 C 
HETATM   13  C   UNL     1     -47.149 -51.307  15.915  1.00  0.00     0.005 C 
ENDBRANCH   9  12
ENDBRANCH   5   6
ENDBRANCH   1   5
BRANCH   2  14
HETATM   14  C   UNL     1     -39.874 -49.895  13.268  1.00  0.00     0.249 C 
BRANCH  14  15
HETATM   15  N   UNL     1     -38.700 -50.375  12.588  1.00  0.00    -0.264 N 
HETATM   16  C   UNL     1     -38.124 -49.920  11.446  1.00  0.00     0.213 A 
HETATM   17  N   UNL     1     -37.110 -50.702  11.156  1.00  0.00    -0.281 N 
HETATM   18  N   UNL     1     -37.074 -51.655  12.146  1.00  0.00    -0.008 NA
ATOM     19  HN  UNL     1     -36.477 -50.619  10.361  1.00  0.00     0.184 HD
HETATM   20  N   UNL     1     -38.049 -51.465  13.025  1.00  0.00    -0.005 NA
ENDBRANCH  14  15
ENDBRANCH   2  14
TORSDOF 5
ENDMDL
MODEL 2
REMARK VINA RESULT:      -5.5      3.879      5.339
REMARK  5 active torsions:
REMARK  status: ('A' for Active; 'I' for Inactive)
REMARK    1  A    between atoms: C_2  and  C_3 
REMARK    2  A    between atoms: C_6  and  C_7 
REMARK    3  A    between atoms: C_7  and  N_8 
REMARK       I    between atoms: N_8  and  C_9 
REMARK    4  A    between atoms: C_9  and  C_11 
REMARK    5  A    between atoms: C_11  and  N_12 
ROOT
HETATM    1  N   UNL     1     -42.437 -49.291  11.474  1.00  0.00    -0.359 N 
HETATM    2  C   UNL     1     -42.066 -47.983  11.250  1.00  0.00     0.237 C 
HETATM    3  O   UNL     1     -40.907 -47.588  11.354  1.00  0.00    -0.272 OA
HETATM    4  H   UNL     1     -43.380 -49.596  11.261  1.00  0.00     0.162 HD
ENDROOT
BRANCH   1   5
HETATM    5  C   UNL     1     -41.467 -50.316  11.810  1.00  0.00     0.127 C 
BRANCH   5   6
HETATM    6  C   UNL     1     -41.676 -50.895  13.224  1.00  0.00     0.003 C 
HETATM    7  C   UNL     1     -40.608 -51.936  13.604  1.00  0.00     0.006 C 
HETATM    8  C   UNL     1     -40.762 -53.257  12.846  1.00  0.00     0.005 C 
HETATM    9  C   UNL     1     -42.174 -53.860  12.973  1.00  0.00    -0.015 C 
HETATM   10  C   UNL     1     -43.226 -52.813  12.571  1.00  0.00     0.005 C 
HETATM   11  C   UNL     1     -43.082 -51.507  13.352  1.00  0.00     0.006 C 
BRANCH   9  12
HETATM   12  C   UNL     1     -42.385 -54.447  14.386  1.00  0.00     0.000 C 
HETATM   13  C   UNL     1     -43.799 -54.945  14.649  1.00  0.00     0.005 C 
ENDBRANCH   9  12
ENDBRANCH   5   6
ENDBRANCH   1   5
BRANCH   2  14
HETATM   14  C   UNL     1     -43.196 -47.051  10.891  1.00  0.00     0.249 C 
BRANCH  14  15
HETATM   15  N   UNL     1     -43.817 -47.445   9.655  1.00  0.00    -0.264 N 
HETATM   16  C   UNL     1     -45.133 -47.631   9.376  1.00  0.00     0.213 A 
HETATM   17  N   UNL     1     -45.236 -48.057   8.138  1.00  0.00    -0.281 N 
HETATM   18  N   UNL     1     -43.950 -48.134   7.658  1.00  0.00    -0.008 NA
ATOM     19  HN  UNL     1     -46.093 -48.283   7.635  1.00  0.00     0.184 HD
HETATM   20  N   UNL     1     -43.073 -47.766   8.583  1.00  0.00    -0.005 NA
ENDBRANCH  14  15
ENDBRANCH   2  14
TORSDOF 5
ENDMDL
MODEL 3
REMARK VINA RESULT:      -5.4      3.005      3.958
REMARK  5 active torsions:
REMARK  status: ('A' for Active; 'I' for Inactive)
REMARK    1  A    between atoms: C_2  and  C_3 
REMARK    2  A    between atoms: C_6  and  C_7 
REMARK    3  A    between atoms: C_7  and  N_8 
REMARK       I    between atoms: N_8  and  C_9 
REMARK    4  A    between atoms: C_9  and  C_11 
REMARK    5  A    between atoms: C_11  and  N_12 
ROOT
HETATM    1  N   UNL     1     -42.855 -53.058  15.631  1.00  0.00    -0.359 N 
HETATM    2  C   UNL     1     -42.450 -54.374  15.693  1.00  0.00     0.237 C 
HETATM    3  O   UNL     1     -43.156 -55.274  16.141  1.00  0.00    -0.272 OA
HETATM    4  H   UNL     1     -42.288 -52.374  15.145  1.00  0.00     0.162 HD
ENDROOT
BRANCH   1   5
HETATM    5  C   UNL     1     -44.178 -52.644  16.058  1.00  0.00     0.127 C 
BRANCH   5   6
HETATM    6  C   UNL     1     -44.717 -51.446  15.250  1.00  0.00     0.003 C 
HETATM    7  C   UNL     1     -46.256 -51.405  15.204  1.00  0.00     0.006 C 
HETATM    8  C   UNL     1     -46.859 -52.501  14.322  1.00  0.00     0.005 C 
HETATM    9  C   UNL     1     -46.275 -52.512  12.896  1.00  0.00    -0.015 C 
HETATM   10  C   UNL     1     -44.740 -52.573  12.962  1.00  0.00     0.005 C 
HETATM   11  C   UNL     1     -44.144 -51.459  13.822  1.00  0.00     0.006 C 
BRANCH   9  12
HETATM   12  C   UNL     1     -46.818 -51.318  12.081  1.00  0.00     0.000 C 
HETATM   13  C   UNL     1     -47.646 -51.716  10.868  1.00  0.00     0.005 C 
ENDBRANCH   9  12
ENDBRANCH   5   6
ENDBRANCH   1   5
BRANCH   2  14
HETATM   14  C   UNL     1     -41.052 -54.636  15.190  1.00  0.00     0.249 C 
BRANCH  14  15
HETATM   15  N   UNL     1     -40.806 -53.933  13.959  1.00  0.00    -0.264 N 
HETATM   16  C   UNL     1     -41.206 -54.243  12.699  1.00  0.00     0.213 A 
HETATM   17  N   UNL     1     -40.694 -53.357  11.875  1.00  0.00    -0.281 N 
HETATM   18  N   UNL     1     -39.964 -52.493  12.656  1.00  0.00    -0.008 NA
ATOM     19  HN  UNL     1     -40.814 -53.318  10.863  1.00  0.00     0.184 HD
HETATM   20  N   UNL     1     -40.022 -52.842  13.934  1.00  0.00    -0.005 NA
ENDBRANCH  14  15
ENDBRANCH   2  14
TORSDOF 5
ENDMDL
MODEL 4
REMARK VINA RESULT:      -5.3      6.083      8.515
REMARK  5 active torsions:
REMARK  status: ('A' for Active; 'I' for Inactive)
REMARK    1  A    between atoms: C_2  and  C_3 
REMARK    2  A    between atoms: C_6  and  C_7 
REMARK    3  A    between atoms: C_7  and  N_8 
REMARK       I    between atoms: N_8  and  C_9 
REMARK    4  A    between atoms: C_9  and  C_11 
REMARK    5  A    between atoms: C_11  and  N_12 
ROOT
HETATM    1  N   UNL     1     -40.879 -47.007  10.412  1.00  0.00    -0.359 N 
HETATM    2  C   UNL     1     -41.861 -47.972  10.354  1.00  0.00     0.237 C 
HETATM    3  O   UNL     1     -42.040 -48.802  11.243  1.00  0.00    -0.272 OA
HETATM    4  H   UNL     1     -40.847 -46.273   9.714  1.00  0.00     0.162 HD
ENDROOT
BRANCH   1   5
HETATM    5  C   UNL     1     -40.003 -46.874  11.560  1.00  0.00     0.127 C 
BRANCH   5   6
HETATM    6  C   UNL     1     -40.646 -46.074  12.710  1.00  0.00     0.003 C 
HETATM    7  C   UNL     1     -41.519 -44.909  12.208  1.00  0.00     0.006 C 
HETATM    8  C   UNL     1     -40.701 -43.755  11.623  1.00  0.00     0.005 C 
HETATM    9  C   UNL     1     -39.617 -43.240  12.587  1.00  0.00    -0.015 C 
HETATM   10  C   UNL     1     -38.742 -44.412  13.063  1.00  0.00     0.005 C 
HETATM   11  C   UNL     1     -39.564 -45.549  13.671  1.00  0.00     0.006 C 
BRANCH   9  12
HETATM   12  C   UNL     1     -40.255 -42.432  13.737  1.00  0.00     0.000 C 
HETATM   13  C   UNL     1     -40.330 -40.934  13.480  1.00  0.00     0.005 C 
ENDBRANCH   9  12
ENDBRANCH   5   6
ENDBRANCH   1   5
BRANCH   2  14
HETATM   14  C   UNL     1     -42.697 -47.959   9.098  1.00  0.00     0.249 C 
BRANCH  14  15
HETATM   15  N   UNL     1     -43.576 -46.820   9.075  1.00  0.00    -0.264 N 
HETATM   16  C   UNL     1     -44.930 -46.783   8.982  1.00  0.00     0.213 A 
HETATM   17  N   UNL     1     -45.305 -45.526   8.928  1.00  0.00    -0.281 N 
HETATM   18  N   UNL     1     -44.149 -44.785   8.987  1.00  0.00    -0.008 NA
ATOM     19  HN  UNL     1     -46.258 -45.171   8.857  1.00  0.00     0.184 HD
HETATM   20  N   UNL     1     -43.084 -45.571   9.071  1.00  0.00    -0.005 NA
ENDBRANCH  14  15
ENDBRANCH   2  14
TORSDOF 5
ENDMDL
MODEL 5
REMARK VINA RESULT:      -5.3      4.181      4.954
REMARK  5 active torsions:
REMARK  status: ('A' for Active; 'I' for Inactive)
REMARK    1  A    between atoms: C_2  and  C_3 
REMARK    2  A    between atoms: C_6  and  C_7 
REMARK    3  A    between atoms: C_7  and  N_8 
REMARK       I    between atoms: N_8  and  C_9 
REMARK    4  A    between atoms: C_9  and  C_11 
REMARK    5  A    between atoms: C_11  and  N_12 
ROOT
HETATM    1  N   UNL     1     -43.303 -49.166  12.003  1.00  0.00    -0.359 N 
HETATM    2  C   UNL     1     -42.503 -48.125  11.585  1.00  0.00     0.237 C 
HETATM    3  O   UNL     1     -41.918 -47.374  12.363  1.00  0.00    -0.272 OA
HETATM    4  H   UNL     1     -43.666 -49.830  11.329  1.00  0.00     0.162 HD
ENDROOT
BRANCH   1   5
HETATM    5  C   UNL     1     -43.480 -49.480  13.408  1.00  0.00     0.127 C 
BRANCH   5   6
HETATM    6  C   UNL     1     -43.572 -50.996  13.673  1.00  0.00     0.003 C 
HETATM    7  C   UNL     1     -44.744 -51.659  12.927  1.00  0.00     0.006 C 
HETATM    8  C   UNL     1     -46.111 -51.292  13.509  1.00  0.00     0.005 C 
HETATM    9  C   UNL     1     -46.210 -51.566  15.022  1.00  0.00    -0.015 C 
HETATM   10  C   UNL     1     -45.044 -50.880  15.753  1.00  0.00     0.005 C 
HETATM   11  C   UNL     1     -43.682 -51.272  15.183  1.00  0.00     0.006 C 
BRANCH   9  12
HETATM   12  C   UNL     1     -46.310 -53.083  15.292  1.00  0.00     0.000 C 
HETATM   13  C   UNL     1     -46.025 -53.480  16.733  1.00  0.00     0.005 C 
ENDBRANCH   9  12
ENDBRANCH   5   6
ENDBRANCH   1   5
BRANCH   2  14
HETATM   14  C   UNL     1     -42.412 -47.949  10.090  1.00  0.00     0.249 C 
BRANCH  14  15
HETATM   15  N   UNL     1     -43.318 -46.929   9.634  1.00  0.00    -0.264 N 
HETATM   16  C   UNL     1     -44.625 -47.037   9.282  1.00  0.00     0.213 A 
HETATM   17  N   UNL     1     -45.037 -45.862   8.863  1.00  0.00    -0.281 N 
HETATM   18  N   UNL     1     -43.951 -45.025   8.961  1.00  0.00    -0.008 NA
ATOM     19  HN  UNL     1     -45.971 -45.620   8.533  1.00  0.00     0.184 HD
HETATM   20  N   UNL     1     -42.891 -45.672   9.427  1.00  0.00    -0.005 NA
ENDBRANCH  14  15
ENDBRANCH   2  14
TORSDOF 5
ENDMDL
MODEL 6
REMARK VINA RESULT:      -5.3      3.734      7.093
REMARK  5 active torsions:
REMARK  status: ('A' for Active; 'I' for Inactive)
REMARK    1  A    between atoms: C_2  and  C_3 
REMARK    2  A    between atoms: C_6  and  C_7 
REMARK    3  A    between atoms: C_7  and  N_8 
REMARK       I    between atoms: N_8  and  C_9 
REMARK    4  A    between atoms: C_9  and  C_11 
REMARK    5  A    between atoms: C_11  and  N_12 
ROOT
HETATM    1  N   UNL     1     -42.969 -53.877  13.897  1.00  0.00    -0.359 N 
HETATM    2  C   UNL     1     -43.875 -54.799  14.375  1.00  0.00     0.237 C 
HETATM    3  O   UNL     1     -43.632 -55.555  15.312  1.00  0.00    -0.272 OA
HETATM    4  H   UNL     1     -43.255 -53.195  13.204  1.00  0.00     0.162 HD
ENDROOT
BRANCH   1   5
HETATM    5  C   UNL     1     -41.662 -53.703  14.502  1.00  0.00     0.127 C 
BRANCH   5   6
HETATM    6  C   UNL     1     -40.522 -53.682  13.464  1.00  0.00     0.003 C 
HETATM    7  C   UNL     1     -39.129 -53.591  14.112  1.00  0.00     0.006 C 
HETATM    8  C   UNL     1     -38.840 -52.217  14.723  1.00  0.00     0.005 C 
HETATM    9  C   UNL     1     -39.048 -51.062  13.725  1.00  0.00    -0.015 C 
HETATM   10  C   UNL     1     -40.451 -51.157  13.103  1.00  0.00     0.005 C 
HETATM   11  C   UNL     1     -40.721 -52.522  12.471  1.00  0.00     0.006 C 
BRANCH   9  12
HETATM   12  C   UNL     1     -37.905 -51.032  12.688  1.00  0.00     0.000 C 
HETATM   13  C   UNL     1     -37.924 -49.815  11.774  1.00  0.00     0.005 C 
ENDBRANCH   9  12
ENDBRANCH   5   6
ENDBRANCH   1   5
BRANCH   2  14
HETATM   14  C   UNL     1     -45.194 -54.836  13.644  1.00  0.00     0.249 C 
BRANCH  14  15
HETATM   15  N   UNL     1     -45.734 -53.512  13.487  1.00  0.00    -0.264 N 
HETATM   16  C   UNL     1     -46.347 -52.721  14.404  1.00  0.00     0.213 A 
HETATM   17  N   UNL     1     -46.740 -51.621  13.803  1.00  0.00    -0.281 N 
HETATM   18  N   UNL     1     -46.359 -51.754  12.489  1.00  0.00    -0.008 NA
ATOM     19  HN  UNL     1     -47.228 -50.832  14.224  1.00  0.00     0.184 HD
HETATM   20  N   UNL     1     -45.747 -52.912  12.285  1.00  0.00    -0.005 NA
ENDBRANCH  14  15
ENDBRANCH   2  14
TORSDOF 5
ENDMDL
MODEL 7
REMARK VINA RESULT:      -5.2      3.700      7.181
REMARK  5 active torsions:
REMARK  status: ('A' for Active; 'I' for Inactive)
REMARK    1  A    between atoms: C_2  and  C_3 
REMARK    2  A    between atoms: C_6  and  C_7 
REMARK    3  A    between atoms: C_7  and  N_8 
REMARK       I    between atoms: N_8  and  C_9 
REMARK    4  A    between atoms: C_9  and  C_11 
REMARK    5  A    between atoms: C_11  and  N_12 
ROOT
HETATM    1  N   UNL     1     -44.041 -50.547  12.651  1.00  0.00    -0.359 N 
HETATM    2  C   UNL     1     -44.862 -50.869  13.711  1.00  0.00     0.237 C 
HETATM    3  O   UNL     1     -44.567 -50.640  14.881  1.00  0.00    -0.272 OA
HETATM    4  H   UNL     1     -44.377 -50.644  11.700  1.00  0.00     0.162 HD
ENDROOT
BRANCH   1   5
HETATM    5  C   UNL     1     -42.774 -49.867  12.843  1.00  0.00     0.127 C 
BRANCH   5   6
HETATM    6  C   UNL     1     -42.903 -48.333  12.767  1.00  0.00     0.003 C 
HETATM    7  C   UNL     1     -43.192 -47.831  11.340  1.00  0.00     0.006 C 
HETATM    8  C   UNL     1     -41.987 -47.956  10.404  1.00  0.00     0.005 C 
HETATM    9  C   UNL     1     -40.720 -47.284  10.967  1.00  0.00    -0.015 C 
HETATM   10  C   UNL     1     -40.435 -47.812  12.382  1.00  0.00     0.005 C 
HETATM   11  C   UNL     1     -41.634 -47.659  13.318  1.00  0.00     0.006 C 
BRANCH   9  12
HETATM   12  C   UNL     1     -40.842 -45.747  10.886  1.00  0.00     0.000 C 
HETATM   13  C   UNL     1     -39.656 -45.062  10.223  1.00  0.00     0.005 C 
ENDBRANCH   9  12
ENDBRANCH   5   6
ENDBRANCH   1   5
BRANCH   2  14
HETATM   14  C   UNL     1     -46.152 -51.554  13.334  1.00  0.00     0.249 C 
BRANCH  14  15
HETATM   15  N   UNL     1     -46.044 -52.980  13.493  1.00  0.00    -0.264 N 
HETATM   16  C   UNL     1     -46.627 -53.787  14.417  1.00  0.00     0.213 A 
HETATM   17  N   UNL     1     -46.192 -55.011  14.227  1.00  0.00    -0.281 N 
HETATM   18  N   UNL     1     -45.323 -54.942  13.164  1.00  0.00    -0.008 NA
ATOM     19  HN  UNL     1     -46.447 -55.843  14.758  1.00  0.00     0.184 HD
HETATM   20  N   UNL     1     -45.222 -53.699  12.712  1.00  0.00    -0.005 NA
ENDBRANCH  14  15
ENDBRANCH   2  14
TORSDOF 5
ENDMDL
MODEL 8
REMARK VINA RESULT:      -5.2      2.983      3.488
REMARK  5 active torsions:
REMARK  status: ('A' for Active; 'I' for Inactive)
REMARK    1  A    between atoms: C_2  and  C_3 
REMARK    2  A    between atoms: C_6  and  C_7 
REMARK    3  A    between atoms: C_7  and  N_8 
REMARK       I    between atoms: N_8  and  C_9 
REMARK    4  A    between atoms: C_9  and  C_11 
REMARK    5  A    between atoms: C_11  and  N_12 
ROOT
HETATM    1  N   UNL     1     -41.523 -53.598  14.048  1.00  0.00    -0.359 N 
HETATM    2  C   UNL     1     -40.384 -53.159  13.409  1.00  0.00     0.237 C 
HETATM    3  O   UNL     1     -40.315 -53.002  12.192  1.00  0.00    -0.272 OA
HETATM    4  H   UNL     1     -41.570 -53.597  15.061  1.00  0.00     0.162 HD
ENDROOT
BRANCH   1   5
HETATM    5  C   UNL     1     -42.751 -53.869  13.325  1.00  0.00     0.127 C 
BRANCH   5   6
HETATM    6  C   UNL     1     -43.936 -54.181  14.260  1.00  0.00     0.003 C 
HETATM    7  C   UNL     1     -45.274 -54.291  13.506  1.00  0.00     0.006 C 
HETATM    8  C   UNL     1     -45.793 -52.942  13.004  1.00  0.00     0.005 C 
HETATM    9  C   UNL     1     -45.887 -51.884  14.120  1.00  0.00    -0.015 C 
HETATM   10  C   UNL     1     -44.538 -51.773  14.848  1.00  0.00     0.005 C 
HETATM   11  C   UNL     1     -44.039 -53.120  15.370  1.00  0.00     0.006 C 
BRANCH   9  12
HETATM   12  C   UNL     1     -47.077 -52.188  15.055  1.00  0.00     0.000 C 
HETATM   13  C   UNL     1     -47.179 -51.261  16.257  1.00  0.00     0.005 C 
ENDBRANCH   9  12
ENDBRANCH   5   6
ENDBRANCH   1   5
BRANCH   2  14
HETATM   14  C   UNL     1     -39.202 -52.905  14.311  1.00  0.00     0.249 C 
BRANCH  14  15
HETATM   15  N   UNL     1     -38.980 -54.017  15.196  1.00  0.00    -0.264 N 
HETATM   16  C   UNL     1     -38.727 -54.015  16.530  1.00  0.00     0.213 A 
HETATM   17  N   UNL     1     -38.523 -55.255  16.912  1.00  0.00    -0.281 N 
HETATM   18  N   UNL     1     -38.653 -56.024  15.781  1.00  0.00    -0.008 NA
ATOM     19  HN  UNL     1     -38.311 -55.580  17.855  1.00  0.00     0.184 HD
HETATM   20  N   UNL     1     -38.927 -55.273  14.723  1.00  0.00    -0.005 NA
ENDBRANCH  14  15
ENDBRANCH   2  14
TORSDOF 5
ENDMDL
MODEL 9
REMARK VINA RESULT:      -5.2      2.368      3.136
REMARK  5 active torsions:
REMARK  status: ('A' for Active; 'I' for Inactive)
REMARK    1  A    between atoms: C_2  and  C_3 
REMARK    2  A    between atoms: C_6  and  C_7 
REMARK    3  A    between atoms: C_7  and  N_8 
REMARK       I    between atoms: N_8  and  C_9 
REMARK    4  A    between atoms: C_9  and  C_11 
REMARK    5  A    between atoms: C_11  and  N_12 
ROOT
HETATM    1  N   UNL     1     -42.031 -51.399  11.833  1.00  0.00    -0.359 N 
HETATM    2  C   UNL     1     -40.689 -51.101  11.922  1.00  0.00     0.237 C 
HETATM    3  O   UNL     1     -39.860 -51.871  12.401  1.00  0.00    -0.272 OA
HETATM    4  H   UNL     1     -42.656 -50.785  11.323  1.00  0.00     0.162 HD
ENDROOT
BRANCH   1   5
HETATM    5  C   UNL     1     -42.561 -52.678  12.266  1.00  0.00     0.127 C 
BRANCH   5   6
HETATM    6  C   UNL     1     -43.078 -52.649  13.718  1.00  0.00     0.003 C 
HETATM    7  C   UNL     1     -43.849 -53.926  14.100  1.00  0.00     0.006 C 
HETATM    8  C   UNL     1     -45.219 -54.025  13.425  1.00  0.00     0.005 C 
HETATM    9  C   UNL     1     -46.092 -52.777  13.656  1.00  0.00    -0.015 C 
HETATM   10  C   UNL     1     -45.315 -51.514  13.250  1.00  0.00     0.005 C 
HETATM   11  C   UNL     1     -43.960 -51.409  13.950  1.00  0.00     0.006 C 
BRANCH   9  12
HETATM   12  C   UNL     1     -46.618 -52.747  15.107  1.00  0.00     0.000 C 
HETATM   13  C   UNL     1     -47.203 -51.407  15.531  1.00  0.00     0.005 C 
ENDBRANCH   9  12
ENDBRANCH   5   6
ENDBRANCH   1   5
BRANCH   2  14
HETATM   14  C   UNL     1     -40.302 -49.735  11.409  1.00  0.00     0.249 C 
BRANCH  14  15
HETATM   15  N   UNL     1     -41.438 -48.853  11.384  1.00  0.00    -0.264 N 
HETATM   16  C   UNL     1     -41.945 -48.135  10.350  1.00  0.00     0.213 A 
HETATM   17  N   UNL     1     -42.947 -47.415  10.800  1.00  0.00    -0.281 N 
HETATM   18  N   UNL     1     -43.045 -47.702  12.140  1.00  0.00    -0.008 NA
ATOM     19  HN  UNL     1     -43.532 -46.774  10.265  1.00  0.00     0.184 HD
HETATM   20  N   UNL     1     -42.121 -48.579  12.508  1.00  0.00    -0.005 NA
ENDBRANCH  14  15
ENDBRANCH   2  14
TORSDOF 5
ENDMDL
