MODEL 1
REMARK VINA RESULT:      -5.7      0.000      0.000
REMARK  4 active torsions:
REMARK  status: ('A' for Active; 'I' for Inactive)
REMARK    1  A    between atoms: C_2  and  C_3 
REMARK    2  A    between atoms: C_3  and  N_5 
REMARK       I    between atoms: N_5  and  C_6 
REMARK    3  A    between atoms: C_6  and  C_8 
REMARK    4  A    between atoms: C_8  and  N_9 
ROOT
HETATM    1  N   UNL     1     -42.064 -54.006  13.520  1.00  0.00    -0.246 N 
HETATM    2  N   UNL     1     -42.906 -54.595  14.476  1.00  0.00    -0.261 N 
HETATM    3  C   UNL     1     -42.439 -55.074  15.669  1.00  0.00     0.260 A 
HETATM    4  O   UNL     1     -43.176 -55.509  16.545  1.00  0.00    -0.267 OA
HETATM    5  C   UNL     1     -40.976 -55.070  15.846  1.00  0.00     0.081 A 
HETATM    6  C   UNL     1     -40.167 -54.554  14.917  1.00  0.00     0.081 A 
HETATM    7  C   UNL     1     -40.699 -53.929  13.689  1.00  0.00     0.262 A 
HETATM    8  O   UNL     1     -39.935 -53.380  12.902  1.00  0.00    -0.267 OA
HETATM    9  H   UNL     1     -43.910 -54.501  14.384  1.00  0.00     0.190 HD
ENDROOT
BRANCH   1  10
HETATM   10  C   UNL     1     -42.725 -53.217  12.494  1.00  0.00     0.255 C 
BRANCH  10  11
HETATM   11  C   UNL     1     -44.245 -53.393  12.573  1.00  0.00     0.237 C 
HETATM   12  N   UNL     1     -44.946 -52.209  12.730  1.00  0.00    -0.355 N 
HETATM   13  H   UNL     1     -44.441 -51.393  13.054  1.00  0.00     0.162 HD
HETATM   14  O   UNL     1     -44.802 -54.479  12.431  1.00  0.00    -0.272 OA
BRANCH  12  15
HETATM   15  C   UNL     1     -46.403 -52.191  12.849  1.00  0.00     0.080 C 
HETATM   16  C   UNL     1     -47.001 -51.636  11.560  1.00  0.00     0.032 C 
BRANCH  15  17
HETATM   17  C   UNL     1     -46.826 -51.386  14.093  1.00  0.00     0.020 C 
HETATM   18  C   UNL     1     -46.885 -52.222  15.363  1.00  0.00     0.007 C 
ENDBRANCH  15  17
ENDBRANCH  12  15
ENDBRANCH  10  11
ENDBRANCH   1  10
TORSDOF 4
ENDMDL
MODEL 2
REMARK VINA RESULT:      -5.3      2.979      5.212
REMARK  4 active torsions:
REMARK  status: ('A' for Active; 'I' for Inactive)
REMARK    1  A    between atoms: C_2  and  C_3 
REMARK    2  A    between atoms: C_3  and  N_5 
REMARK       I    between atoms: N_5  and  C_6 
REMARK    3  A    between atoms: C_6  and  C_8 
REMARK    4  A    between atoms: C_8  and  N_9 
ROOT
HETATM    1  N   UNL     1     -42.113 -54.021  13.125  1.00  0.00    -0.246 N 
HETATM    2  N   UNL     1     -43.236 -53.659  12.365  1.00  0.00    -0.261 N 
HETATM    3  C   UNL     1     -44.514 -53.791  12.835  1.00  0.00     0.260 A 
HETATM    4  O   UNL     1     -45.494 -53.397  12.214  1.00  0.00    -0.267 OA
HETATM    5  C   UNL     1     -44.664 -54.470  14.134  1.00  0.00     0.081 A 
HETATM    6  C   UNL     1     -43.600 -54.858  14.840  1.00  0.00     0.081 A 
HETATM    7  C   UNL     1     -42.224 -54.596  14.372  1.00  0.00     0.262 A 
HETATM    8  O   UNL     1     -41.269 -54.881  15.089  1.00  0.00    -0.267 OA
HETATM    9  H   UNL     1     -43.114 -53.109  11.524  1.00  0.00     0.190 HD
ENDROOT
BRANCH   1  10
HETATM   10  C   UNL     1     -40.841 -53.487  12.670  1.00  0.00     0.255 C 
BRANCH  10  11
HETATM   11  C   UNL     1     -40.794 -51.967  12.857  1.00  0.00     0.237 C 
HETATM   12  N   UNL     1     -40.006 -51.305  11.930  1.00  0.00    -0.355 N 
HETATM   13  H   UNL     1     -39.326 -51.844  11.408  1.00  0.00     0.162 HD
HETATM   14  O   UNL     1     -41.459 -51.376  13.704  1.00  0.00    -0.272 OA
BRANCH  12  15
HETATM   15  C   UNL     1     -39.826 -49.855  11.974  1.00  0.00     0.080 C 
HETATM   16  C   UNL     1     -40.801 -49.204  10.998  1.00  0.00     0.032 C 
BRANCH  15  17
HETATM   17  C   UNL     1     -38.360 -49.490  11.678  1.00  0.00     0.020 C 
HETATM   18  C   UNL     1     -37.387 -50.632  11.939  1.00  0.00     0.007 C 
ENDBRANCH  15  17
ENDBRANCH  12  15
ENDBRANCH  10  11
ENDBRANCH   1  10
TORSDOF 4
ENDMDL
MODEL 3
REMARK VINA RESULT:      -5.2      3.821      4.910
REMARK  4 active torsions:
REMARK  status: ('A' for Active; 'I' for Inactive)
REMARK    1  A    between atoms: C_2  and  C_3 
REMARK    2  A    between atoms: C_3  and  N_5 
REMARK       I    between atoms: N_5  and  C_6 
REMARK    3  A    between atoms: C_6  and  C_8 
REMARK    4  A    between atoms: C_8  and  N_9 
ROOT
HETATM    1  N   UNL     1     -41.758 -52.717  12.314  1.00  0.00    -0.246 N 
HETATM    2  N   UNL     1     -43.084 -52.666  11.855  1.00  0.00    -0.261 N 
HETATM    3  C   UNL     1     -44.102 -53.336  12.477  1.00  0.00     0.260 A 
HETATM    4  O   UNL     1     -45.273 -53.227  12.137  1.00  0.00    -0.267 OA
HETATM    5  C   UNL     1     -43.714 -54.236  13.577  1.00  0.00     0.081 A 
HETATM    6  C   UNL     1     -42.446 -54.323  13.986  1.00  0.00     0.081 A 
HETATM    7  C   UNL     1     -41.380 -53.498  13.383  1.00  0.00     0.262 A 
HETATM    8  O   UNL     1     -40.243 -53.534  13.845  1.00  0.00    -0.267 OA
HETATM    9  H   UNL     1     -43.348 -51.973  11.165  1.00  0.00     0.190 HD
ENDROOT
BRANCH   1  10
HETATM   10  C   UNL     1     -40.871 -51.684  11.805  1.00  0.00     0.255 C 
BRANCH  10  11
HETATM   11  C   UNL     1     -41.490 -50.296  12.000  1.00  0.00     0.237 C 
HETATM   12  N   UNL     1     -41.251 -49.416  10.957  1.00  0.00    -0.355 N 
HETATM   13  H   UNL     1     -40.496 -49.627  10.317  1.00  0.00     0.162 HD
HETATM   14  O   UNL     1     -42.203 -50.009  12.959  1.00  0.00    -0.272 OA
BRANCH  12  15
HETATM   15  C   UNL     1     -41.745 -48.041  10.986  1.00  0.00     0.080 C 
HETATM   16  C   UNL     1     -42.622 -47.801   9.761  1.00  0.00     0.032 C 
BRANCH  15  17
HETATM   17  C   UNL     1     -40.567 -47.053  11.074  1.00  0.00     0.020 C 
HETATM   18  C   UNL     1     -40.063 -46.836  12.494  1.00  0.00     0.007 C 
ENDBRANCH  15  17
ENDBRANCH  12  15
ENDBRANCH  10  11
ENDBRANCH   1  10
TORSDOF 4
ENDMDL
MODEL 4
REMARK VINA RESULT:      -5.0      1.135      2.619
REMARK  4 active torsions:
REMARK  status: ('A' for Active; 'I' for Inactive)
REMARK    1  A    between atoms: C_2  and  C_3 
REMARK    2  A    between atoms: C_3  and  N_5 
REMARK       I    between atoms: N_5  and  C_6 
REMARK    3  A    between atoms: C_6  and  C_8 
REMARK    4  A    between atoms: C_8  and  N_9 
ROOT
HETATM    1  N   UNL     1     -42.643 -54.927  14.921  1.00  0.00    -0.246 N 
HETATM    2  N   UNL     1     -41.845 -54.262  13.977  1.00  0.00    -0.261 N 
HETATM    3  C   UNL     1     -40.482 -54.210  14.073  1.00  0.00     0.260 A 
HETATM    4  O   UNL     1     -39.773 -53.708  13.209  1.00  0.00    -0.267 OA
HETATM    5  C   UNL     1     -39.893 -54.772  15.302  1.00  0.00     0.081 A 
HETATM    6  C   UNL     1     -40.653 -55.364  16.226  1.00  0.00     0.081 A 
HETATM    7  C   UNL     1     -42.110 -55.519  16.046  1.00  0.00     0.262 A 
HETATM    8  O   UNL     1     -42.765 -56.152  16.869  1.00  0.00    -0.267 OA
HETATM    9  H   UNL     1     -42.252 -53.970  13.097  1.00  0.00     0.190 HD
ENDROOT
BRANCH   1  10
HETATM   10  C   UNL     1     -44.003 -55.223  14.506  1.00  0.00     0.255 C 
BRANCH  10  11
HETATM   11  C   UNL     1     -44.540 -54.119  13.589  1.00  0.00     0.237 C 
HETATM   12  N   UNL     1     -44.974 -52.987  14.258  1.00  0.00    -0.355 N 
HETATM   13  H   UNL     1     -45.170 -53.062  15.248  1.00  0.00     0.162 HD
HETATM   14  O   UNL     1     -44.518 -54.196  12.363  1.00  0.00    -0.272 OA
BRANCH  12  15
HETATM   15  C   UNL     1     -45.540 -51.844  13.544  1.00  0.00     0.080 C 
HETATM   16  C   UNL     1     -44.460 -50.782  13.367  1.00  0.00     0.032 C 
BRANCH  15  17
HETATM   17  C   UNL     1     -46.779 -51.311  14.288  1.00  0.00     0.020 C 
HETATM   18  C   UNL     1     -47.157 -52.140  15.507  1.00  0.00     0.007 C 
ENDBRANCH  15  17
ENDBRANCH  12  15
ENDBRANCH  10  11
ENDBRANCH   1  10
TORSDOF 4
ENDMDL
MODEL 5
REMARK VINA RESULT:      -5.0      3.780      4.996
REMARK  4 active torsions:
REMARK  status: ('A' for Active; 'I' for Inactive)
REMARK    1  A    between atoms: C_2  and  C_3 
REMARK    2  A    between atoms: C_3  and  N_5 
REMARK       I    between atoms: N_5  and  C_6 
REMARK    3  A    between atoms: C_6  and  C_8 
REMARK    4  A    between atoms: C_8  and  N_9 
ROOT
HETATM    1  N   UNL     1     -39.860 -49.809  12.159  1.00  0.00    -0.246 N 
HETATM    2  N   UNL     1     -38.889 -50.769  11.832  1.00  0.00    -0.261 N 
HETATM    3  C   UNL     1     -37.680 -50.838  12.468  1.00  0.00     0.260 A 
HETATM    4  O   UNL     1     -36.864 -51.725  12.251  1.00  0.00    -0.267 OA
HETATM    5  C   UNL     1     -37.385 -49.757  13.425  1.00  0.00     0.081 A 
HETATM    6  C   UNL     1     -38.287 -48.813  13.705  1.00  0.00     0.081 A 
HETATM    7  C   UNL     1     -39.634 -48.828  13.099  1.00  0.00     0.262 A 
HETATM    8  O   UNL     1     -40.471 -48.001  13.449  1.00  0.00    -0.267 OA
HETATM    9  H   UNL     1     -39.143 -51.557  11.248  1.00  0.00     0.190 HD
ENDROOT
BRANCH   1  10
HETATM   10  C   UNL     1     -41.206 -50.082  11.686  1.00  0.00     0.255 C 
BRANCH  10  11
HETATM   11  C   UNL     1     -41.883 -51.141  12.562  1.00  0.00     0.237 C 
HETATM   12  N   UNL     1     -43.267 -51.130  12.499  1.00  0.00    -0.355 N 
HETATM   13  H   UNL     1     -43.723 -50.302  12.136  1.00  0.00     0.162 HD
HETATM   14  O   UNL     1     -41.255 -51.978  13.206  1.00  0.00    -0.272 OA
BRANCH  12  15
HETATM   15  C   UNL     1     -44.077 -52.055  13.289  1.00  0.00     0.080 C 
HETATM   16  C   UNL     1     -44.365 -53.301  12.457  1.00  0.00     0.032 C 
BRANCH  15  17
HETATM   17  C   UNL     1     -45.361 -51.357  13.774  1.00  0.00     0.020 C 
HETATM   18  C   UNL     1     -46.573 -51.640  12.896  1.00  0.00     0.007 C 
ENDBRANCH  15  17
ENDBRANCH  12  15
ENDBRANCH  10  11
ENDBRANCH   1  10
TORSDOF 4
ENDMDL
MODEL 6
REMARK VINA RESULT:      -4.9      5.585      8.086
REMARK  4 active torsions:
REMARK  status: ('A' for Active; 'I' for Inactive)
REMARK    1  A    between atoms: C_2  and  C_3 
REMARK    2  A    between atoms: C_3  and  N_5 
REMARK       I    between atoms: N_5  and  C_6 
REMARK    3  A    between atoms: C_6  and  C_8 
REMARK    4  A    between atoms: C_8  and  N_9 
ROOT
HETATM    1  N   UNL     1     -42.012 -47.573  10.371  1.00  0.00    -0.246 N 
HETATM    2  N   UNL     1     -42.545 -48.243   9.259  1.00  0.00    -0.261 N 
HETATM    3  C   UNL     1     -43.346 -47.620   8.341  1.00  0.00     0.260 A 
HETATM    4  O   UNL     1     -43.743 -48.173   7.322  1.00  0.00    -0.267 OA
HETATM    5  C   UNL     1     -43.742 -46.236   8.653  1.00  0.00     0.081 A 
HETATM    6  C   UNL     1     -43.275 -45.609   9.736  1.00  0.00     0.081 A 
HETATM    7  C   UNL     1     -42.313 -46.258  10.650  1.00  0.00     0.262 A 
HETATM    8  O   UNL     1     -41.831 -45.621  11.582  1.00  0.00    -0.267 OA
HETATM    9  H   UNL     1     -42.188 -49.156   9.007  1.00  0.00     0.190 HD
ENDROOT
BRANCH   1  10
HETATM   10  C   UNL     1     -40.901 -48.232  11.036  1.00  0.00     0.255 C 
BRANCH  10  11
HETATM   11  C   UNL     1     -41.398 -49.415  11.873  1.00  0.00     0.237 C 
HETATM   12  N   UNL     1     -40.397 -50.277  12.288  1.00  0.00    -0.355 N 
HETATM   13  H   UNL     1     -39.506 -50.243  11.808  1.00  0.00     0.162 HD
HETATM   14  O   UNL     1     -42.571 -49.549  12.214  1.00  0.00    -0.272 OA
BRANCH  12  15
HETATM   15  C   UNL     1     -40.692 -51.473  13.074  1.00  0.00     0.080 C 
HETATM   16  C   UNL     1     -39.514 -51.766  13.998  1.00  0.00     0.032 C 
BRANCH  15  17
HETATM   17  C   UNL     1     -41.023 -52.655  12.144  1.00  0.00     0.020 C 
HETATM   18  C   UNL     1     -40.965 -54.008  12.839  1.00  0.00     0.007 C 
ENDBRANCH  15  17
ENDBRANCH  12  15
ENDBRANCH  10  11
ENDBRANCH   1  10
TORSDOF 4
ENDMDL
MODEL 7
REMARK VINA RESULT:      -4.7      2.828      5.235
REMARK  4 active torsions:
REMARK  status: ('A' for Active; 'I' for Inactive)
REMARK    1  A    between atoms: C_2  and  C_3 
REMARK    2  A    between atoms: C_3  and  N_5 
REMARK       I    between atoms: N_5  and  C_6 
REMARK    3  A    between atoms: C_6  and  C_8 
REMARK    4  A    between atoms: C_8  and  N_9 
ROOT
HETATM    1  N   UNL     1     -43.026 -52.930  13.339  1.00  0.00    -0.246 N 
HETATM    2  N   UNL     1     -42.130 -53.385  14.319  1.00  0.00    -0.261 N 
HETATM    3  C   UNL     1     -42.345 -54.531  15.035  1.00  0.00     0.260 A 
HETATM    4  O   UNL     1     -41.528 -54.982  15.828  1.00  0.00    -0.267 OA
HETATM    5  C   UNL     1     -43.644 -55.196  14.827  1.00  0.00     0.081 A 
HETATM    6  C   UNL     1     -44.520 -54.739  13.930  1.00  0.00     0.081 A 
HETATM    7  C   UNL     1     -44.217 -53.571  13.078  1.00  0.00     0.262 A 
HETATM    8  O   UNL     1     -45.005 -53.235  12.198  1.00  0.00    -0.267 OA
HETATM    9  H   UNL     1     -41.206 -52.976  14.379  1.00  0.00     0.190 HD
ENDROOT
BRANCH   1  10
HETATM   10  C   UNL     1     -42.504 -51.938  12.414  1.00  0.00     0.255 C 
BRANCH  10  11
HETATM   11  C   UNL     1     -40.984 -52.075  12.277  1.00  0.00     0.237 C 
HETATM   12  N   UNL     1     -40.284 -50.909  12.539  1.00  0.00    -0.355 N 
HETATM   13  H   UNL     1     -40.789 -50.032  12.518  1.00  0.00     0.162 HD
HETATM   14  O   UNL     1     -40.427 -53.142  12.033  1.00  0.00    -0.272 OA
BRANCH  12  15
HETATM   15  C   UNL     1     -38.827 -50.850  12.431  1.00  0.00     0.080 C 
HETATM   16  C   UNL     1     -38.218 -51.027  13.818  1.00  0.00     0.032 C 
BRANCH  15  17
HETATM   17  C   UNL     1     -38.396 -49.533  11.759  1.00  0.00     0.020 C 
HETATM   18  C   UNL     1     -39.413 -48.412  11.914  1.00  0.00     0.007 C 
ENDBRANCH  15  17
ENDBRANCH  12  15
ENDBRANCH  10  11
ENDBRANCH   1  10
TORSDOF 4
ENDMDL
MODEL 8
REMARK VINA RESULT:      -4.6      4.344      6.033
REMARK  4 active torsions:
REMARK  status: ('A' for Active; 'I' for Inactive)
REMARK    1  A    between atoms: C_2  and  C_3 
REMARK    2  A    between atoms: C_3  and  N_5 
REMARK       I    between atoms: N_5  and  C_6 
REMARK    3  A    between atoms: C_6  and  C_8 
REMARK    4  A    between atoms: C_8  and  N_9 
ROOT
HETATM    1  N   UNL     1     -44.008 -51.144  13.548  1.00  0.00    -0.246 N 
HETATM    2  N   UNL     1     -44.931 -51.443  12.534  1.00  0.00    -0.261 N 
HETATM    3  C   UNL     1     -46.274 -51.549  12.771  1.00  0.00     0.260 A 
HETATM    4  O   UNL     1     -47.094 -51.722  11.878  1.00  0.00    -0.267 OA
HETATM    5  C   UNL     1     -46.695 -51.474  14.181  1.00  0.00     0.081 A 
HETATM    6  C   UNL     1     -45.814 -51.236  15.155  1.00  0.00     0.081 A 
HETATM    7  C   UNL     1     -44.385 -51.002  14.865  1.00  0.00     0.262 A 
HETATM    8  O   UNL     1     -43.619 -50.693  15.774  1.00  0.00    -0.267 OA
HETATM    9  H   UNL     1     -44.641 -51.395  11.564  1.00  0.00     0.190 HD
ENDROOT
BRANCH   1  10
HETATM   10  C   UNL     1     -42.699 -50.696  13.103  1.00  0.00     0.255 C 
BRANCH  10  11
HETATM   11  C   UNL     1     -42.749 -49.227  12.673  1.00  0.00     0.237 C 
HETATM   12  N   UNL     1     -42.483 -49.019  11.329  1.00  0.00    -0.355 N 
HETATM   13  H   UNL     1     -42.020 -49.757  10.814  1.00  0.00     0.162 HD
HETATM   14  O   UNL     1     -43.072 -48.317  13.433  1.00  0.00    -0.272 OA
BRANCH  12  15
HETATM   15  C   UNL     1     -42.462 -47.677  10.751  1.00  0.00     0.080 C 
HETATM   16  C   UNL     1     -43.021 -47.738   9.333  1.00  0.00     0.032 C 
BRANCH  15  17
HETATM   17  C   UNL     1     -41.037 -47.097  10.801  1.00  0.00     0.020 C 
HETATM   18  C   UNL     1     -40.998 -45.615  11.149  1.00  0.00     0.007 C 
ENDBRANCH  15  17
ENDBRANCH  12  15
ENDBRANCH  10  11
ENDBRANCH   1  10
TORSDOF 4
ENDMDL
MODEL 9
REMARK VINA RESULT:      -4.6      2.867      5.490
REMARK  4 active torsions:
REMARK  status: ('A' for Active; 'I' for Inactive)
REMARK    1  A    between atoms: C_2  and  C_3 
REMARK    2  A    between atoms: C_3  and  N_5 
REMARK       I    between atoms: N_5  and  C_6 
REMARK    3  A    between atoms: C_6  and  C_8 
REMARK    4  A    between atoms: C_8  and  N_9 
ROOT
HETATM    1  N   UNL     1     -44.353 -52.736  13.220  1.00  0.00    -0.246 N 
HETATM    2  N   UNL     1     -45.272 -52.503  12.185  1.00  0.00    -0.261 N 
HETATM    3  C   UNL     1     -46.452 -51.840  12.386  1.00  0.00     0.260 A 
HETATM    4  O   UNL     1     -47.218 -51.556  11.473  1.00  0.00    -0.267 OA
HETATM    5  C   UNL     1     -46.781 -51.504  13.782  1.00  0.00     0.081 A 
HETATM    6  C   UNL     1     -45.931 -51.767  14.777  1.00  0.00     0.081 A 
HETATM    7  C   UNL     1     -44.607 -52.372  14.524  1.00  0.00     0.262 A 
HETATM    8  O   UNL     1     -43.812 -52.513  15.449  1.00  0.00    -0.267 OA
HETATM    9  H   UNL     1     -44.990 -52.651  11.224  1.00  0.00     0.190 HD
ENDROOT
BRANCH   1  10
HETATM   10  C   UNL     1     -43.009 -53.101  12.804  1.00  0.00     0.255 C 
BRANCH  10  11
HETATM   11  C   UNL     1     -42.068 -51.896  12.902  1.00  0.00     0.237 C 
HETATM   12  N   UNL     1     -42.402 -50.845  12.063  1.00  0.00    -0.355 N 
HETATM   13  H   UNL     1     -43.023 -51.032  11.286  1.00  0.00     0.162 HD
HETATM   14  O   UNL     1     -41.142 -51.832  13.708  1.00  0.00    -0.272 OA
BRANCH  12  15
HETATM   15  C   UNL     1     -41.599 -49.625  12.006  1.00  0.00     0.080 C 
HETATM   16  C   UNL     1     -42.494 -48.459  11.596  1.00  0.00     0.032 C 
BRANCH  15  17
HETATM   17  C   UNL     1     -40.404 -49.818  11.055  1.00  0.00     0.020 C 
HETATM   18  C   UNL     1     -39.053 -49.669  11.741  1.00  0.00     0.007 C 
ENDBRANCH  15  17
ENDBRANCH  12  15
ENDBRANCH  10  11
ENDBRANCH   1  10
TORSDOF 4
ENDMDL
