MODEL 1
REMARK VINA RESULT:      -6.2      0.000      0.000
REMARK  4 active torsions:
REMARK  status: ('A' for Active; 'I' for Inactive)
REMARK    1  A    between atoms: N_2  and  C_4 
REMARK    2  A    between atoms: C_7  and  N_8 
REMARK       I    between atoms: N_8  and  C_9 
REMARK       I    between atoms: C_9  and  N_11 
REMARK    3  A    between atoms: N_11  and  C_12 
REMARK    4  A    between atoms: C_15  and  O_16 
ROOT
HETATM    1  N   UNL     1     -42.114 -49.622  11.443  1.00  0.00    -0.308 N 
HETATM    2  C   UNL     1     -42.825 -49.906  12.594  1.00  0.00     0.321 C 
HETATM    3  O   UNL     1     -43.221 -49.042  13.374  1.00  0.00    -0.247 OA
HETATM    4  N   UNL     1     -43.030 -51.248  12.814  1.00  0.00    -0.338 N 
HETATM    5  H   UNL     1     -42.342 -50.195  10.646  1.00  0.00     0.170 HD
HETATM    6  H   UNL     1     -43.021 -51.852  12.002  1.00  0.00     0.164 HD
ENDROOT
BRANCH   1   7
HETATM    7  C   UNL     1     -41.707 -48.288  11.186  1.00  0.00     0.051 A 
HETATM    8  C   UNL     1     -40.593 -47.760  11.819  1.00  0.00     0.034 A 
HETATM    9  C   UNL     1     -40.121 -46.500  11.427  1.00  0.00     0.044 A 
HETATM   10  C   UNL     1     -40.788 -45.766  10.440  1.00  0.00     0.081 A 
HETATM   11  N   UNL     1     -41.924 -46.237   9.887  1.00  0.00    -0.354 N 
HETATM   12  C   UNL     1     -42.351 -47.472  10.258  1.00  0.00     0.119 A 
ATOM     13  HN  UNL     1     -42.447 -45.683   9.210  1.00  0.00     0.166 HD
BRANCH  10  14
HETATM   14  N   UNL     1     -40.228 -44.555   9.985  1.00  0.00    -0.278 NA
HETATM   15  C   UNL     1     -40.280 -43.491  10.989  1.00  0.00     0.118 C 
HETATM   16  C   UNL     1     -38.926 -44.743   9.354  1.00  0.00     0.118 C 
ENDBRANCH  10  14
ENDBRANCH   1   7
BRANCH   4  17
HETATM   17  C   UNL     1     -43.811 -51.678  13.981  1.00  0.00     0.086 C 
HETATM   18  C   UNL     1     -43.236 -52.949  14.640  1.00  0.00     0.028 C 
HETATM   19  C   UNL     1     -43.336 -54.143  13.694  1.00  0.00     0.034 C 
HETATM   20  C   UNL     1     -44.785 -54.437  13.315  1.00  0.00     0.118 C 
HETATM   21  C   UNL     1     -45.532 -53.198  12.816  1.00  0.00     0.034 C 
HETATM   22  C   UNL     1     -45.291 -51.933  13.649  1.00  0.00     0.028 C 
BRANCH  20  23
HETATM   23  O   UNL     1     -45.495 -55.000  14.418  1.00  0.00    -0.396 OA
HETATM   24  H   UNL     1     -45.210 -54.574  15.242  1.00  0.00     0.210 HD
ENDBRANCH  20  23
ENDBRANCH   4  17
TORSDOF 4
ENDMDL
MODEL 2
REMARK VINA RESULT:      -6.1      3.195      7.756
REMARK  4 active torsions:
REMARK  status: ('A' for Active; 'I' for Inactive)
REMARK    1  A    between atoms: N_2  and  C_4 
REMARK    2  A    between atoms: C_7  and  N_8 
REMARK       I    between atoms: N_8  and  C_9 
REMARK       I    between atoms: C_9  and  N_11 
REMARK    3  A    between atoms: N_11  and  C_12 
REMARK    4  A    between atoms: C_15  and  O_16 
ROOT
HETATM    1  N   UNL     1     -40.903 -50.655  11.406  1.00  0.00    -0.308 N 
HETATM    2  C   UNL     1     -41.862 -49.759  11.840  1.00  0.00     0.321 C 
HETATM    3  O   UNL     1     -42.370 -49.803  12.959  1.00  0.00    -0.247 OA
HETATM    4  N   UNL     1     -42.226 -48.823  10.901  1.00  0.00    -0.338 N 
HETATM    5  H   UNL     1     -40.173 -50.258  10.836  1.00  0.00     0.170 HD
HETATM    6  H   UNL     1     -41.548 -48.607  10.182  1.00  0.00     0.164 HD
ENDROOT
BRANCH   1   7
HETATM    7  C   UNL     1     -40.556 -51.758  12.227  1.00  0.00     0.051 A 
HETATM    8  C   UNL     1     -39.554 -51.637  13.178  1.00  0.00     0.034 A 
HETATM    9  C   UNL     1     -39.343 -52.688  14.081  1.00  0.00     0.044 A 
HETATM   10  C   UNL     1     -40.104 -53.859  13.999  1.00  0.00     0.081 A 
HETATM   11  N   UNL     1     -41.016 -54.016  13.019  1.00  0.00    -0.354 N 
HETATM   12  C   UNL     1     -41.227 -52.977  12.170  1.00  0.00     0.119 A 
ATOM     13  HN  UNL     1     -41.532 -54.890  12.918  1.00  0.00     0.166 HD
BRANCH  10  14
HETATM   14  N   UNL     1     -39.949 -54.851  14.989  1.00  0.00    -0.278 NA
HETATM   15  C   UNL     1     -38.605 -54.871  15.570  1.00  0.00     0.118 C 
HETATM   16  C   UNL     1     -41.040 -54.849  15.958  1.00  0.00     0.118 C 
ENDBRANCH  10  14
ENDBRANCH   1   7
BRANCH   4  17
HETATM   17  C   UNL     1     -43.205 -47.787  11.255  1.00  0.00     0.086 C 
HETATM   18  C   UNL     1     -44.343 -47.673  10.220  1.00  0.00     0.028 C 
HETATM   19  C   UNL     1     -43.807 -47.199   8.872  1.00  0.00     0.034 C 
HETATM   20  C   UNL     1     -43.147 -45.827   8.983  1.00  0.00     0.118 C 
HETATM   21  C   UNL     1     -42.116 -45.752  10.112  1.00  0.00     0.034 C 
HETATM   22  C   UNL     1     -42.569 -46.398  11.428  1.00  0.00     0.028 C 
BRANCH  20  23
HETATM   23  O   UNL     1     -44.126 -44.806   9.174  1.00  0.00    -0.396 OA
HETATM   24  H   UNL     1     -44.436 -44.485   8.311  1.00  0.00     0.210 HD
ENDBRANCH  20  23
ENDBRANCH   4  17
TORSDOF 4
ENDMDL
MODEL 3
REMARK VINA RESULT:      -5.9      1.254      1.485
REMARK  4 active torsions:
REMARK  status: ('A' for Active; 'I' for Inactive)
REMARK    1  A    between atoms: N_2  and  C_4 
REMARK    2  A    between atoms: C_7  and  N_8 
REMARK       I    between atoms: N_8  and  C_9 
REMARK       I    between atoms: C_9  and  N_11 
REMARK    3  A    between atoms: N_11  and  C_12 
REMARK    4  A    between atoms: C_15  and  O_16 
ROOT
HETATM    1  N   UNL     1     -43.492 -49.062  11.919  1.00  0.00    -0.308 N 
HETATM    2  C   UNL     1     -42.724 -49.971  12.622  1.00  0.00     0.321 C 
HETATM    3  O   UNL     1     -41.573 -49.742  12.989  1.00  0.00    -0.247 OA
HETATM    4  N   UNL     1     -43.346 -51.174  12.857  1.00  0.00    -0.338 N 
HETATM    5  H   UNL     1     -44.469 -49.041  12.170  1.00  0.00     0.170 HD
HETATM    6  H   UNL     1     -44.358 -51.172  12.872  1.00  0.00     0.164 HD
ENDROOT
BRANCH   1   7
HETATM    7  C   UNL     1     -42.910 -47.845  11.484  1.00  0.00     0.051 A 
HETATM    8  C   UNL     1     -42.934 -46.724  12.300  1.00  0.00     0.034 A 
HETATM    9  C   UNL     1     -42.213 -45.586  11.914  1.00  0.00     0.044 A 
HETATM   10  C   UNL     1     -41.512 -45.565  10.703  1.00  0.00     0.081 A 
HETATM   11  N   UNL     1     -41.561 -46.620   9.866  1.00  0.00    -0.354 N 
HETATM   12  C   UNL     1     -42.241 -47.725  10.268  1.00  0.00     0.119 A 
ATOM     13  HN  UNL     1     -41.101 -46.589   8.956  1.00  0.00     0.166 HD
BRANCH  10  14
HETATM   14  N   UNL     1     -40.704 -44.452  10.394  1.00  0.00    -0.278 NA
HETATM   15  C   UNL     1     -40.701 -43.439  11.452  1.00  0.00     0.118 C 
HETATM   16  C   UNL     1     -39.384 -44.838   9.907  1.00  0.00     0.118 C 
ENDBRANCH  10  14
ENDBRANCH   1   7
BRANCH   4  17
HETATM   17  C   UNL     1     -42.651 -52.209  13.634  1.00  0.00     0.086 C 
HETATM   18  C   UNL     1     -42.643 -53.576  12.921  1.00  0.00     0.028 C 
HETATM   19  C   UNL     1     -44.059 -54.130  12.792  1.00  0.00     0.034 C 
HETATM   20  C   UNL     1     -44.708 -54.329  14.160  1.00  0.00     0.118 C 
HETATM   21  C   UNL     1     -44.616 -53.085  15.048  1.00  0.00     0.034 C 
HETATM   22  C   UNL     1     -43.244 -52.400  15.039  1.00  0.00     0.028 C 
BRANCH  20  23
HETATM   23  O   UNL     1     -44.125 -55.438  14.843  1.00  0.00    -0.396 OA
HETATM   24  H   UNL     1     -43.966 -55.203  15.772  1.00  0.00     0.210 HD
ENDBRANCH  20  23
ENDBRANCH   4  17
TORSDOF 4
ENDMDL
MODEL 4
REMARK VINA RESULT:      -5.5      2.860      3.842
REMARK  4 active torsions:
REMARK  status: ('A' for Active; 'I' for Inactive)
REMARK    1  A    between atoms: N_2  and  C_4 
REMARK    2  A    between atoms: C_7  and  N_8 
REMARK       I    between atoms: N_8  and  C_9 
REMARK       I    between atoms: C_9  and  N_11 
REMARK    3  A    between atoms: N_11  and  C_12 
REMARK    4  A    between atoms: C_15  and  O_16 
ROOT
HETATM    1  N   UNL     1     -41.045 -50.183  13.181  1.00  0.00    -0.308 N 
HETATM    2  C   UNL     1     -41.113 -51.526  12.864  1.00  0.00     0.321 C 
HETATM    3  O   UNL     1     -41.404 -51.943  11.744  1.00  0.00    -0.247 OA
HETATM    4  N   UNL     1     -40.854 -52.369  13.919  1.00  0.00    -0.338 N 
HETATM    5  H   UNL     1     -40.299 -49.927  13.809  1.00  0.00     0.170 HD
HETATM    6  H   UNL     1     -40.281 -52.002  14.669  1.00  0.00     0.164 HD
ENDROOT
BRANCH   1   7
HETATM    7  C   UNL     1     -41.440 -49.218  12.219  1.00  0.00     0.051 A 
HETATM    8  C   UNL     1     -42.766 -48.822  12.127  1.00  0.00     0.034 A 
HETATM    9  C   UNL     1     -43.098 -47.755  11.281  1.00  0.00     0.044 A 
HETATM   10  C   UNL     1     -42.116 -47.125  10.510  1.00  0.00     0.081 A 
HETATM   11  N   UNL     1     -40.843 -47.567  10.529  1.00  0.00    -0.354 N 
HETATM   12  C   UNL     1     -40.532 -48.584  11.375  1.00  0.00     0.119 A 
ATOM     13  HN  UNL     1     -40.134 -47.151   9.926  1.00  0.00     0.166 HD
BRANCH  10  14
HETATM   14  N   UNL     1     -42.458 -45.983   9.756  1.00  0.00    -0.278 NA
HETATM   15  C   UNL     1     -43.556 -46.228   8.818  1.00  0.00     0.118 C 
HETATM   16  C   UNL     1     -42.610 -44.792  10.585  1.00  0.00     0.118 C 
ENDBRANCH  10  14
ENDBRANCH   1   7
BRANCH   4  17
HETATM   17  C   UNL     1     -40.851 -53.822  13.701  1.00  0.00     0.086 C 
HETATM   18  C   UNL     1     -41.819 -54.562  14.646  1.00  0.00     0.028 C 
HETATM   19  C   UNL     1     -41.370 -54.427  16.099  1.00  0.00     0.034 C 
HETATM   20  C   UNL     1     -39.979 -55.018  16.311  1.00  0.00     0.118 C 
HETATM   21  C   UNL     1     -38.951 -54.498  15.302  1.00  0.00     0.034 C 
HETATM   22  C   UNL     1     -39.454 -54.446  13.854  1.00  0.00     0.028 C 
BRANCH  20  23
HETATM   23  O   UNL     1     -40.017 -56.443  16.249  1.00  0.00    -0.396 OA
HETATM   24  H   UNL     1     -40.819 -56.768  16.687  1.00  0.00     0.210 HD
ENDBRANCH  20  23
ENDBRANCH   4  17
TORSDOF 4
ENDMDL
MODEL 5
REMARK VINA RESULT:      -5.4      6.430      9.005
REMARK  4 active torsions:
REMARK  status: ('A' for Active; 'I' for Inactive)
REMARK    1  A    between atoms: N_2  and  C_4 
REMARK    2  A    between atoms: C_7  and  N_8 
REMARK       I    between atoms: N_8  and  C_9 
REMARK       I    between atoms: C_9  and  N_11 
REMARK    3  A    between atoms: N_11  and  C_12 
REMARK    4  A    between atoms: C_15  and  O_16 
ROOT
HETATM    1  N   UNL     1     -42.059 -54.173  16.483  1.00  0.00    -0.308 N 
HETATM    2  C   UNL     1     -43.089 -54.744  15.761  1.00  0.00     0.321 C 
HETATM    3  O   UNL     1     -43.119 -55.934  15.451  1.00  0.00    -0.247 OA
HETATM    4  N   UNL     1     -44.074 -53.861  15.387  1.00  0.00    -0.338 N 
HETATM    5  H   UNL     1     -42.342 -53.478  17.157  1.00  0.00     0.170 HD
HETATM    6  H   UNL     1     -44.187 -53.032  15.957  1.00  0.00     0.164 HD
ENDROOT
BRANCH   1   7
HETATM    7  C   UNL     1     -40.912 -54.947  16.794  1.00  0.00     0.051 A 
HETATM    8  C   UNL     1     -39.832 -54.980  15.925  1.00  0.00     0.034 A 
HETATM    9  C   UNL     1     -38.653 -55.620  16.331  1.00  0.00     0.044 A 
HETATM   10  C   UNL     1     -38.579 -56.252  17.577  1.00  0.00     0.081 A 
HETATM   11  N   UNL     1     -39.656 -56.300  18.385  1.00  0.00    -0.354 N 
HETATM   12  C   UNL     1     -40.782 -55.650  17.989  1.00  0.00     0.119 A 
ATOM     13  HN  UNL     1     -39.628 -56.809  19.269  1.00  0.00     0.166 HD
BRANCH  10  14
HETATM   14  N   UNL     1     -37.347 -56.788  18.006  1.00  0.00    -0.278 NA
HETATM   15  C   UNL     1     -36.196 -56.016  17.536  1.00  0.00     0.118 C 
HETATM   16  C   UNL     1     -37.340 -57.101  19.431  1.00  0.00     0.118 C 
ENDBRANCH  10  14
ENDBRANCH   1   7
BRANCH   4  17
HETATM   17  C   UNL     1     -45.247 -54.354  14.652  1.00  0.00     0.086 C 
HETATM   18  C   UNL     1     -44.968 -54.527  13.145  1.00  0.00     0.028 C 
HETATM   19  C   UNL     1     -44.686 -53.179  12.487  1.00  0.00     0.034 C 
HETATM   20  C   UNL     1     -45.872 -52.228  12.630  1.00  0.00     0.118 C 
HETATM   21  C   UNL     1     -46.371 -52.111  14.072  1.00  0.00     0.034 C 
HETATM   22  C   UNL     1     -46.479 -53.448  14.816  1.00  0.00     0.028 C 
BRANCH  20  23
HETATM   23  O   UNL     1     -46.953 -52.633  11.790  1.00  0.00    -0.396 OA
HETATM   24  H   UNL     1     -47.778 -52.641  12.301  1.00  0.00     0.210 HD
ENDBRANCH  20  23
ENDBRANCH   4  17
TORSDOF 4
ENDMDL
MODEL 6
REMARK VINA RESULT:      -5.2      4.787      6.980
REMARK  4 active torsions:
REMARK  status: ('A' for Active; 'I' for Inactive)
REMARK    1  A    between atoms: N_2  and  C_4 
REMARK    2  A    between atoms: C_7  and  N_8 
REMARK       I    between atoms: N_8  and  C_9 
REMARK       I    between atoms: C_9  and  N_11 
REMARK    3  A    between atoms: N_11  and  C_12 
REMARK    4  A    between atoms: C_15  and  O_16 
ROOT
HETATM    1  N   UNL     1     -42.057 -43.401  12.073  1.00  0.00    -0.308 N 
HETATM    2  C   UNL     1     -41.820 -44.293  11.045  1.00  0.00     0.321 C 
HETATM    3  O   UNL     1     -40.856 -44.209  10.286  1.00  0.00    -0.247 OA
HETATM    4  N   UNL     1     -42.772 -45.276  10.919  1.00  0.00    -0.338 N 
HETATM    5  H   UNL     1     -42.419 -43.809  12.920  1.00  0.00     0.170 HD
HETATM    6  H   UNL     1     -43.300 -45.512  11.750  1.00  0.00     0.164 HD
ENDROOT
BRANCH   1   7
HETATM    7  C   UNL     1     -41.231 -42.256  12.208  1.00  0.00     0.051 A 
HETATM    8  C   UNL     1     -41.564 -41.071  11.569  1.00  0.00     0.034 A 
HETATM    9  C   UNL     1     -40.821 -39.916  11.849  1.00  0.00     0.044 A 
HETATM   10  C   UNL     1     -39.733 -39.965  12.727  1.00  0.00     0.081 A 
HETATM   11  N   UNL     1     -39.351 -41.134  13.279  1.00  0.00    -0.354 N 
HETATM   12  C   UNL     1     -40.099 -42.238  13.020  1.00  0.00     0.119 A 
ATOM     13  HN  UNL     1     -38.525 -41.189  13.873  1.00  0.00     0.166 HD
BRANCH  10  14
HETATM   14  N   UNL     1     -39.076 -38.768  13.078  1.00  0.00    -0.278 NA
HETATM   15  C   UNL     1     -37.740 -38.994  13.634  1.00  0.00     0.118 C 
HETATM   16  C   UNL     1     -39.142 -37.764  12.021  1.00  0.00     0.118 C 
ENDBRANCH  10  14
ENDBRANCH   1   7
BRANCH   4  17
HETATM   17  C   UNL     1     -42.610 -46.313   9.891  1.00  0.00     0.086 C 
HETATM   18  C   UNL     1     -43.414 -46.005   8.611  1.00  0.00     0.028 C 
HETATM   19  C   UNL     1     -44.914 -46.025   8.894  1.00  0.00     0.034 C 
HETATM   20  C   UNL     1     -45.368 -47.390   9.404  1.00  0.00     0.118 C 
HETATM   21  C   UNL     1     -44.520 -47.902  10.571  1.00  0.00     0.034 C 
HETATM   22  C   UNL     1     -43.009 -47.713  10.387  1.00  0.00     0.028 C 
BRANCH  20  23
HETATM   23  O   UNL     1     -45.354 -48.357   8.355  1.00  0.00    -0.396 OA
HETATM   24  H   UNL     1     -45.373 -49.251   8.733  1.00  0.00     0.210 HD
ENDBRANCH  20  23
ENDBRANCH   4  17
TORSDOF 4
ENDMDL
MODEL 7
REMARK VINA RESULT:      -5.1      1.769      2.374
REMARK  4 active torsions:
REMARK  status: ('A' for Active; 'I' for Inactive)
REMARK    1  A    between atoms: N_2  and  C_4 
REMARK    2  A    between atoms: C_7  and  N_8 
REMARK       I    between atoms: N_8  and  C_9 
REMARK       I    between atoms: C_9  and  N_11 
REMARK    3  A    between atoms: N_11  and  C_12 
REMARK    4  A    between atoms: C_15  and  O_16 
ROOT
HETATM    1  N   UNL     1     -42.064 -49.826  13.886  1.00  0.00    -0.308 N 
HETATM    2  C   UNL     1     -42.203 -51.000  13.170  1.00  0.00     0.321 C 
HETATM    3  O   UNL     1     -41.810 -51.137  12.013  1.00  0.00    -0.247 OA
HETATM    4  N   UNL     1     -42.849 -52.004  13.852  1.00  0.00    -0.338 N 
HETATM    5  H   UNL     1     -41.843 -49.943  14.862  1.00  0.00     0.170 HD
HETATM    6  H   UNL     1     -42.811 -51.970  14.863  1.00  0.00     0.164 HD
ENDROOT
BRANCH   1   7
HETATM    7  C   UNL     1     -41.553 -48.671  13.240  1.00  0.00     0.051 A 
HETATM    8  C   UNL     1     -42.409 -47.794  12.591  1.00  0.00     0.034 A 
HETATM    9  C   UNL     1     -41.899 -46.584  12.103  1.00  0.00     0.044 A 
HETATM   10  C   UNL     1     -40.539 -46.282  12.230  1.00  0.00     0.081 A 
HETATM   11  N   UNL     1     -39.689 -47.172  12.779  1.00  0.00    -0.354 N 
HETATM   12  C   UNL     1     -40.204 -48.328  13.272  1.00  0.00     0.119 A 
ATOM     13  HN  UNL     1     -38.687 -46.984  12.822  1.00  0.00     0.166 HD
BRANCH  10  14
HETATM   14  N   UNL     1     -40.075 -45.011  11.833  1.00  0.00    -0.278 NA
HETATM   15  C   UNL     1     -39.088 -44.450  12.759  1.00  0.00     0.118 C 
HETATM   16  C   UNL     1     -39.692 -44.970  10.426  1.00  0.00     0.118 C 
ENDBRANCH  10  14
ENDBRANCH   1   7
BRANCH   4  17
HETATM   17  C   UNL     1     -43.020 -53.317  13.215  1.00  0.00     0.086 C 
HETATM   18  C   UNL     1     -44.336 -53.419  12.418  1.00  0.00     0.028 C 
HETATM   19  C   UNL     1     -45.543 -53.323  13.348  1.00  0.00     0.034 C 
HETATM   20  C   UNL     1     -45.543 -54.446  14.381  1.00  0.00     0.118 C 
HETATM   21  C   UNL     1     -44.210 -54.573  15.122  1.00  0.00     0.034 C 
HETATM   22  C   UNL     1     -42.973 -54.479  14.221  1.00  0.00     0.028 C 
BRANCH  20  23
HETATM   23  O   UNL     1     -45.864 -55.697  13.773  1.00  0.00    -0.396 OA
HETATM   24  H   UNL     1     -46.315 -55.544  12.928  1.00  0.00     0.210 HD
ENDBRANCH  20  23
ENDBRANCH   4  17
TORSDOF 4
ENDMDL
MODEL 8
REMARK VINA RESULT:      -5.1      1.851      2.442
REMARK  4 active torsions:
REMARK  status: ('A' for Active; 'I' for Inactive)
REMARK    1  A    between atoms: N_2  and  C_4 
REMARK    2  A    between atoms: C_7  and  N_8 
REMARK       I    between atoms: N_8  and  C_9 
REMARK       I    between atoms: C_9  and  N_11 
REMARK    3  A    between atoms: N_11  and  C_12 
REMARK    4  A    between atoms: C_15  and  O_16 
ROOT
HETATM    1  N   UNL     1     -42.760 -48.331  14.225  1.00  0.00    -0.308 N 
HETATM    2  C   UNL     1     -43.166 -49.386  13.430  1.00  0.00     0.321 C 
HETATM    3  O   UNL     1     -42.859 -49.497  12.245  1.00  0.00    -0.247 OA
HETATM    4  N   UNL     1     -43.973 -50.298  14.070  1.00  0.00    -0.338 N 
HETATM    5  H   UNL     1     -42.526 -48.575  15.174  1.00  0.00     0.170 HD
HETATM    6  H   UNL     1     -43.884 -50.361  15.076  1.00  0.00     0.164 HD
ENDROOT
BRANCH   1   7
HETATM    7  C   UNL     1     -42.054 -47.249  13.641  1.00  0.00     0.051 A 
HETATM    8  C   UNL     1     -40.669 -47.266  13.582  1.00  0.00     0.034 A 
HETATM    9  C   UNL     1     -40.007 -46.265  12.859  1.00  0.00     0.044 A 
HETATM   10  C   UNL     1     -40.728 -45.239  12.239  1.00  0.00     0.081 A 
HETATM   11  N   UNL     1     -42.068 -45.169  12.371  1.00  0.00    -0.354 N 
HETATM   12  C   UNL     1     -42.697 -46.163  13.052  1.00  0.00     0.119 A 
ATOM     13  HN  UNL     1     -42.595 -44.393  11.972  1.00  0.00     0.166 HD
BRANCH  10  14
HETATM   14  N   UNL     1     -40.047 -44.312  11.425  1.00  0.00    -0.278 NA
HETATM   15  C   UNL     1     -39.575 -44.897  10.168  1.00  0.00     0.118 C 
HETATM   16  C   UNL     1     -40.772 -43.053  11.285  1.00  0.00     0.118 C 
ENDBRANCH  10  14
ENDBRANCH   1   7
BRANCH   4  17
HETATM   17  C   UNL     1     -44.434 -51.490  13.345  1.00  0.00     0.086 C 
HETATM   18  C   UNL     1     -45.935 -51.423  12.997  1.00  0.00     0.028 C 
HETATM   19  C   UNL     1     -46.788 -51.433  14.263  1.00  0.00     0.034 C 
HETATM   20  C   UNL     1     -46.561 -52.702  15.079  1.00  0.00     0.118 C 
HETATM   21  C   UNL     1     -45.080 -52.987  15.338  1.00  0.00     0.034 C 
HETATM   22  C   UNL     1     -44.174 -52.795  14.115  1.00  0.00     0.028 C 
BRANCH  20  23
HETATM   23  O   UNL     1     -47.151 -53.833  14.437  1.00  0.00    -0.396 OA
HETATM   24  H   UNL     1     -46.939 -54.639  14.935  1.00  0.00     0.210 HD
ENDBRANCH  20  23
ENDBRANCH   4  17
TORSDOF 4
ENDMDL
MODEL 9
REMARK VINA RESULT:      -5.1      3.632      4.912
REMARK  4 active torsions:
REMARK  status: ('A' for Active; 'I' for Inactive)
REMARK    1  A    between atoms: N_2  and  C_4 
REMARK    2  A    between atoms: C_7  and  N_8 
REMARK       I    between atoms: N_8  and  C_9 
REMARK       I    between atoms: C_9  and  N_11 
REMARK    3  A    between atoms: N_11  and  C_12 
REMARK    4  A    between atoms: C_15  and  O_16 
ROOT
HETATM    1  N   UNL     1     -40.241 -46.058  13.039  1.00  0.00    -0.308 N 
HETATM    2  C   UNL     1     -40.002 -47.005  12.062  1.00  0.00     0.321 C 
HETATM    3  O   UNL     1     -40.202 -46.807  10.865  1.00  0.00    -0.247 OA
HETATM    4  N   UNL     1     -39.545 -48.210  12.543  1.00  0.00    -0.338 N 
HETATM    5  H   UNL     1     -39.566 -46.035  13.788  1.00  0.00     0.170 HD
HETATM    6  H   UNL     1     -39.064 -48.195  13.433  1.00  0.00     0.164 HD
ENDROOT
BRANCH   1   7
HETATM    7  C   UNL     1     -40.857 -44.831  12.685  1.00  0.00     0.051 A 
HETATM    8  C   UNL     1     -40.085 -43.732  12.340  1.00  0.00     0.034 A 
HETATM    9  C   UNL     1     -40.718 -42.586  11.841  1.00  0.00     0.044 A 
HETATM   10  C   UNL     1     -42.112 -42.534  11.731  1.00  0.00     0.081 A 
HETATM   11  N   UNL     1     -42.870 -43.566  12.151  1.00  0.00    -0.354 N 
HETATM   12  C   UNL     1     -42.239 -44.680  12.606  1.00  0.00     0.119 A 
ATOM     13  HN  UNL     1     -43.889 -43.513  12.128  1.00  0.00     0.166 HD
BRANCH  10  14
HETATM   14  N   UNL     1     -42.714 -41.415  11.121  1.00  0.00    -0.278 NA
HETATM   15  C   UNL     1     -44.100 -41.210  11.548  1.00  0.00     0.118 C 
HETATM   16  C   UNL     1     -41.870 -40.226  11.177  1.00  0.00     0.118 C 
ENDBRANCH  10  14
ENDBRANCH   1   7
BRANCH   4  17
HETATM   17  C   UNL     1     -39.211 -49.285  11.600  1.00  0.00     0.086 C 
HETATM   18  C   UNL     1     -40.464 -49.996  11.049  1.00  0.00     0.028 C 
HETATM   19  C   UNL     1     -41.208 -50.728  12.163  1.00  0.00     0.034 C 
HETATM   20  C   UNL     1     -40.328 -51.789  12.819  1.00  0.00     0.118 C 
HETATM   21  C   UNL     1     -38.962 -51.248  13.249  1.00  0.00     0.034 C 
HETATM   22  C   UNL     1     -38.282 -50.348  12.210  1.00  0.00     0.028 C 
BRANCH  20  23
HETATM   23  O   UNL     1     -40.138 -52.903  11.947  1.00  0.00    -0.396 OA
HETATM   24  H   UNL     1     -40.394 -52.658  11.043  1.00  0.00     0.210 HD
ENDBRANCH  20  23
ENDBRANCH   4  17
TORSDOF 4
ENDMDL
