MODEL 1
REMARK VINA RESULT:      -6.7      0.000      0.000
REMARK  6 active torsions:
REMARK  status: ('A' for Active; 'I' for Inactive)
REMARK    1  A    between atoms: O_2  and  C_3 
REMARK    2  A    between atoms: C_6  and  O_7 
REMARK    3  A    between atoms: C_9  and  C_11 
REMARK    4  A    between atoms: C_11  and  O_12 
REMARK    5  A    between atoms: C_11  and  C_13 
REMARK    6  A    between atoms: C_13  and  N_14 
ROOT
HETATM    1  C   UNL     1     -40.791 -53.343  12.956  1.00  0.00     0.172 C 
ENDROOT
BRANCH   1   2
HETATM    2  C   UNL     1     -42.226 -53.756  13.269  1.00  0.00     0.008 A 
HETATM    3  C   UNL     1     -42.542 -54.556  14.388  1.00  0.00     0.077 A 
HETATM    4  C   UNL     1     -43.873 -54.875  14.663  1.00  0.00     0.040 A 
HETATM    5  C   UNL     1     -44.894 -54.373  13.855  1.00  0.00     0.039 A 
HETATM    6  C   UNL     1     -44.603 -53.571  12.754  1.00  0.00     0.069 A 
HETATM    7  C   UNL     1     -43.273 -53.269  12.459  1.00  0.00     0.049 A 
BRANCH   3   8
HETATM    8  O   UNL     1     -41.480 -54.917  15.174  1.00  0.00    -0.355 OA
HETATM    9  C   UNL     1     -41.433 -54.418  16.505  1.00  0.00     0.210 C 
ENDBRANCH   3   8
BRANCH   6  10
HETATM   10  O   UNL     1     -45.697 -53.080  12.097  1.00  0.00    -0.356 OA
HETATM   11  C   UNL     1     -46.334 -51.949  12.677  1.00  0.00     0.210 C 
ENDBRANCH   6  10
ENDBRANCH   1   2
BRANCH   1  12
HETATM   12  O   UNL     1     -40.626 -53.299  11.535  1.00  0.00    -0.389 OA
HETATM   13  H   UNL     1     -39.684 -53.116  11.360  1.00  0.00     0.210 HD
ENDBRANCH   1  12
BRANCH   1  14
HETATM   14  C   UNL     1     -40.404 -51.996  13.590  1.00  0.00     0.166 C 
BRANCH  14  15
HETATM   15  N   UNL     1     -40.315 -50.917  12.622  1.00  0.00    -0.338 N 
HETATM   16  C   UNL     1     -39.240 -50.692  11.804  1.00  0.00     0.184 A 
HETATM   17  N   UNL     1     -39.473 -49.721  10.949  1.00  0.00    -0.350 N 
HETATM   18  C   UNL     1     -40.746 -49.292  11.238  1.00  0.00     0.060 A 
ATOM     19  HN  UNL     1     -38.846 -49.365  10.228  1.00  0.00     0.166 HD
HETATM   20  C   UNL     1     -41.499 -48.280  10.628  1.00  0.00     0.032 A 
HETATM   21  C   UNL     1     -41.298 -50.019  12.293  1.00  0.00     0.062 A 
HETATM   22  C   UNL     1     -42.791 -48.024  11.104  1.00  0.00     0.002 A 
HETATM   23  C   UNL     1     -43.320 -48.760  12.167  1.00  0.00     0.002 A 
HETATM   24  C   UNL     1     -42.585 -49.777  12.786  1.00  0.00     0.032 A 
ENDBRANCH  14  15
ENDBRANCH   1  14
TORSDOF 6
ENDMDL
MODEL 2
REMARK VINA RESULT:      -6.4      1.553      2.113
REMARK  6 active torsions:
REMARK  status: ('A' for Active; 'I' for Inactive)
REMARK    1  A    between atoms: O_2  and  C_3 
REMARK    2  A    between atoms: C_6  and  O_7 
REMARK    3  A    between atoms: C_9  and  C_11 
REMARK    4  A    between atoms: C_11  and  O_12 
REMARK    5  A    between atoms: C_11  and  C_13 
REMARK    6  A    between atoms: C_13  and  N_14 
ROOT
HETATM    1  C   UNL     1     -40.850 -52.704  12.501  1.00  0.00     0.172 C 
ENDROOT
BRANCH   1   2
HETATM    2  C   UNL     1     -41.333 -53.637  13.608  1.00  0.00     0.008 A 
HETATM    3  C   UNL     1     -40.503 -53.994  14.693  1.00  0.00     0.077 A 
HETATM    4  C   UNL     1     -40.999 -54.815  15.707  1.00  0.00     0.040 A 
HETATM    5  C   UNL     1     -42.323 -55.252  15.670  1.00  0.00     0.039 A 
HETATM    6  C   UNL     1     -43.161 -54.899  14.614  1.00  0.00     0.069 A 
HETATM    7  C   UNL     1     -42.665 -54.100  13.584  1.00  0.00     0.049 A 
BRANCH   3   8
HETATM    8  O   UNL     1     -39.253 -53.435  14.688  1.00  0.00    -0.355 OA
HETATM    9  C   UNL     1     -38.948 -52.470  15.688  1.00  0.00     0.210 C 
ENDBRANCH   3   8
BRANCH   6  10
HETATM   10  O   UNL     1     -44.454 -55.324  14.741  1.00  0.00    -0.356 OA
HETATM   11  C   UNL     1     -45.363 -54.910  13.728  1.00  0.00     0.210 C 
ENDBRANCH   6  10
ENDBRANCH   1   2
BRANCH   1  12
HETATM   12  O   UNL     1     -40.638 -53.474  11.313  1.00  0.00    -0.389 OA
HETATM   13  H   UNL     1     -41.182 -53.074  10.610  1.00  0.00     0.210 HD
ENDBRANCH   1  12
BRANCH   1  14
HETATM   14  C   UNL     1     -41.822 -51.543  12.230  1.00  0.00     0.166 C 
BRANCH  14  15
HETATM   15  N   UNL     1     -41.145 -50.298  11.913  1.00  0.00    -0.338 N 
HETATM   16  C   UNL     1     -39.805 -50.183  11.657  1.00  0.00     0.184 A 
HETATM   17  N   UNL     1     -39.481 -48.964  11.287  1.00  0.00    -0.350 N 
HETATM   18  C   UNL     1     -40.660 -48.259  11.323  1.00  0.00     0.060 A 
ATOM     19  HN  UNL     1     -38.558 -48.617  11.031  1.00  0.00     0.166 HD
HETATM   20  C   UNL     1     -40.895 -46.911  11.017  1.00  0.00     0.032 A 
HETATM   21  C   UNL     1     -41.723 -49.069  11.723  1.00  0.00     0.062 A 
HETATM   22  C   UNL     1     -42.200 -46.415  11.128  1.00  0.00     0.002 A 
HETATM   23  C   UNL     1     -43.248 -47.244  11.538  1.00  0.00     0.002 A 
HETATM   24  C   UNL     1     -43.033 -48.592  11.844  1.00  0.00     0.032 A 
ENDBRANCH  14  15
ENDBRANCH   1  14
TORSDOF 6
ENDMDL
MODEL 3
REMARK VINA RESULT:      -6.3      2.611      5.466
REMARK  6 active torsions:
REMARK  status: ('A' for Active; 'I' for Inactive)
REMARK    1  A    between atoms: O_2  and  C_3 
REMARK    2  A    between atoms: C_6  and  O_7 
REMARK    3  A    between atoms: C_9  and  C_11 
REMARK    4  A    between atoms: C_11  and  O_12 
REMARK    5  A    between atoms: C_11  and  C_13 
REMARK    6  A    between atoms: C_13  and  N_14 
ROOT
HETATM    1  C   UNL     1     -41.516 -52.338  11.952  1.00  0.00     0.172 C 
ENDROOT
BRANCH   1   2
HETATM    2  C   UNL     1     -40.761 -51.014  12.021  1.00  0.00     0.008 A 
HETATM    3  C   UNL     1     -39.472 -50.923  12.589  1.00  0.00     0.077 A 
HETATM    4  C   UNL     1     -38.798 -49.700  12.592  1.00  0.00     0.040 A 
HETATM    5  C   UNL     1     -39.380 -48.578  12.001  1.00  0.00     0.039 A 
HETATM    6  C   UNL     1     -40.646 -48.652  11.424  1.00  0.00     0.069 A 
HETATM    7  C   UNL     1     -41.336 -49.864  11.439  1.00  0.00     0.049 A 
BRANCH   3   8
HETATM    8  O   UNL     1     -38.948 -52.099  13.054  1.00  0.00    -0.355 OA
HETATM    9  C   UNL     1     -38.691 -52.210  14.449  1.00  0.00     0.210 C 
ENDBRANCH   3   8
BRANCH   6  10
HETATM   10  O   UNL     1     -41.065 -47.505  10.809  1.00  0.00    -0.356 OA
HETATM   11  C   UNL     1     -42.290 -47.577  10.092  1.00  0.00     0.210 C 
ENDBRANCH   6  10
ENDBRANCH   1   2
BRANCH   1  12
HETATM   12  O   UNL     1     -40.635 -53.342  11.437  1.00  0.00    -0.389 OA
HETATM   13  H   UNL     1     -40.834 -54.170  11.911  1.00  0.00     0.210 HD
ENDBRANCH   1  12
BRANCH   1  14
HETATM   14  C   UNL     1     -42.096 -52.769  13.310  1.00  0.00     0.166 C 
BRANCH  14  15
HETATM   15  N   UNL     1     -43.548 -52.797  13.324  1.00  0.00    -0.338 N 
HETATM   16  C   UNL     1     -44.321 -53.574  12.503  1.00  0.00     0.184 A 
HETATM   17  N   UNL     1     -45.596 -53.487  12.808  1.00  0.00    -0.350 N 
HETATM   18  C   UNL     1     -45.650 -52.604  13.860  1.00  0.00     0.060 A 
ATOM     19  HN  UNL     1     -46.376 -53.969  12.362  1.00  0.00     0.166 HD
HETATM   20  C   UNL     1     -46.764 -52.152  14.580  1.00  0.00     0.032 A 
HETATM   21  C   UNL     1     -44.378 -52.145  14.201  1.00  0.00     0.062 A 
HETATM   22  C   UNL     1     -46.564 -51.242  15.626  1.00  0.00     0.002 A 
HETATM   23  C   UNL     1     -45.280 -50.790  15.945  1.00  0.00     0.002 A 
HETATM   24  C   UNL     1     -44.156 -51.233  15.239  1.00  0.00     0.032 A 
ENDBRANCH  14  15
ENDBRANCH   1  14
TORSDOF 6
ENDMDL
MODEL 4
REMARK VINA RESULT:      -6.3      2.284      3.412
REMARK  6 active torsions:
REMARK  status: ('A' for Active; 'I' for Inactive)
REMARK    1  A    between atoms: O_2  and  C_3 
REMARK    2  A    between atoms: C_6  and  O_7 
REMARK    3  A    between atoms: C_9  and  C_11 
REMARK    4  A    between atoms: C_11  and  O_12 
REMARK    5  A    between atoms: C_11  and  C_13 
REMARK    6  A    between atoms: C_13  and  N_14 
ROOT
HETATM    1  C   UNL     1     -41.118 -50.349  11.981  1.00  0.00     0.172 C 
ENDROOT
BRANCH   1   2
HETATM    2  C   UNL     1     -41.613 -51.722  12.425  1.00  0.00     0.008 A 
HETATM    3  C   UNL     1     -40.719 -52.742  12.819  1.00  0.00     0.077 A 
HETATM    4  C   UNL     1     -41.216 -53.969  13.261  1.00  0.00     0.040 A 
HETATM    5  C   UNL     1     -42.593 -54.177  13.350  1.00  0.00     0.039 A 
HETATM    6  C   UNL     1     -43.490 -53.178  12.978  1.00  0.00     0.069 A 
HETATM    7  C   UNL     1     -43.001 -51.957  12.512  1.00  0.00     0.049 A 
BRANCH   3   8
HETATM    8  O   UNL     1     -39.392 -52.407  12.789  1.00  0.00    -0.355 OA
HETATM    9  C   UNL     1     -38.717 -52.238  14.030  1.00  0.00     0.210 C 
ENDBRANCH   3   8
BRANCH   6  10
HETATM   10  O   UNL     1     -44.806 -53.480  13.191  1.00  0.00    -0.356 OA
HETATM   11  C   UNL     1     -45.090 -54.793  13.657  1.00  0.00     0.210 C 
ENDBRANCH   6  10
ENDBRANCH   1   2
BRANCH   1  12
HETATM   12  O   UNL     1     -40.506 -50.476  10.693  1.00  0.00    -0.389 OA
HETATM   13  H   UNL     1     -39.886 -49.731  10.594  1.00  0.00     0.210 HD
ENDBRANCH   1  12
BRANCH   1  14
HETATM   14  C   UNL     1     -42.234 -49.291  11.950  1.00  0.00     0.166 C 
BRANCH  14  15
HETATM   15  N   UNL     1     -41.862 -48.093  11.218  1.00  0.00    -0.338 N 
HETATM   16  C   UNL     1     -42.382 -47.729  10.005  1.00  0.00     0.184 A 
HETATM   17  N   UNL     1     -41.953 -46.545   9.627  1.00  0.00    -0.350 N 
HETATM   18  C   UNL     1     -41.109 -46.136  10.631  1.00  0.00     0.060 A 
ATOM     19  HN  UNL     1     -42.195 -46.041   8.774  1.00  0.00     0.166 HD
HETATM   20  C   UNL     1     -40.381 -44.944  10.745  1.00  0.00     0.032 A 
HETATM   21  C   UNL     1     -41.023 -47.093  11.642  1.00  0.00     0.062 A 
HETATM   22  C   UNL     1     -39.580 -44.751  11.877  1.00  0.00     0.002 A 
HETATM   23  C   UNL     1     -39.505 -45.728  12.874  1.00  0.00     0.002 A 
HETATM   24  C   UNL     1     -40.227 -46.923  12.779  1.00  0.00     0.032 A 
ENDBRANCH  14  15
ENDBRANCH   1  14
TORSDOF 6
ENDMDL
MODEL 5
REMARK VINA RESULT:      -6.2      1.457      2.468
REMARK  6 active torsions:
REMARK  status: ('A' for Active; 'I' for Inactive)
REMARK    1  A    between atoms: O_2  and  C_3 
REMARK    2  A    between atoms: C_6  and  O_7 
REMARK    3  A    between atoms: C_9  and  C_11 
REMARK    4  A    between atoms: C_11  and  O_12 
REMARK    5  A    between atoms: C_11  and  C_13 
REMARK    6  A    between atoms: C_13  and  N_14 
ROOT
HETATM    1  C   UNL     1     -41.072 -53.185  12.908  1.00  0.00     0.172 C 
ENDROOT
BRANCH   1   2
HETATM    2  C   UNL     1     -42.496 -53.650  13.200  1.00  0.00     0.008 A 
HETATM    3  C   UNL     1     -42.787 -54.527  14.268  1.00  0.00     0.077 A 
HETATM    4  C   UNL     1     -44.108 -54.893  14.527  1.00  0.00     0.040 A 
HETATM    5  C   UNL     1     -45.146 -54.363  13.759  1.00  0.00     0.039 A 
HETATM    6  C   UNL     1     -44.880 -53.485  12.710  1.00  0.00     0.069 A 
HETATM    7  C   UNL     1     -43.559 -53.135  12.429  1.00  0.00     0.049 A 
BRANCH   3   8
HETATM    8  O   UNL     1     -41.712 -54.915  15.023  1.00  0.00    -0.355 OA
HETATM    9  C   UNL     1     -41.934 -55.218  16.394  1.00  0.00     0.210 C 
ENDBRANCH   3   8
BRANCH   6  10
HETATM   10  O   UNL     1     -45.988 -52.978  12.092  1.00  0.00    -0.356 OA
HETATM   11  C   UNL     1     -46.492 -51.748  12.597  1.00  0.00     0.210 C 
ENDBRANCH   6  10
ENDBRANCH   1   2
BRANCH   1  12
HETATM   12  O   UNL     1     -40.248 -54.337  12.698  1.00  0.00    -0.389 OA
HETATM   13  H   UNL     1     -40.137 -54.439  11.734  1.00  0.00     0.210 HD
ENDBRANCH   1  12
BRANCH   1  14
HETATM   14  C   UNL     1     -40.989 -52.230  11.705  1.00  0.00     0.166 C 
BRANCH  14  15
HETATM   15  N   UNL     1     -40.758 -50.849  12.091  1.00  0.00    -0.338 N 
HETATM   16  C   UNL     1     -41.700 -49.857  12.035  1.00  0.00     0.184 A 
HETATM   17  N   UNL     1     -41.255 -48.733  12.551  1.00  0.00    -0.350 N 
HETATM   18  C   UNL     1     -39.967 -49.008  12.942  1.00  0.00     0.060 A 
ATOM     19  HN  UNL     1     -41.757 -47.850  12.641  1.00  0.00     0.166 HD
HETATM   20  C   UNL     1     -39.030 -48.167  13.558  1.00  0.00     0.032 A 
HETATM   21  C   UNL     1     -39.622 -50.329  12.657  1.00  0.00     0.062 A 
HETATM   22  C   UNL     1     -37.765 -48.682  13.866  1.00  0.00     0.002 A 
HETATM   23  C   UNL     1     -37.440 -50.007  13.564  1.00  0.00     0.002 A 
HETATM   24  C   UNL     1     -38.363 -50.862  12.953  1.00  0.00     0.032 A 
ENDBRANCH  14  15
ENDBRANCH   1  14
TORSDOF 6
ENDMDL
MODEL 6
REMARK VINA RESULT:      -5.7      2.822      5.603
REMARK  6 active torsions:
REMARK  status: ('A' for Active; 'I' for Inactive)
REMARK    1  A    between atoms: O_2  and  C_3 
REMARK    2  A    between atoms: C_6  and  O_7 
REMARK    3  A    between atoms: C_9  and  C_11 
REMARK    4  A    between atoms: C_11  and  O_12 
REMARK    5  A    between atoms: C_11  and  C_13 
REMARK    6  A    between atoms: C_13  and  N_14 
ROOT
HETATM    1  C   UNL     1     -41.295 -53.528  13.062  1.00  0.00     0.172 C 
ENDROOT
BRANCH   1   2
HETATM    2  C   UNL     1     -40.339 -52.984  14.119  1.00  0.00     0.008 A 
HETATM    3  C   UNL     1     -39.310 -52.074  13.792  1.00  0.00     0.077 A 
HETATM    4  C   UNL     1     -38.484 -51.567  14.796  1.00  0.00     0.040 A 
HETATM    5  C   UNL     1     -38.698 -51.927  16.127  1.00  0.00     0.039 A 
HETATM    6  C   UNL     1     -39.717 -52.813  16.471  1.00  0.00     0.069 A 
HETATM    7  C   UNL     1     -40.530 -53.344  15.469  1.00  0.00     0.049 A 
BRANCH   3   8
HETATM    8  O   UNL     1     -39.243 -51.708  12.474  1.00  0.00    -0.355 OA
HETATM    9  C   UNL     1     -39.438 -50.336  12.151  1.00  0.00     0.210 C 
ENDBRANCH   3   8
BRANCH   6  10
HETATM   10  O   UNL     1     -39.871 -53.018  17.814  1.00  0.00    -0.356 OA
HETATM   11  C   UNL     1     -39.684 -54.348  18.281  1.00  0.00     0.210 C 
ENDBRANCH   6  10
ENDBRANCH   1   2
BRANCH   1  12
HETATM   12  O   UNL     1     -40.595 -54.483  12.257  1.00  0.00    -0.389 OA
HETATM   13  H   UNL     1     -41.208 -54.776  11.558  1.00  0.00     0.210 HD
ENDBRANCH   1  12
BRANCH   1  14
HETATM   14  C   UNL     1     -42.564 -54.154  13.667  1.00  0.00     0.166 C 
BRANCH  14  15
HETATM   15  N   UNL     1     -43.757 -53.361  13.431  1.00  0.00    -0.338 N 
HETATM   16  C   UNL     1     -44.377 -53.229  12.217  1.00  0.00     0.184 A 
HETATM   17  N   UNL     1     -45.497 -52.548  12.313  1.00  0.00    -0.350 N 
HETATM   18  C   UNL     1     -45.595 -52.214  13.642  1.00  0.00     0.060 A 
ATOM     19  HN  UNL     1     -46.150 -52.318  11.565  1.00  0.00     0.166 HD
HETATM   20  C   UNL     1     -46.599 -51.491  14.301  1.00  0.00     0.032 A 
HETATM   21  C   UNL     1     -44.510 -52.702  14.369  1.00  0.00     0.062 A 
HETATM   22  C   UNL     1     -46.478 -51.277  15.680  1.00  0.00     0.002 A 
HETATM   23  C   UNL     1     -45.378 -51.770  16.386  1.00  0.00     0.002 A 
HETATM   24  C   UNL     1     -44.368 -52.496  15.746  1.00  0.00     0.032 A 
ENDBRANCH  14  15
ENDBRANCH   1  14
TORSDOF 6
ENDMDL
MODEL 7
REMARK VINA RESULT:      -5.7      1.826      2.197
REMARK  6 active torsions:
REMARK  status: ('A' for Active; 'I' for Inactive)
REMARK    1  A    between atoms: O_2  and  C_3 
REMARK    2  A    between atoms: C_6  and  O_7 
REMARK    3  A    between atoms: C_9  and  C_11 
REMARK    4  A    between atoms: C_11  and  O_12 
REMARK    5  A    between atoms: C_11  and  C_13 
REMARK    6  A    between atoms: C_13  and  N_14 
ROOT
HETATM    1  C   UNL     1     -39.993 -53.427  13.787  1.00  0.00     0.172 C 
ENDROOT
BRANCH   1   2
HETATM    2  C   UNL     1     -41.404 -53.984  13.959  1.00  0.00     0.008 A 
HETATM    3  C   UNL     1     -41.765 -54.758  15.083  1.00  0.00     0.077 A 
HETATM    4  C   UNL     1     -43.077 -55.211  15.223  1.00  0.00     0.040 A 
HETATM    5  C   UNL     1     -44.042 -54.868  14.275  1.00  0.00     0.039 A 
HETATM    6  C   UNL     1     -43.708 -54.093  13.166  1.00  0.00     0.069 A 
HETATM    7  C   UNL     1     -42.391 -53.659  13.006  1.00  0.00     0.049 A 
BRANCH   3   8
HETATM    8  O   UNL     1     -40.772 -54.958  16.005  1.00  0.00    -0.355 OA
HETATM    9  C   UNL     1     -40.795 -56.164  16.759  1.00  0.00     0.210 C 
ENDBRANCH   3   8
BRANCH   6  10
HETATM   10  O   UNL     1     -44.760 -53.762  12.359  1.00  0.00    -0.356 OA
HETATM   11  C   UNL     1     -45.699 -52.833  12.886  1.00  0.00     0.210 C 
ENDBRANCH   6  10
ENDBRANCH   1   2
BRANCH   1  12
HETATM   12  O   UNL     1     -39.127 -54.491  13.377  1.00  0.00    -0.389 OA
HETATM   13  H   UNL     1     -38.635 -54.782  14.167  1.00  0.00     0.210 HD
ENDBRANCH   1  12
BRANCH   1  14
HETATM   14  C   UNL     1     -39.928 -52.258  12.789  1.00  0.00     0.166 C 
BRANCH  14  15
HETATM   15  N   UNL     1     -39.370 -51.049  13.367  1.00  0.00    -0.338 N 
HETATM   16  C   UNL     1     -38.393 -51.023  14.326  1.00  0.00     0.184 A 
HETATM   17  N   UNL     1     -37.995 -49.797  14.584  1.00  0.00    -0.350 N 
HETATM   18  C   UNL     1     -38.760 -48.998  13.768  1.00  0.00     0.060 A 
ATOM     19  HN  UNL     1     -37.277 -49.503  15.245  1.00  0.00     0.166 HD
HETATM   20  C   UNL     1     -38.747 -47.603  13.632  1.00  0.00     0.032 A 
HETATM   21  C   UNL     1     -39.641 -49.756  12.998  1.00  0.00     0.062 A 
HETATM   22  C   UNL     1     -39.629 -47.009  12.721  1.00  0.00     0.002 A 
HETATM   23  C   UNL     1     -40.509 -47.788  11.965  1.00  0.00     0.002 A 
HETATM   24  C   UNL     1     -40.533 -49.182  12.086  1.00  0.00     0.032 A 
ENDBRANCH  14  15
ENDBRANCH   1  14
TORSDOF 6
ENDMDL
MODEL 8
REMARK VINA RESULT:      -5.7      1.964      2.666
REMARK  6 active torsions:
REMARK  status: ('A' for Active; 'I' for Inactive)
REMARK    1  A    between atoms: O_2  and  C_3 
REMARK    2  A    between atoms: C_6  and  O_7 
REMARK    3  A    between atoms: C_9  and  C_11 
REMARK    4  A    between atoms: C_11  and  O_12 
REMARK    5  A    between atoms: C_11  and  C_13 
REMARK    6  A    between atoms: C_13  and  N_14 
ROOT
HETATM    1  C   UNL     1     -40.988 -52.702  12.455  1.00  0.00     0.172 C 
ENDROOT
BRANCH   1   2
HETATM    2  C   UNL     1     -41.922 -53.578  13.285  1.00  0.00     0.008 A 
HETATM    3  C   UNL     1     -41.518 -54.132  14.519  1.00  0.00     0.077 A 
HETATM    4  C   UNL     1     -42.418 -54.891  15.268  1.00  0.00     0.040 A 
HETATM    5  C   UNL     1     -43.727 -55.071  14.819  1.00  0.00     0.039 A 
HETATM    6  C   UNL     1     -44.148 -54.520  13.610  1.00  0.00     0.069 A 
HETATM    7  C   UNL     1     -43.246 -53.782  12.844  1.00  0.00     0.049 A 
BRANCH   3   8
HETATM    8  O   UNL     1     -40.247 -53.818  14.920  1.00  0.00    -0.355 OA
HETATM    9  C   UNL     1     -40.093 -52.896  15.992  1.00  0.00     0.210 C 
ENDBRANCH   3   8
BRANCH   6  10
HETATM   10  O   UNL     1     -45.472 -54.702  13.327  1.00  0.00    -0.356 OA
HETATM   11  C   UNL     1     -46.366 -54.703  14.433  1.00  0.00     0.210 C 
ENDBRANCH   6  10
ENDBRANCH   1   2
BRANCH   1  12
HETATM   12  O   UNL     1     -40.678 -53.388  11.237  1.00  0.00    -0.389 OA
HETATM   13  H   UNL     1     -41.359 -53.140  10.585  1.00  0.00     0.210 HD
ENDBRANCH   1  12
BRANCH   1  14
HETATM   14  C   UNL     1     -41.576 -51.311  12.160  1.00  0.00     0.166 C 
BRANCH  14  15
HETATM   15  N   UNL     1     -41.363 -50.364  13.240  1.00  0.00    -0.338 N 
HETATM   16  C   UNL     1     -40.294 -49.514  13.332  1.00  0.00     0.184 A 
HETATM   17  N   UNL     1     -40.412 -48.689  14.349  1.00  0.00    -0.350 N 
HETATM   18  C   UNL     1     -41.601 -49.033  14.947  1.00  0.00     0.060 A 
ATOM     19  HN  UNL     1     -39.764 -47.955  14.631  1.00  0.00     0.166 HD
HETATM   20  C   UNL     1     -42.220 -48.472  16.073  1.00  0.00     0.032 A 
HETATM   21  C   UNL     1     -42.218 -50.090  14.278  1.00  0.00     0.062 A 
HETATM   22  C   UNL     1     -43.446 -48.999  16.497  1.00  0.00     0.002 A 
HETATM   23  C   UNL     1     -44.042 -50.064  15.815  1.00  0.00     0.002 A 
HETATM   24  C   UNL     1     -43.440 -50.634  14.688  1.00  0.00     0.032 A 
ENDBRANCH  14  15
ENDBRANCH   1  14
TORSDOF 6
ENDMDL
MODEL 9
REMARK VINA RESULT:      -5.6      3.421      7.017
REMARK  6 active torsions:
REMARK  status: ('A' for Active; 'I' for Inactive)
REMARK    1  A    between atoms: O_2  and  C_3 
REMARK    2  A    between atoms: C_6  and  O_7 
REMARK    3  A    between atoms: C_9  and  C_11 
REMARK    4  A    between atoms: C_11  and  O_12 
REMARK    5  A    between atoms: C_11  and  C_13 
REMARK    6  A    between atoms: C_13  and  N_14 
ROOT
HETATM    1  C   UNL     1     -41.909 -48.917  11.336  1.00  0.00     0.172 C 
ENDROOT
BRANCH   1   2
HETATM    2  C   UNL     1     -41.800 -47.427  11.644  1.00  0.00     0.008 A 
HETATM    3  C   UNL     1     -42.191 -46.445  10.708  1.00  0.00     0.077 A 
HETATM    4  C   UNL     1     -42.116 -45.093  11.047  1.00  0.00     0.040 A 
HETATM    5  C   UNL     1     -41.693 -44.712  12.321  1.00  0.00     0.039 A 
HETATM    6  C   UNL     1     -41.316 -45.667  13.262  1.00  0.00     0.069 A 
HETATM    7  C   UNL     1     -41.364 -47.020  12.922  1.00  0.00     0.049 A 
BRANCH   3   8
HETATM    8  O   UNL     1     -42.684 -46.921   9.523  1.00  0.00    -0.355 OA
HETATM    9  C   UNL     1     -43.894 -46.360   9.029  1.00  0.00     0.210 C 
ENDBRANCH   3   8
BRANCH   6  10
HETATM   10  O   UNL     1     -41.001 -45.166  14.494  1.00  0.00    -0.356 OA
HETATM   11  C   UNL     1     -39.618 -45.108  14.823  1.00  0.00     0.210 C 
ENDBRANCH   6  10
ENDBRANCH   1   2
BRANCH   1  12
HETATM   12  O   UNL     1     -41.024 -49.228  10.254  1.00  0.00    -0.389 OA
HETATM   13  H   UNL     1     -41.152 -50.170  10.039  1.00  0.00     0.210 HD
ENDBRANCH   1  12
BRANCH   1  14
HETATM   14  C   UNL     1     -41.608 -49.805  12.556  1.00  0.00     0.166 C 
BRANCH  14  15
HETATM   15  N   UNL     1     -42.194 -51.130  12.452  1.00  0.00    -0.338 N 
HETATM   16  C   UNL     1     -41.527 -52.245  12.018  1.00  0.00     0.184 A 
HETATM   17  N   UNL     1     -42.262 -53.328  12.134  1.00  0.00    -0.350 N 
HETATM   18  C   UNL     1     -43.459 -52.891  12.649  1.00  0.00     0.060 A 
ATOM     19  HN  UNL     1     -42.001 -54.284  11.894  1.00  0.00     0.166 HD
HETATM   20  C   UNL     1     -44.604 -53.630  12.977  1.00  0.00     0.032 A 
HETATM   21  C   UNL     1     -43.450 -51.511  12.851  1.00  0.00     0.062 A 
HETATM   22  C   UNL     1     -45.714 -52.953  13.497  1.00  0.00     0.002 A 
HETATM   23  C   UNL     1     -45.685 -51.569  13.684  1.00  0.00     0.002 A 
HETATM   24  C   UNL     1     -44.549 -50.815  13.365  1.00  0.00     0.032 A 
ENDBRANCH  14  15
ENDBRANCH   1  14
TORSDOF 6
ENDMDL
