MODEL 1
REMARK VINA RESULT:      -6.8      0.000      0.000
REMARK  5 active torsions:
REMARK  status: ('A' for Active; 'I' for Inactive)
REMARK    1  A    between atoms: C_2  and  N_3 
REMARK    2  A    between atoms: C_2  and  C_18 
REMARK       I    between atoms: N_3  and  C_4 
REMARK    3  A    between atoms: C_4  and  C_6 
REMARK    4  A    between atoms: C_6  and  N_7 
REMARK    5  A    between atoms: C_9  and  C_14 
ROOT
HETATM    1  N   UNL     1     -41.579 -49.882  12.353  1.00  0.00    -0.355 N 
HETATM    2  C   UNL     1     -41.689 -48.806  11.493  1.00  0.00     0.236 C 
HETATM    3  O   UNL     1     -41.129 -48.752  10.400  1.00  0.00    -0.272 OA
HETATM    4  H   UNL     1     -42.183 -49.921  13.169  1.00  0.00     0.162 HD
ENDROOT
BRANCH   2   5
HETATM    5  C   UNL     1     -42.611 -47.684  11.963  1.00  0.00     0.234 C 
BRANCH   5   6
HETATM    6  N   UNL     1     -43.405 -47.189  10.841  1.00  0.00    -0.315 N 
HETATM    7  C   UNL     1     -44.528 -47.893  10.430  1.00  0.00     0.110 A 
HETATM    8  C   UNL     1     -45.298 -47.465   9.411  1.00  0.00     0.063 A 
HETATM    9  C   UNL     1     -44.930 -46.231   8.739  1.00  0.00     0.023 A 
HETATM   10  C   UNL     1     -43.869 -45.515   9.134  1.00  0.00     0.075 A 
HETATM   11  C   UNL     1     -43.032 -45.978  10.274  1.00  0.00     0.247 A 
HETATM   12  O   UNL     1     -42.079 -45.299  10.649  1.00  0.00    -0.268 OA
BRANCH   8  13
HETATM   13  C   UNL     1     -46.511 -48.228   8.957  1.00  0.00     0.418 C 
HETATM   14  F   UNL     1     -47.647 -47.482   8.984  1.00  0.00    -0.166 F 
HETATM   15  F   UNL     1     -46.371 -48.672   7.681  1.00  0.00    -0.166 F 
HETATM   16  F   UNL     1     -46.743 -49.319   9.731  1.00  0.00    -0.166 F 
ENDBRANCH   8  13
ENDBRANCH   5   6
ENDBRANCH   2   5
BRANCH   1  17
HETATM   17  C   UNL     1     -40.696 -51.010  12.061  1.00  0.00     0.084 C 
HETATM   18  C   UNL     1     -41.510 -52.302  11.946  1.00  0.00     0.032 C 
BRANCH  17  19
HETATM   19  C   UNL     1     -39.583 -51.160  13.124  1.00  0.00     0.012 C 
HETATM   20  C   UNL     1     -39.668 -50.195  14.332  1.00  0.00     0.011 C 
HETATM   21  C   UNL     1     -38.291 -49.514  14.341  1.00  0.00    -0.014 C 
HETATM   22  C   UNL     1     -38.211 -48.560  13.135  1.00  0.00     0.005 C 
HETATM   23  C   UNL     1     -37.377 -50.659  13.918  1.00  0.00     0.010 C 
HETATM   24  C   UNL     1     -38.006 -49.516  11.952  1.00  0.00     0.005 C 
HETATM   25  C   UNL     1     -38.136 -50.901  12.609  1.00  0.00    -0.008 C 
ENDBRANCH  17  19
ENDBRANCH   1  17
TORSDOF 5
ENDMDL
MODEL 2
REMARK VINA RESULT:      -6.8      5.874      8.594
REMARK  5 active torsions:
REMARK  status: ('A' for Active; 'I' for Inactive)
REMARK    1  A    between atoms: C_2  and  N_3 
REMARK    2  A    between atoms: C_2  and  C_18 
REMARK       I    between atoms: N_3  and  C_4 
REMARK    3  A    between atoms: C_4  and  C_6 
REMARK    4  A    between atoms: C_6  and  N_7 
REMARK    5  A    between atoms: C_9  and  C_14 
ROOT
HETATM    1  N   UNL     1     -44.734 -51.985  12.572  1.00  0.00    -0.355 N 
HETATM    2  C   UNL     1     -43.899 -53.067  12.358  1.00  0.00     0.236 C 
HETATM    3  O   UNL     1     -44.294 -54.230  12.320  1.00  0.00    -0.272 OA
HETATM    4  H   UNL     1     -44.364 -51.048  12.445  1.00  0.00     0.162 HD
ENDROOT
BRANCH   2   5
HETATM    5  C   UNL     1     -42.433 -52.722  12.114  1.00  0.00     0.234 C 
BRANCH   5   6
HETATM    6  N   UNL     1     -41.616 -53.208  13.222  1.00  0.00    -0.315 N 
HETATM    7  C   UNL     1     -42.152 -54.115  14.125  1.00  0.00     0.110 A 
HETATM    8  C   UNL     1     -41.430 -54.602  15.152  1.00  0.00     0.063 A 
HETATM    9  C   UNL     1     -40.054 -54.158  15.302  1.00  0.00     0.023 A 
HETATM   10  C   UNL     1     -39.502 -53.307  14.427  1.00  0.00     0.075 A 
HETATM   11  C   UNL     1     -40.294 -52.787  13.281  1.00  0.00     0.247 A 
HETATM   12  O   UNL     1     -39.769 -52.031  12.467  1.00  0.00    -0.268 OA
BRANCH   8  13
HETATM   13  C   UNL     1     -42.008 -55.580  16.138  1.00  0.00     0.418 C 
HETATM   14  F   UNL     1     -42.516 -54.978  17.245  1.00  0.00    -0.166 F 
HETATM   15  F   UNL     1     -43.023 -56.298  15.589  1.00  0.00    -0.166 F 
HETATM   16  F   UNL     1     -41.082 -56.473  16.569  1.00  0.00    -0.166 F 
ENDBRANCH   8  13
ENDBRANCH   5   6
ENDBRANCH   2   5
BRANCH   1  17
HETATM   17  C   UNL     1     -46.155 -52.161  12.867  1.00  0.00     0.084 C 
HETATM   18  C   UNL     1     -47.005 -51.598  11.725  1.00  0.00     0.032 C 
BRANCH  17  19
HETATM   19  C   UNL     1     -46.548 -51.507  14.212  1.00  0.00     0.012 C 
HETATM   20  C   UNL     1     -45.392 -50.851  15.008  1.00  0.00     0.011 C 
HETATM   21  C   UNL     1     -45.477 -51.530  16.384  1.00  0.00    -0.014 C 
HETATM   22  C   UNL     1     -45.016 -52.992  16.235  1.00  0.00     0.005 C 
HETATM   23  C   UNL     1     -46.985 -51.676  16.564  1.00  0.00     0.010 C 
HETATM   24  C   UNL     1     -46.216 -53.664  15.553  1.00  0.00     0.005 C 
HETATM   25  C   UNL     1     -47.154 -52.479  15.269  1.00  0.00    -0.008 C 
ENDBRANCH  17  19
ENDBRANCH   1  17
TORSDOF 5
ENDMDL
MODEL 3
REMARK VINA RESULT:      -6.6      2.618      6.432
REMARK  5 active torsions:
REMARK  status: ('A' for Active; 'I' for Inactive)
REMARK    1  A    between atoms: C_2  and  N_3 
REMARK    2  A    between atoms: C_2  and  C_18 
REMARK       I    between atoms: N_3  and  C_4 
REMARK    3  A    between atoms: C_4  and  C_6 
REMARK    4  A    between atoms: C_6  and  N_7 
REMARK    5  A    between atoms: C_9  and  C_14 
ROOT
HETATM    1  N   UNL     1     -41.672 -48.089  11.799  1.00  0.00    -0.355 N 
HETATM    2  C   UNL     1     -41.106 -49.350  11.780  1.00  0.00     0.236 C 
HETATM    3  O   UNL     1     -40.581 -49.843  10.783  1.00  0.00    -0.272 OA
HETATM    4  H   UNL     1     -41.954 -47.691  12.690  1.00  0.00     0.162 HD
ENDROOT
BRANCH   2   5
HETATM    5  C   UNL     1     -41.121 -50.093  13.113  1.00  0.00     0.234 C 
BRANCH   5   6
HETATM    6  N   UNL     1     -42.066 -51.205  13.051  1.00  0.00    -0.315 N 
HETATM    7  C   UNL     1     -43.425 -50.962  13.191  1.00  0.00     0.110 A 
HETATM    8  C   UNL     1     -44.333 -51.954  13.125  1.00  0.00     0.063 A 
HETATM    9  C   UNL     1     -43.860 -53.308  12.896  1.00  0.00     0.023 A 
HETATM   10  C   UNL     1     -42.557 -53.569  12.727  1.00  0.00     0.075 A 
HETATM   11  C   UNL     1     -41.557 -52.468  12.779  1.00  0.00     0.247 A 
HETATM   12  O   UNL     1     -40.368 -52.713  12.591  1.00  0.00    -0.268 OA
BRANCH   8  13
HETATM   13  C   UNL     1     -45.806 -51.696  13.284  1.00  0.00     0.418 C 
HETATM   14  F   UNL     1     -46.533 -52.836  13.408  1.00  0.00    -0.166 F 
HETATM   15  F   UNL     1     -46.064 -50.951  14.390  1.00  0.00    -0.166 F 
HETATM   16  F   UNL     1     -46.319 -51.019  12.225  1.00  0.00    -0.166 F 
ENDBRANCH   8  13
ENDBRANCH   5   6
ENDBRANCH   2   5
BRANCH   1  17
HETATM   17  C   UNL     1     -41.772 -47.276  10.588  1.00  0.00     0.084 C 
HETATM   18  C   UNL     1     -40.735 -46.150  10.619  1.00  0.00     0.032 C 
BRANCH  17  19
HETATM   19  C   UNL     1     -43.195 -46.700  10.398  1.00  0.00     0.012 C 
HETATM   20  C   UNL     1     -44.351 -47.731  10.427  1.00  0.00     0.011 C 
HETATM   21  C   UNL     1     -45.085 -47.481   9.101  1.00  0.00    -0.014 C 
HETATM   22  C   UNL     1     -44.195 -47.984   7.949  1.00  0.00     0.005 C 
HETATM   23  C   UNL     1     -44.974 -45.966   8.968  1.00  0.00     0.010 C 
HETATM   24  C   UNL     1     -43.118 -46.896   7.845  1.00  0.00     0.005 C 
HETATM   25  C   UNL     1     -43.443 -45.981   9.038  1.00  0.00    -0.008 C 
ENDBRANCH  17  19
ENDBRANCH   1  17
TORSDOF 5
ENDMDL
MODEL 4
REMARK VINA RESULT:      -6.5      3.742      6.112
REMARK  5 active torsions:
REMARK  status: ('A' for Active; 'I' for Inactive)
REMARK    1  A    between atoms: C_2  and  N_3 
REMARK    2  A    between atoms: C_2  and  C_18 
REMARK       I    between atoms: N_3  and  C_4 
REMARK    3  A    between atoms: C_4  and  C_6 
REMARK    4  A    between atoms: C_6  and  N_7 
REMARK    5  A    between atoms: C_9  and  C_14 
ROOT
HETATM    1  N   UNL     1     -42.570 -53.627  13.531  1.00  0.00    -0.355 N 
HETATM    2  C   UNL     1     -41.469 -52.796  13.618  1.00  0.00     0.236 C 
HETATM    3  O   UNL     1     -41.127 -52.230  14.655  1.00  0.00    -0.272 OA
HETATM    4  H   UNL     1     -42.707 -54.173  12.686  1.00  0.00     0.162 HD
ENDROOT
BRANCH   2   5
HETATM    5  C   UNL     1     -40.650 -52.660  12.338  1.00  0.00     0.234 C 
BRANCH   5   6
HETATM    6  N   UNL     1     -40.291 -51.261  12.123  1.00  0.00    -0.315 N 
HETATM    7  C   UNL     1     -41.246 -50.370  11.656  1.00  0.00     0.110 A 
HETATM    8  C   UNL     1     -40.963 -49.068  11.460  1.00  0.00     0.063 A 
HETATM    9  C   UNL     1     -39.619 -48.601  11.752  1.00  0.00     0.023 A 
HETATM   10  C   UNL     1     -38.685 -49.433  12.233  1.00  0.00     0.075 A 
HETATM   11  C   UNL     1     -39.005 -50.866  12.470  1.00  0.00     0.247 A 
HETATM   12  O   UNL     1     -38.151 -51.613  12.940  1.00  0.00    -0.268 OA
BRANCH   8  13
HETATM   13  C   UNL     1     -41.993 -48.099  10.947  1.00  0.00     0.418 C 
HETATM   14  F   UNL     1     -41.705 -46.808  11.252  1.00  0.00    -0.166 F 
HETATM   15  F   UNL     1     -42.104 -48.161   9.594  1.00  0.00    -0.166 F 
HETATM   16  F   UNL     1     -43.226 -48.354  11.454  1.00  0.00    -0.166 F 
ENDBRANCH   8  13
ENDBRANCH   5   6
ENDBRANCH   2   5
BRANCH   1  17
HETATM   17  C   UNL     1     -43.477 -53.818  14.662  1.00  0.00     0.084 C 
HETATM   18  C   UNL     1     -43.465 -55.283  15.107  1.00  0.00     0.032 C 
BRANCH  17  19
HETATM   19  C   UNL     1     -44.917 -53.362  14.329  1.00  0.00     0.012 C 
HETATM   20  C   UNL     1     -45.181 -52.985  12.849  1.00  0.00     0.011 C 
HETATM   21  C   UNL     1     -45.752 -51.562  12.941  1.00  0.00    -0.014 C 
HETATM   22  C   UNL     1     -44.615 -50.606  13.349  1.00  0.00     0.005 C 
HETATM   23  C   UNL     1     -46.587 -51.645  14.214  1.00  0.00     0.010 C 
HETATM   24  C   UNL     1     -44.439 -50.899  14.845  1.00  0.00     0.005 C 
HETATM   25  C   UNL     1     -45.396 -52.081  15.075  1.00  0.00    -0.008 C 
ENDBRANCH  17  19
ENDBRANCH   1  17
TORSDOF 5
ENDMDL
MODEL 5
REMARK VINA RESULT:      -6.2      2.917      4.634
REMARK  5 active torsions:
REMARK  status: ('A' for Active; 'I' for Inactive)
REMARK    1  A    between atoms: C_2  and  N_3 
REMARK    2  A    between atoms: C_2  and  C_18 
REMARK       I    between atoms: N_3  and  C_4 
REMARK    3  A    between atoms: C_4  and  C_6 
REMARK    4  A    between atoms: C_6  and  N_7 
REMARK    5  A    between atoms: C_9  and  C_14 
ROOT
HETATM    1  N   UNL     1     -42.136 -50.936  13.017  1.00  0.00    -0.355 N 
HETATM    2  C   UNL     1     -41.715 -49.631  12.847  1.00  0.00     0.236 C 
HETATM    3  O   UNL     1     -41.861 -48.755  13.697  1.00  0.00    -0.272 OA
HETATM    4  H   UNL     1     -41.853 -51.635  12.337  1.00  0.00     0.162 HD
ENDROOT
BRANCH   2   5
HETATM    5  C   UNL     1     -40.994 -49.342  11.533  1.00  0.00     0.234 C 
BRANCH   5   6
HETATM    6  N   UNL     1     -41.510 -48.111  10.941  1.00  0.00    -0.315 N 
HETATM    7  C   UNL     1     -42.756 -48.111  10.330  1.00  0.00     0.110 A 
HETATM    8  C   UNL     1     -43.278 -46.995   9.786  1.00  0.00     0.063 A 
HETATM    9  C   UNL     1     -42.505 -45.767   9.854  1.00  0.00     0.023 A 
HETATM   10  C   UNL     1     -41.313 -45.731  10.465  1.00  0.00     0.075 A 
HETATM   11  C   UNL     1     -40.747 -46.959  11.084  1.00  0.00     0.247 A 
HETATM   12  O   UNL     1     -39.668 -46.909  11.669  1.00  0.00    -0.268 OA
BRANCH   8  13
HETATM   13  C   UNL     1     -44.624 -46.992   9.116  1.00  0.00     0.418 C 
HETATM   14  F   UNL     1     -44.985 -45.766   8.657  1.00  0.00    -0.166 F 
HETATM   15  F   UNL     1     -44.648 -47.828   8.045  1.00  0.00    -0.166 F 
HETATM   16  F   UNL     1     -45.609 -47.400   9.956  1.00  0.00    -0.166 F 
ENDBRANCH   8  13
ENDBRANCH   5   6
ENDBRANCH   2   5
BRANCH   1  17
HETATM   17  C   UNL     1     -42.882 -51.352  14.204  1.00  0.00     0.084 C 
HETATM   18  C   UNL     1     -41.923 -51.600  15.371  1.00  0.00     0.032 C 
BRANCH  17  19
HETATM   19  C   UNL     1     -43.744 -52.607  13.931  1.00  0.00     0.012 C 
HETATM   20  C   UNL     1     -44.149 -52.840  12.454  1.00  0.00     0.011 C 
HETATM   21  C   UNL     1     -45.680 -52.950  12.518  1.00  0.00    -0.014 C 
HETATM   22  C   UNL     1     -46.257 -51.555  12.824  1.00  0.00     0.005 C 
HETATM   23  C   UNL     1     -45.882 -53.688  13.837  1.00  0.00     0.010 C 
HETATM   24  C   UNL     1     -45.958 -51.379  14.319  1.00  0.00     0.005 C 
HETATM   25  C   UNL     1     -45.126 -52.630  14.649  1.00  0.00    -0.008 C 
ENDBRANCH  17  19
ENDBRANCH   1  17
TORSDOF 5
ENDMDL
MODEL 6
REMARK VINA RESULT:      -6.1      6.108      8.878
REMARK  5 active torsions:
REMARK  status: ('A' for Active; 'I' for Inactive)
REMARK    1  A    between atoms: C_2  and  N_3 
REMARK    2  A    between atoms: C_2  and  C_18 
REMARK       I    between atoms: N_3  and  C_4 
REMARK    3  A    between atoms: C_4  and  C_6 
REMARK    4  A    between atoms: C_6  and  N_7 
REMARK    5  A    between atoms: C_9  and  C_14 
ROOT
HETATM    1  N   UNL     1     -45.456 -51.995  16.667  1.00  0.00    -0.355 N 
HETATM    2  C   UNL     1     -44.273 -51.368  17.007  1.00  0.00     0.236 C 
HETATM    3  O   UNL     1     -44.076 -50.164  16.856  1.00  0.00    -0.272 OA
HETATM    4  H   UNL     1     -45.600 -52.959  16.953  1.00  0.00     0.162 HD
ENDROOT
BRANCH   2   5
HETATM    5  C   UNL     1     -43.216 -52.266  17.644  1.00  0.00     0.234 C 
BRANCH   5   6
HETATM    6  N   UNL     1     -42.678 -53.187  16.646  1.00  0.00    -0.315 N 
HETATM    7  C   UNL     1     -41.570 -52.819  15.896  1.00  0.00     0.110 A 
HETATM    8  C   UNL     1     -41.032 -53.642  14.977  1.00  0.00     0.063 A 
HETATM    9  C   UNL     1     -41.637 -54.949  14.782  1.00  0.00     0.023 A 
HETATM   10  C   UNL     1     -42.689 -55.342  15.513  1.00  0.00     0.075 A 
HETATM   11  C   UNL     1     -43.269 -54.439  16.542  1.00  0.00     0.247 A 
HETATM   12  O   UNL     1     -44.213 -54.822  17.229  1.00  0.00    -0.268 OA
BRANCH   8  13
HETATM   13  C   UNL     1     -39.836 -53.245  14.157  1.00  0.00     0.418 C 
HETATM   14  F   UNL     1     -40.165 -52.835  12.904  1.00  0.00    -0.166 F 
HETATM   15  F   UNL     1     -39.157 -52.219  14.733  1.00  0.00    -0.166 F 
HETATM   16  F   UNL     1     -38.956 -54.268  14.015  1.00  0.00    -0.166 F 
ENDBRANCH   8  13
ENDBRANCH   5   6
ENDBRANCH   2   5
BRANCH   1  17
HETATM   17  C   UNL     1     -46.543 -51.275  16.005  1.00  0.00     0.084 C 
HETATM   18  C   UNL     1     -47.767 -51.207  16.923  1.00  0.00     0.032 C 
BRANCH  17  19
HETATM   19  C   UNL     1     -46.915 -51.916  14.648  1.00  0.00     0.012 C 
HETATM   20  C   UNL     1     -46.448 -53.378  14.440  1.00  0.00     0.011 C 
HETATM   21  C   UNL     1     -45.648 -53.313  13.129  1.00  0.00    -0.014 C 
HETATM   22  C   UNL     1     -44.333 -52.559  13.398  1.00  0.00     0.005 C 
HETATM   23  C   UNL     1     -46.454 -52.298  12.326  1.00  0.00     0.010 C 
HETATM   24  C   UNL     1     -44.786 -51.095  13.483  1.00  0.00     0.005 C 
HETATM   25  C   UNL     1     -46.318 -51.208  13.395  1.00  0.00    -0.008 C 
ENDBRANCH  17  19
ENDBRANCH   1  17
TORSDOF 5
ENDMDL
MODEL 7
REMARK VINA RESULT:      -6.1      4.834      7.396
REMARK  5 active torsions:
REMARK  status: ('A' for Active; 'I' for Inactive)
REMARK    1  A    between atoms: C_2  and  N_3 
REMARK    2  A    between atoms: C_2  and  C_18 
REMARK       I    between atoms: N_3  and  C_4 
REMARK    3  A    between atoms: C_4  and  C_6 
REMARK    4  A    between atoms: C_6  and  N_7 
REMARK    5  A    between atoms: C_9  and  C_14 
ROOT
HETATM    1  N   UNL     1     -41.898 -50.586  11.777  1.00  0.00    -0.355 N 
HETATM    2  C   UNL     1     -42.681 -51.121  12.783  1.00  0.00     0.236 C 
HETATM    3  O   UNL     1     -43.024 -50.493  13.782  1.00  0.00    -0.272 OA
HETATM    4  H   UNL     1     -41.776 -51.112  10.917  1.00  0.00     0.162 HD
ENDROOT
BRANCH   2   5
HETATM    5  C   UNL     1     -43.151 -52.555  12.552  1.00  0.00     0.234 C 
BRANCH   5   6
HETATM    6  N   UNL     1     -42.584 -53.434  13.571  1.00  0.00    -0.315 N 
HETATM    7  C   UNL     1     -41.211 -53.461  13.770  1.00  0.00     0.110 A 
HETATM    8  C   UNL     1     -40.647 -54.244  14.708  1.00  0.00     0.063 A 
HETATM    9  C   UNL     1     -41.514 -55.074  15.528  1.00  0.00     0.023 A 
HETATM   10  C   UNL     1     -42.845 -55.046  15.378  1.00  0.00     0.075 A 
HETATM   11  C   UNL     1     -43.468 -54.164  14.355  1.00  0.00     0.247 A 
HETATM   12  O   UNL     1     -44.691 -54.122  14.247  1.00  0.00    -0.268 OA
BRANCH   8  13
HETATM   13  C   UNL     1     -39.159 -54.282  14.923  1.00  0.00     0.418 C 
HETATM   14  F   UNL     1     -38.457 -53.849  13.844  1.00  0.00    -0.166 F 
HETATM   15  F   UNL     1     -38.787 -53.496  15.967  1.00  0.00    -0.166 F 
HETATM   16  F   UNL     1     -38.718 -55.536  15.198  1.00  0.00    -0.166 F 
ENDBRANCH   8  13
ENDBRANCH   5   6
ENDBRANCH   2   5
BRANCH   1  17
HETATM   17  C   UNL     1     -41.334 -49.240  11.879  1.00  0.00     0.084 C 
HETATM   18  C   UNL     1     -41.735 -48.406  10.659  1.00  0.00     0.032 C 
BRANCH  17  19
HETATM   19  C   UNL     1     -39.796 -49.271  12.037  1.00  0.00     0.012 C 
HETATM   20  C   UNL     1     -39.166 -50.671  12.242  1.00  0.00     0.011 C 
HETATM   21  C   UNL     1     -38.359 -50.512  13.540  1.00  0.00    -0.014 C 
HETATM   22  C   UNL     1     -39.347 -50.396  14.716  1.00  0.00     0.005 C 
HETATM   23  C   UNL     1     -37.836 -49.086  13.405  1.00  0.00     0.010 C 
HETATM   24  C   UNL     1     -39.879 -48.963  14.578  1.00  0.00     0.005 C 
HETATM   25  C   UNL     1     -39.240 -48.487  13.263  1.00  0.00    -0.008 C 
ENDBRANCH  17  19
ENDBRANCH   1  17
TORSDOF 5
ENDMDL
MODEL 8
REMARK VINA RESULT:      -6.0      5.314      7.992
REMARK  5 active torsions:
REMARK  status: ('A' for Active; 'I' for Inactive)
REMARK    1  A    between atoms: C_2  and  N_3 
REMARK    2  A    between atoms: C_2  and  C_18 
REMARK       I    between atoms: N_3  and  C_4 
REMARK    3  A    between atoms: C_4  and  C_6 
REMARK    4  A    between atoms: C_6  and  N_7 
REMARK    5  A    between atoms: C_9  and  C_14 
ROOT
HETATM    1  N   UNL     1     -44.942 -52.578  12.587  1.00  0.00    -0.355 N 
HETATM    2  C   UNL     1     -44.395 -53.840  12.721  1.00  0.00     0.236 C 
HETATM    3  O   UNL     1     -45.057 -54.842  12.986  1.00  0.00    -0.272 OA
HETATM    4  H   UNL     1     -44.361 -51.828  12.225  1.00  0.00     0.162 HD
ENDROOT
BRANCH   2   5
HETATM    5  C   UNL     1     -42.894 -53.933  12.462  1.00  0.00     0.234 C 
BRANCH   5   6
HETATM    6  N   UNL     1     -42.162 -53.251  13.526  1.00  0.00    -0.315 N 
HETATM    7  C   UNL     1     -41.785 -51.926  13.361  1.00  0.00     0.110 A 
HETATM    8  C   UNL     1     -41.123 -51.253  14.321  1.00  0.00     0.063 A 
HETATM    9  C   UNL     1     -40.809 -51.947  15.559  1.00  0.00     0.023 A 
HETATM   10  C   UNL     1     -41.188 -53.216  15.758  1.00  0.00     0.075 A 
HETATM   11  C   UNL     1     -41.937 -53.951  14.704  1.00  0.00     0.247 A 
HETATM   12  O   UNL     1     -42.308 -55.105  14.908  1.00  0.00    -0.268 OA
BRANCH   8  13
HETATM   13  C   UNL     1     -40.705 -49.820  14.144  1.00  0.00     0.418 C 
HETATM   14  F   UNL     1     -40.305 -49.237  15.303  1.00  0.00    -0.166 F 
HETATM   15  F   UNL     1     -39.665 -49.709  13.277  1.00  0.00    -0.166 F 
HETATM   16  F   UNL     1     -41.712 -49.055  13.650  1.00  0.00    -0.166 F 
ENDBRANCH   8  13
ENDBRANCH   5   6
ENDBRANCH   2   5
BRANCH   1  17
HETATM   17  C   UNL     1     -46.358 -52.325  12.850  1.00  0.00     0.084 C 
HETATM   18  C   UNL     1     -47.023 -51.710  11.615  1.00  0.00     0.032 C 
BRANCH  17  19
HETATM   19  C   UNL     1     -46.560 -51.418  14.086  1.00  0.00     0.012 C 
HETATM   20  C   UNL     1     -45.273 -50.810  14.697  1.00  0.00     0.011 C 
HETATM   21  C   UNL     1     -45.339 -51.244  16.169  1.00  0.00    -0.014 C 
HETATM   22  C   UNL     1     -45.082 -52.760  16.243  1.00  0.00     0.005 C 
HETATM   23  C   UNL     1     -46.834 -51.148  16.452  1.00  0.00     0.010 C 
HETATM   24  C   UNL     1     -46.406 -53.359  15.749  1.00  0.00     0.005 C 
HETATM   25  C   UNL     1     -47.203 -52.115  15.322  1.00  0.00    -0.008 C 
ENDBRANCH  17  19
ENDBRANCH   1  17
TORSDOF 5
ENDMDL
MODEL 9
REMARK VINA RESULT:      -6.0      3.155      6.192
REMARK  5 active torsions:
REMARK  status: ('A' for Active; 'I' for Inactive)
REMARK    1  A    between atoms: C_2  and  N_3 
REMARK    2  A    between atoms: C_2  and  C_18 
REMARK       I    between atoms: N_3  and  C_4 
REMARK    3  A    between atoms: C_4  and  C_6 
REMARK    4  A    between atoms: C_6  and  N_7 
REMARK    5  A    between atoms: C_9  and  C_14 
ROOT
HETATM    1  N   UNL     1     -40.680 -50.541  11.211  1.00  0.00    -0.355 N 
HETATM    2  C   UNL     1     -40.796 -51.353  12.323  1.00  0.00     0.236 C 
HETATM    3  O   UNL     1     -40.644 -50.951  13.475  1.00  0.00    -0.272 OA
HETATM    4  H   UNL     1     -40.961 -50.906  10.306  1.00  0.00     0.162 HD
ENDROOT
BRANCH   2   5
HETATM    5  C   UNL     1     -41.184 -52.801  12.038  1.00  0.00     0.234 C 
BRANCH   5   6
HETATM    6  N   UNL     1     -42.309 -53.190  12.884  1.00  0.00    -0.315 N 
HETATM    7  C   UNL     1     -43.570 -52.669  12.633  1.00  0.00     0.110 A 
HETATM    8  C   UNL     1     -44.639 -53.013  13.377  1.00  0.00     0.063 A 
HETATM    9  C   UNL     1     -44.449 -53.958  14.464  1.00  0.00     0.023 A 
HETATM   10  C   UNL     1     -43.248 -54.501  14.709  1.00  0.00     0.075 A 
HETATM   11  C   UNL     1     -42.074 -54.136  13.873  1.00  0.00     0.247 A 
HETATM   12  O   UNL     1     -40.984 -54.663  14.086  1.00  0.00    -0.268 OA
BRANCH   8  13
HETATM   13  C   UNL     1     -46.006 -52.445  13.114  1.00  0.00     0.418 C 
HETATM   14  F   UNL     1     -46.387 -52.559  11.815  1.00  0.00    -0.166 F 
HETATM   15  F   UNL     1     -46.957 -53.075  13.852  1.00  0.00    -0.166 F 
HETATM   16  F   UNL     1     -46.076 -51.126  13.427  1.00  0.00    -0.166 F 
ENDBRANCH   8  13
ENDBRANCH   5   6
ENDBRANCH   2   5
BRANCH   1  17
HETATM   17  C   UNL     1     -40.269 -49.142  11.323  1.00  0.00     0.084 C 
HETATM   18  C   UNL     1     -38.891 -49.048  11.984  1.00  0.00     0.032 C 
BRANCH  17  19
HETATM   19  C   UNL     1     -41.305 -48.298  12.101  1.00  0.00     0.012 C 
HETATM   20  C   UNL     1     -42.758 -48.351  11.567  1.00  0.00     0.011 C 
HETATM   21  C   UNL     1     -43.110 -46.872  11.345  1.00  0.00    -0.014 C 
HETATM   22  C   UNL     1     -42.309 -46.357  10.134  1.00  0.00     0.005 C 
HETATM   23  C   UNL     1     -42.399 -46.206  12.518  1.00  0.00     0.010 C 
HETATM   24  C   UNL     1     -40.893 -46.192  10.702  1.00  0.00     0.005 C 
HETATM   25  C   UNL     1     -41.028 -46.765  12.123  1.00  0.00    -0.008 C 
ENDBRANCH  17  19
ENDBRANCH   1  17
TORSDOF 5
ENDMDL
