MODEL 1
REMARK VINA RESULT:      -6.5      0.000      0.000
REMARK  4 active torsions:
REMARK  status: ('A' for Active; 'I' for Inactive)
REMARK    1  A    between atoms: O_1  and  C_2 
REMARK    2  A    between atoms: C_2  and  C_3 
REMARK    3  A    between atoms: C_3  and  N_4 
REMARK       I    between atoms: N_4  and  C_5 
REMARK       I    between atoms: C_5  and  N_7 
REMARK    4  A    between atoms: N_7  and  C_8 
ROOT
HETATM    1  N   UNL     1     -40.562 -50.391  11.061  1.00  0.00    -0.340 N 
HETATM    2  C   UNL     1     -41.386 -49.287  11.118  1.00  0.00     0.321 C 
HETATM    3  O   UNL     1     -41.807 -48.839  12.178  1.00  0.00    -0.247 OA
HETATM    4  N   UNL     1     -41.594 -48.757   9.873  1.00  0.00    -0.295 N 
HETATM    5  H   UNL     1     -40.589 -50.935  10.208  1.00  0.00     0.164 HD
HETATM    6  H   UNL     1     -40.811 -48.829   9.243  1.00  0.00     0.172 HD
ENDROOT
BRANCH   1   7
HETATM    7  C   UNL     1     -40.129 -51.039  12.285  1.00  0.00     0.162 C 
BRANCH   7   8
HETATM    8  C   UNL     1     -40.746 -52.443  12.500  1.00  0.00     0.074 C 
HETATM    9  C   UNL     1     -40.078 -53.109  13.718  1.00  0.00     0.039 C 
HETATM   10  C   UNL     1     -40.708 -54.453  14.078  1.00  0.00     0.003 C 
HETATM   11  C   UNL     1     -42.214 -54.328  14.279  1.00  0.00     0.000 C 
HETATM   12  C   UNL     1     -42.889 -53.709  13.061  1.00  0.00     0.003 C 
HETATM   13  C   UNL     1     -42.271 -52.358  12.699  1.00  0.00     0.039 C 
BRANCH   8  14
HETATM   14  O   UNL     1     -40.504 -53.250  11.340  1.00  0.00    -0.388 OA
HETATM   15  H   UNL     1     -40.326 -52.651  10.593  1.00  0.00     0.210 HD
ENDBRANCH   8  14
ENDBRANCH   7   8
ENDBRANCH   1   7
BRANCH   4  16
HETATM   16  C   UNL     1     -42.325 -47.584   9.665  1.00  0.00     0.108 A 
HETATM   17  C   UNL     1     -43.474 -47.553   8.884  1.00  0.00     0.049 A 
HETATM   18  C   UNL     1     -44.166 -46.351   8.762  1.00  0.00     0.005 A 
HETATM   19  C   UNL     1     -43.703 -45.231   9.442  1.00  0.00     0.017 A 
HETATM   20  C   UNL     1     -42.536 -45.351  10.178  1.00  0.00     0.089 A 
HETATM   21  N   UNL     1     -41.818 -46.492  10.273  1.00  0.00    -0.352 N 
ATOM     22  HN  UNL     1     -40.934 -46.526  10.782  1.00  0.00     0.166 HD
ENDBRANCH   4  16
TORSDOF 4
ENDMDL
MODEL 2
REMARK VINA RESULT:      -6.4      3.290      5.046
REMARK  4 active torsions:
REMARK  status: ('A' for Active; 'I' for Inactive)
REMARK    1  A    between atoms: O_1  and  C_2 
REMARK    2  A    between atoms: C_2  and  C_3 
REMARK    3  A    between atoms: C_3  and  N_4 
REMARK       I    between atoms: N_4  and  C_5 
REMARK       I    between atoms: C_5  and  N_7 
REMARK    4  A    between atoms: N_7  and  C_8 
ROOT
HETATM    1  N   UNL     1     -43.245 -52.741  11.962  1.00  0.00    -0.340 N 
HETATM    2  C   UNL     1     -42.123 -52.102  12.448  1.00  0.00     0.321 C 
HETATM    3  O   UNL     1     -41.633 -52.376  13.537  1.00  0.00    -0.247 OA
HETATM    4  N   UNL     1     -41.628 -51.207  11.538  1.00  0.00    -0.295 N 
HETATM    5  H   UNL     1     -43.814 -52.223  11.305  1.00  0.00     0.164 HD
HETATM    6  H   UNL     1     -41.734 -51.476  10.573  1.00  0.00     0.172 HD
ENDROOT
BRANCH   1   7
HETATM    7  C   UNL     1     -43.862 -53.807  12.729  1.00  0.00     0.162 C 
BRANCH   7   8
HETATM    8  C   UNL     1     -45.129 -53.366  13.503  1.00  0.00     0.074 C 
HETATM    9  C   UNL     1     -44.792 -53.250  15.001  1.00  0.00     0.039 C 
HETATM   10  C   UNL     1     -45.954 -52.703  15.829  1.00  0.00     0.003 C 
HETATM   11  C   UNL     1     -46.459 -51.375  15.275  1.00  0.00     0.000 C 
HETATM   12  C   UNL     1     -46.836 -51.493  13.803  1.00  0.00     0.003 C 
HETATM   13  C   UNL     1     -45.674 -52.030  12.965  1.00  0.00     0.039 C 
BRANCH   8  14
HETATM   14  O   UNL     1     -46.156 -54.353  13.334  1.00  0.00    -0.388 OA
HETATM   15  H   UNL     1     -46.956 -54.031  13.785  1.00  0.00     0.210 HD
ENDBRANCH   8  14
ENDBRANCH   7   8
ENDBRANCH   1   7
BRANCH   4  16
HETATM   16  C   UNL     1     -40.447 -50.489  11.752  1.00  0.00     0.108 A 
HETATM   17  C   UNL     1     -40.389 -49.105  11.641  1.00  0.00     0.049 A 
HETATM   18  C   UNL     1     -39.182 -48.465  11.911  1.00  0.00     0.005 A 
HETATM   19  C   UNL     1     -38.086 -49.223  12.304  1.00  0.00     0.017 A 
HETATM   20  C   UNL     1     -38.232 -50.599  12.363  1.00  0.00     0.089 A 
HETATM   21  N   UNL     1     -39.377 -51.250  12.060  1.00  0.00    -0.352 N 
ATOM     22  HN  UNL     1     -39.428 -52.269  12.064  1.00  0.00     0.166 HD
ENDBRANCH   4  16
TORSDOF 4
ENDMDL
MODEL 3
REMARK VINA RESULT:      -6.4      1.283      1.631
REMARK  4 active torsions:
REMARK  status: ('A' for Active; 'I' for Inactive)
REMARK    1  A    between atoms: O_1  and  C_2 
REMARK    2  A    between atoms: C_2  and  C_3 
REMARK    3  A    between atoms: C_3  and  N_4 
REMARK       I    between atoms: N_4  and  C_5 
REMARK       I    between atoms: C_5  and  N_7 
REMARK    4  A    between atoms: N_7  and  C_8 
ROOT
HETATM    1  N   UNL     1     -40.869 -51.296  11.505  1.00  0.00    -0.340 N 
HETATM    2  C   UNL     1     -40.995 -49.943  11.742  1.00  0.00     0.321 C 
HETATM    3  O   UNL     1     -40.822 -49.453  12.852  1.00  0.00    -0.247 OA
HETATM    4  N   UNL     1     -41.263 -49.259  10.587  1.00  0.00    -0.295 N 
HETATM    5  H   UNL     1     -41.398 -51.673  10.731  1.00  0.00     0.164 HD
HETATM    6  H   UNL     1     -40.830 -49.636   9.758  1.00  0.00     0.172 HD
ENDROOT
BRANCH   1   7
HETATM    7  C   UNL     1     -40.478 -52.188  12.582  1.00  0.00     0.162 C 
BRANCH   7   8
HETATM    8  C   UNL     1     -41.484 -53.338  12.835  1.00  0.00     0.074 C 
HETATM    9  C   UNL     1     -41.492 -53.682  14.336  1.00  0.00     0.039 C 
HETATM   10  C   UNL     1     -42.545 -54.728  14.699  1.00  0.00     0.003 C 
HETATM   11  C   UNL     1     -43.933 -54.312  14.222  1.00  0.00     0.000 C 
HETATM   12  C   UNL     1     -43.942 -54.012  12.728  1.00  0.00     0.003 C 
HETATM   13  C   UNL     1     -42.898 -52.957  12.358  1.00  0.00     0.039 C 
BRANCH   8  14
HETATM   14  O   UNL     1     -41.074 -54.497  12.096  1.00  0.00    -0.388 OA
HETATM   15  H   UNL     1     -41.091 -55.258  12.703  1.00  0.00     0.210 HD
ENDBRANCH   8  14
ENDBRANCH   7   8
ENDBRANCH   1   7
BRANCH   4  16
HETATM   16  C   UNL     1     -41.354 -47.865  10.539  1.00  0.00     0.108 A 
HETATM   17  C   UNL     1     -42.553 -47.208  10.294  1.00  0.00     0.049 A 
HETATM   18  C   UNL     1     -42.564 -45.815  10.304  1.00  0.00     0.005 A 
HETATM   19  C   UNL     1     -41.388 -45.130  10.582  1.00  0.00     0.017 A 
HETATM   20  C   UNL     1     -40.236 -45.871  10.791  1.00  0.00     0.089 A 
HETATM   21  N   UNL     1     -40.186 -47.220  10.738  1.00  0.00    -0.352 N 
ATOM     22  HN  UNL     1     -39.307 -47.726  10.844  1.00  0.00     0.166 HD
ENDBRANCH   4  16
TORSDOF 4
ENDMDL
MODEL 4
REMARK VINA RESULT:      -6.2      3.317      6.062
REMARK  4 active torsions:
REMARK  status: ('A' for Active; 'I' for Inactive)
REMARK    1  A    between atoms: O_1  and  C_2 
REMARK    2  A    between atoms: C_2  and  C_3 
REMARK    3  A    between atoms: C_3  and  N_4 
REMARK       I    between atoms: N_4  and  C_5 
REMARK       I    between atoms: C_5  and  N_7 
REMARK    4  A    between atoms: N_7  and  C_8 
ROOT
HETATM    1  N   UNL     1     -40.903 -51.085  11.209  1.00  0.00    -0.340 N 
HETATM    2  C   UNL     1     -41.946 -51.382  12.060  1.00  0.00     0.321 C 
HETATM    3  O   UNL     1     -42.401 -50.562  12.849  1.00  0.00    -0.247 OA
HETATM    4  N   UNL     1     -42.414 -52.651  11.850  1.00  0.00    -0.295 N 
HETATM    5  H   UNL     1     -40.329 -51.861  10.906  1.00  0.00     0.164 HD
HETATM    6  H   UNL     1     -42.377 -52.966  10.893  1.00  0.00     0.172 HD
ENDROOT
BRANCH   1   7
HETATM    7  C   UNL     1     -40.333 -49.750  11.197  1.00  0.00     0.162 C 
BRANCH   7   8
HETATM    8  C   UNL     1     -38.967 -49.648  11.919  1.00  0.00     0.074 C 
HETATM    9  C   UNL     1     -39.022 -48.502  12.946  1.00  0.00     0.039 C 
HETATM   10  C   UNL     1     -37.754 -48.404  13.793  1.00  0.00     0.003 C 
HETATM   11  C   UNL     1     -37.429 -49.732  14.468  1.00  0.00     0.000 C 
HETATM   12  C   UNL     1     -37.330 -50.864  13.452  1.00  0.00     0.003 C 
HETATM   13  C   UNL     1     -38.600 -50.976  12.608  1.00  0.00     0.039 C 
BRANCH   8  14
HETATM   14  O   UNL     1     -37.943 -49.360  10.958  1.00  0.00    -0.388 OA
HETATM   15  H   UNL     1     -38.339 -49.428  10.071  1.00  0.00     0.210 HD
ENDBRANCH   8  14
ENDBRANCH   7   8
ENDBRANCH   1   7
BRANCH   4  16
HETATM   16  C   UNL     1     -43.523 -53.168  12.525  1.00  0.00     0.108 A 
HETATM   17  C   UNL     1     -43.425 -54.244  13.400  1.00  0.00     0.049 A 
HETATM   18  C   UNL     1     -44.573 -54.670  14.064  1.00  0.00     0.005 A 
HETATM   19  C   UNL     1     -45.768 -53.996  13.851  1.00  0.00     0.017 A 
HETATM   20  C   UNL     1     -45.775 -52.950  12.943  1.00  0.00     0.089 A 
HETATM   21  N   UNL     1     -44.688 -52.546  12.249  1.00  0.00    -0.352 N 
ATOM     22  HN  UNL     1     -44.746 -51.807  11.549  1.00  0.00     0.166 HD
ENDBRANCH   4  16
TORSDOF 4
ENDMDL
MODEL 5
REMARK VINA RESULT:      -6.1      2.242      7.177
REMARK  4 active torsions:
REMARK  status: ('A' for Active; 'I' for Inactive)
REMARK    1  A    between atoms: O_1  and  C_2 
REMARK    2  A    between atoms: C_2  and  C_3 
REMARK    3  A    between atoms: C_3  and  N_4 
REMARK       I    between atoms: N_4  and  C_5 
REMARK       I    between atoms: C_5  and  N_7 
REMARK    4  A    between atoms: N_7  and  C_8 
ROOT
HETATM    1  N   UNL     1     -41.052 -48.750  10.595  1.00  0.00    -0.340 N 
HETATM    2  C   UNL     1     -41.541 -49.683  11.485  1.00  0.00     0.321 C 
HETATM    3  O   UNL     1     -42.428 -49.420  12.288  1.00  0.00    -0.247 OA
HETATM    4  N   UNL     1     -40.957 -50.906  11.294  1.00  0.00    -0.295 N 
HETATM    5  H   UNL     1     -40.102 -48.884  10.274  1.00  0.00     0.164 HD
HETATM    6  H   UNL     1     -40.727 -51.125  10.337  1.00  0.00     0.172 HD
ENDROOT
BRANCH   1   7
HETATM    7  C   UNL     1     -41.618 -47.414  10.559  1.00  0.00     0.162 C 
BRANCH   7   8
HETATM    8  C   UNL     1     -40.634 -46.307  11.010  1.00  0.00     0.074 C 
HETATM    9  C   UNL     1     -41.298 -44.931  10.818  1.00  0.00     0.039 C 
HETATM   10  C   UNL     1     -40.443 -43.781  11.350  1.00  0.00     0.003 C 
HETATM   11  C   UNL     1     -40.051 -44.003  12.806  1.00  0.00     0.000 C 
HETATM   12  C   UNL     1     -39.354 -45.345  12.997  1.00  0.00     0.003 C 
HETATM   13  C   UNL     1     -40.208 -46.503  12.477  1.00  0.00     0.039 C 
BRANCH   8  14
HETATM   14  O   UNL     1     -39.450 -46.367  10.203  1.00  0.00    -0.388 OA
HETATM   15  H   UNL     1     -39.256 -45.466   9.890  1.00  0.00     0.210 HD
ENDBRANCH   8  14
ENDBRANCH   7   8
ENDBRANCH   1   7
BRANCH   4  16
HETATM   16  C   UNL     1     -41.338 -52.044  12.011  1.00  0.00     0.108 A 
HETATM   17  C   UNL     1     -40.446 -52.754  12.806  1.00  0.00     0.049 A 
HETATM   18  C   UNL     1     -40.918 -53.853  13.520  1.00  0.00     0.005 A 
HETATM   19  C   UNL     1     -42.263 -54.189  13.435  1.00  0.00     0.017 A 
HETATM   20  C   UNL     1     -43.071 -53.438  12.598  1.00  0.00     0.089 A 
HETATM   21  N   UNL     1     -42.631 -52.398  11.857  1.00  0.00    -0.352 N 
ATOM     22  HN  UNL     1     -43.246 -51.903  11.212  1.00  0.00     0.166 HD
ENDBRANCH   4  16
TORSDOF 4
ENDMDL
MODEL 6
REMARK VINA RESULT:      -5.9      2.088      2.659
REMARK  4 active torsions:
REMARK  status: ('A' for Active; 'I' for Inactive)
REMARK    1  A    between atoms: O_1  and  C_2 
REMARK    2  A    between atoms: C_2  and  C_3 
REMARK    3  A    between atoms: C_3  and  N_4 
REMARK       I    between atoms: N_4  and  C_5 
REMARK       I    between atoms: C_5  and  N_7 
REMARK    4  A    between atoms: N_7  and  C_8 
ROOT
HETATM    1  N   UNL     1     -40.534 -50.562  11.455  1.00  0.00    -0.340 N 
HETATM    2  C   UNL     1     -40.887 -49.230  11.496  1.00  0.00     0.321 C 
HETATM    3  O   UNL     1     -42.044 -48.864  11.672  1.00  0.00    -0.247 OA
HETATM    4  N   UNL     1     -39.789 -48.420  11.385  1.00  0.00    -0.295 N 
HETATM    5  H   UNL     1     -39.706 -50.795  10.923  1.00  0.00     0.164 HD
HETATM    6  H   UNL     1     -38.949 -48.780  11.808  1.00  0.00     0.172 HD
ENDROOT
BRANCH   1   7
HETATM    7  C   UNL     1     -41.539 -51.587  11.664  1.00  0.00     0.162 C 
BRANCH   7   8
HETATM    8  C   UNL     1     -41.040 -52.787  12.507  1.00  0.00     0.074 C 
HETATM    9  C   UNL     1     -39.886 -52.323  13.414  1.00  0.00     0.039 C 
HETATM   10  C   UNL     1     -39.408 -53.415  14.370  1.00  0.00     0.003 C 
HETATM   11  C   UNL     1     -40.560 -53.980  15.193  1.00  0.00     0.000 C 
HETATM   12  C   UNL     1     -41.689 -54.481  14.301  1.00  0.00     0.003 C 
HETATM   13  C   UNL     1     -42.181 -53.391  13.347  1.00  0.00     0.039 C 
BRANCH   8  14
HETATM   14  O   UNL     1     -40.557 -53.813  11.630  1.00  0.00    -0.388 OA
HETATM   15  H   UNL     1     -41.080 -53.775  10.809  1.00  0.00     0.210 HD
ENDBRANCH   8  14
ENDBRANCH   7   8
ENDBRANCH   1   7
BRANCH   4  16
HETATM   16  C   UNL     1     -39.866 -47.027  11.482  1.00  0.00     0.108 A 
HETATM   17  C   UNL     1     -39.569 -46.348  12.657  1.00  0.00     0.049 A 
HETATM   18  C   UNL     1     -39.630 -44.956  12.656  1.00  0.00     0.005 A 
HETATM   19  C   UNL     1     -39.960 -44.293  11.481  1.00  0.00     0.017 A 
HETATM   20  C   UNL     1     -40.263 -45.056  10.365  1.00  0.00     0.089 A 
HETATM   21  N   UNL     1     -40.260 -46.407  10.350  1.00  0.00    -0.352 N 
ATOM     22  HN  UNL     1     -40.541 -46.933   9.523  1.00  0.00     0.166 HD
ENDBRANCH   4  16
TORSDOF 4
ENDMDL
MODEL 7
REMARK VINA RESULT:      -5.5      2.749      7.607
REMARK  4 active torsions:
REMARK  status: ('A' for Active; 'I' for Inactive)
REMARK    1  A    between atoms: O_1  and  C_2 
REMARK    2  A    between atoms: C_2  and  C_3 
REMARK    3  A    between atoms: C_3  and  N_4 
REMARK       I    between atoms: N_4  and  C_5 
REMARK       I    between atoms: C_5  and  N_7 
REMARK    4  A    between atoms: N_7  and  C_8 
ROOT
HETATM    1  N   UNL     1     -40.271 -46.776  10.542  1.00  0.00    -0.340 N 
HETATM    2  C   UNL     1     -40.672 -47.879  11.266  1.00  0.00     0.321 C 
HETATM    3  O   UNL     1     -41.772 -47.947  11.802  1.00  0.00    -0.247 OA
HETATM    4  N   UNL     1     -39.722 -48.864  11.237  1.00  0.00    -0.295 N 
HETATM    5  H   UNL     1     -39.276 -46.605  10.487  1.00  0.00     0.164 HD
HETATM    6  H   UNL     1     -39.201 -48.929  10.377  1.00  0.00     0.172 HD
ENDROOT
BRANCH   1   7
HETATM    7  C   UNL     1     -41.180 -45.660  10.358  1.00  0.00     0.162 C 
BRANCH   7   8
HETATM    8  C   UNL     1     -40.809 -44.408  11.191  1.00  0.00     0.074 C 
HETATM    9  C   UNL     1     -42.017 -43.998  12.054  1.00  0.00     0.039 C 
HETATM   10  C   UNL     1     -41.703 -42.841  13.001  1.00  0.00     0.003 C 
HETATM   11  C   UNL     1     -40.486 -43.143  13.869  1.00  0.00     0.000 C 
HETATM   12  C   UNL     1     -39.273 -43.508  13.020  1.00  0.00     0.003 C 
HETATM   13  C   UNL     1     -39.576 -44.673  12.076  1.00  0.00     0.039 C 
BRANCH   8  14
HETATM   14  O   UNL     1     -40.484 -43.328  10.306  1.00  0.00    -0.388 OA
HETATM   15  H   UNL     1     -39.840 -42.754  10.759  1.00  0.00     0.210 HD
ENDBRANCH   8  14
ENDBRANCH   7   8
ENDBRANCH   1   7
BRANCH   4  16
HETATM   16  C   UNL     1     -39.917 -50.118  11.824  1.00  0.00     0.108 A 
HETATM   17  C   UNL     1     -39.150 -50.566  12.892  1.00  0.00     0.049 A 
HETATM   18  C   UNL     1     -39.438 -51.812  13.444  1.00  0.00     0.005 A 
HETATM   19  C   UNL     1     -40.493 -52.554  12.928  1.00  0.00     0.017 A 
HETATM   20  C   UNL     1     -41.187 -52.037  11.847  1.00  0.00     0.089 A 
HETATM   21  N   UNL     1     -40.898 -50.854  11.260  1.00  0.00    -0.352 N 
ATOM     22  HN  UNL     1     -41.398 -50.533  10.431  1.00  0.00     0.166 HD
ENDBRANCH   4  16
TORSDOF 4
ENDMDL
MODEL 8
REMARK VINA RESULT:      -5.5      1.776      2.798
REMARK  4 active torsions:
REMARK  status: ('A' for Active; 'I' for Inactive)
REMARK    1  A    between atoms: O_1  and  C_2 
REMARK    2  A    between atoms: C_2  and  C_3 
REMARK    3  A    between atoms: C_3  and  N_4 
REMARK       I    between atoms: N_4  and  C_5 
REMARK       I    between atoms: C_5  and  N_7 
REMARK    4  A    between atoms: N_7  and  C_8 
ROOT
HETATM    1  N   UNL     1     -41.138 -51.845  11.640  1.00  0.00    -0.340 N 
HETATM    2  C   UNL     1     -41.209 -50.497  11.922  1.00  0.00     0.321 C 
HETATM    3  O   UNL     1     -41.250 -50.070  13.070  1.00  0.00    -0.247 OA
HETATM    4  N   UNL     1     -41.160 -49.746  10.779  1.00  0.00    -0.295 N 
HETATM    5  H   UNL     1     -41.510 -52.142  10.747  1.00  0.00     0.164 HD
HETATM    6  H   UNL     1     -40.584 -50.126  10.044  1.00  0.00     0.172 HD
ENDROOT
BRANCH   1   7
HETATM    7  C   UNL     1     -41.066 -52.811  12.721  1.00  0.00     0.162 C 
BRANCH   7   8
HETATM    8  C   UNL     1     -42.433 -53.101  13.389  1.00  0.00     0.074 C 
HETATM    9  C   UNL     1     -43.542 -53.037  12.323  1.00  0.00     0.039 C 
HETATM   10  C   UNL     1     -44.914 -53.429  12.870  1.00  0.00     0.003 C 
HETATM   11  C   UNL     1     -44.877 -54.796  13.544  1.00  0.00     0.000 C 
HETATM   12  C   UNL     1     -43.811 -54.853  14.631  1.00  0.00     0.003 C 
HETATM   13  C   UNL     1     -42.432 -54.473  14.089  1.00  0.00     0.039 C 
BRANCH   8  14
HETATM   14  O   UNL     1     -42.693 -52.105  14.388  1.00  0.00    -0.388 OA
HETATM   15  H   UNL     1     -41.878 -51.587  14.512  1.00  0.00     0.210 HD
ENDBRANCH   8  14
ENDBRANCH   7   8
ENDBRANCH   1   7
BRANCH   4  16
HETATM   16  C   UNL     1     -41.130 -48.349  10.795  1.00  0.00     0.108 A 
HETATM   17  C   UNL     1     -40.041 -47.635  11.280  1.00  0.00     0.049 A 
HETATM   18  C   UNL     1     -40.076 -46.244  11.221  1.00  0.00     0.005 A 
HETATM   19  C   UNL     1     -41.182 -45.617  10.661  1.00  0.00     0.017 A 
HETATM   20  C   UNL     1     -42.230 -46.410  10.225  1.00  0.00     0.089 A 
HETATM   21  N   UNL     1     -42.244 -47.759  10.314  1.00  0.00    -0.352 N 
ATOM     22  HN  UNL     1     -43.058 -48.304  10.031  1.00  0.00     0.166 HD
ENDBRANCH   4  16
TORSDOF 4
ENDMDL
MODEL 9
REMARK VINA RESULT:      -5.3      6.219      8.907
REMARK  4 active torsions:
REMARK  status: ('A' for Active; 'I' for Inactive)
REMARK    1  A    between atoms: O_1  and  C_2 
REMARK    2  A    between atoms: C_2  and  C_3 
REMARK    3  A    between atoms: C_3  and  N_4 
REMARK       I    between atoms: N_4  and  C_5 
REMARK       I    between atoms: C_5  and  N_7 
REMARK    4  A    between atoms: N_7  and  C_8 
ROOT
HETATM    1  N   UNL     1     -43.350 -54.369  14.474  1.00  0.00    -0.340 N 
HETATM    2  C   UNL     1     -42.498 -55.076  15.295  1.00  0.00     0.321 C 
HETATM    3  O   UNL     1     -42.840 -56.109  15.861  1.00  0.00    -0.247 OA
HETATM    4  N   UNL     1     -41.252 -54.511  15.326  1.00  0.00    -0.295 N 
HETATM    5  H   UNL     1     -43.172 -53.377  14.382  1.00  0.00     0.164 HD
HETATM    6  H   UNL     1     -40.956 -54.084  14.462  1.00  0.00     0.172 HD
ENDROOT
BRANCH   1   7
HETATM    7  C   UNL     1     -44.690 -54.863  14.219  1.00  0.00     0.162 C 
BRANCH   7   8
HETATM    8  C   UNL     1     -45.806 -53.849  14.572  1.00  0.00     0.074 C 
HETATM    9  C   UNL     1     -45.715 -53.496  16.068  1.00  0.00     0.039 C 
HETATM   10  C   UNL     1     -46.705 -52.408  16.482  1.00  0.00     0.003 C 
HETATM   11  C   UNL     1     -46.562 -51.163  15.613  1.00  0.00     0.000 C 
HETATM   12  C   UNL     1     -46.695 -51.498  14.132  1.00  0.00     0.003 C 
HETATM   13  C   UNL     1     -45.699 -52.579  13.707  1.00  0.00     0.039 C 
BRANCH   8  14
HETATM   14  O   UNL     1     -47.086 -54.444  14.313  1.00  0.00    -0.388 OA
HETATM   15  H   UNL     1     -47.552 -54.530  15.164  1.00  0.00     0.210 HD
ENDBRANCH   8  14
ENDBRANCH   7   8
ENDBRANCH   1   7
BRANCH   4  16
HETATM   16  C   UNL     1     -40.180 -55.082  16.018  1.00  0.00     0.108 A 
HETATM   17  C   UNL     1     -38.913 -55.197  15.460  1.00  0.00     0.049 A 
HETATM   18  C   UNL     1     -37.891 -55.742  16.234  1.00  0.00     0.005 A 
HETATM   19  C   UNL     1     -38.163 -56.129  17.540  1.00  0.00     0.017 A 
HETATM   20  C   UNL     1     -39.462 -55.998  18.002  1.00  0.00     0.089 A 
HETATM   21  N   UNL     1     -40.483 -55.519  17.258  1.00  0.00    -0.352 N 
ATOM     22  HN  UNL     1     -41.437 -55.489  17.617  1.00  0.00     0.166 HD
ENDBRANCH   4  16
TORSDOF 4
ENDMDL
