MODEL 1
REMARK VINA RESULT:      -6.7      0.000      0.000
REMARK  5 active torsions:
REMARK  status: ('A' for Active; 'I' for Inactive)
REMARK       I    between atoms: C_2  and  N_3 
REMARK       I    between atoms: C_2  and  N_11 
REMARK    1  A    between atoms: N_3  and  C_4 
REMARK    2  A    between atoms: C_4  and  C_5 
REMARK    3  A    between atoms: C_5  and  N_6 
REMARK    4  A    between atoms: N_11  and  C_12 
REMARK    5  A    between atoms: C_15  and  N_19 
ROOT
HETATM    1  C   UNL     1     -41.057 -50.805  11.971  1.00  0.00     0.051 A 
HETATM    2  C   UNL     1     -42.118 -50.369  12.751  1.00  0.00     0.035 A 
HETATM    3  C   UNL     1     -42.782 -49.196  12.418  1.00  0.00     0.051 A 
HETATM    4  C   UNL     1     -42.364 -48.437  11.328  1.00  0.00     0.103 A 
HETATM    5  N   UNL     1     -41.272 -48.799  10.621  1.00  0.00    -0.350 N 
ATOM      6  HN  UNL     1     -40.934 -48.225   9.849  1.00  0.00     0.166 HD
HETATM    7  C   UNL     1     -40.635 -49.947  10.967  1.00  0.00     0.119 A 
ENDROOT
BRANCH   1   8
HETATM    8  N   UNL     1     -40.431 -52.056  12.130  1.00  0.00    -0.308 N 
HETATM    9  C   UNL     1     -40.836 -53.162  12.824  1.00  0.00     0.320 C 
HETATM   10  O   UNL     1     -40.081 -54.124  12.926  1.00  0.00    -0.247 OA
HETATM   11  N   UNL     1     -42.111 -53.141  13.315  1.00  0.00    -0.341 N 
HETATM   12  H   UNL     1     -42.749 -52.653  12.702  1.00  0.00     0.164 HD
HETATM   13  H   UNL     1     -39.584 -52.232  11.602  1.00  0.00     0.170 HD
BRANCH  11  14
HETATM   14  C   UNL     1     -42.699 -54.277  13.998  1.00  0.00     0.154 C 
BRANCH  14  15
HETATM   15  C   UNL     1     -44.228 -54.204  14.163  1.00  0.00     0.292 C 
BRANCH  15  16
HETATM   16  N   UNL     1     -44.770 -52.868  13.860  1.00  0.00     0.090 N 
HETATM   17  C   UNL     1     -45.497 -52.311  15.011  1.00  0.00     0.272 C 
HETATM   18  C   UNL     1     -46.615 -51.455  14.421  1.00  0.00     0.032 C 
HETATM   19  C   UNL     1     -46.455 -51.572  12.917  1.00  0.00     0.032 C 
HETATM   20  C   UNL     1     -45.720 -52.883  12.743  1.00  0.00     0.272 C 
ENDBRANCH  15  16
ENDBRANCH  14  15
ENDBRANCH  11  14
ENDBRANCH   1   8
BRANCH   4  21
HETATM   21  N   UNL     1     -43.112 -47.359  10.921  1.00  0.00    -0.363 N 
HETATM   22  C   UNL     1     -43.919 -47.439   9.698  1.00  0.00     0.150 C 
HETATM   23  C   UNL     1     -43.443 -46.425   8.650  1.00  0.00     0.187 C 
HETATM   24  O   UNL     1     -43.335 -45.100   9.199  1.00  0.00    -0.388 OA
HETATM   25  C   UNL     1     -42.390 -45.094  10.278  1.00  0.00     0.187 C 
HETATM   26  C   UNL     1     -42.839 -46.011  11.425  1.00  0.00     0.150 C 
ENDBRANCH   4  21
TORSDOF 5
ENDMDL
MODEL 2
REMARK VINA RESULT:      -6.7      2.067      7.011
REMARK  5 active torsions:
REMARK  status: ('A' for Active; 'I' for Inactive)
REMARK       I    between atoms: C_2  and  N_3 
REMARK       I    between atoms: C_2  and  N_11 
REMARK    1  A    between atoms: N_3  and  C_4 
REMARK    2  A    between atoms: C_4  and  C_5 
REMARK    3  A    between atoms: C_5  and  N_6 
REMARK    4  A    between atoms: N_11  and  C_12 
REMARK    5  A    between atoms: C_15  and  N_19 
ROOT
HETATM    1  C   UNL     1     -42.148 -49.307  12.465  1.00  0.00     0.051 A 
HETATM    2  C   UNL     1     -43.292 -49.663  13.164  1.00  0.00     0.035 A 
HETATM    3  C   UNL     1     -43.656 -51.000  13.255  1.00  0.00     0.051 A 
HETATM    4  C   UNL     1     -42.898 -51.980  12.618  1.00  0.00     0.103 A 
HETATM    5  N   UNL     1     -41.840 -51.636  11.853  1.00  0.00    -0.350 N 
ATOM      6  HN  UNL     1     -41.306 -52.344  11.348  1.00  0.00     0.166 HD
HETATM    7  C   UNL     1     -41.505 -50.323  11.773  1.00  0.00     0.119 A 
ENDROOT
BRANCH   1   8
HETATM    8  N   UNL     1     -41.611 -48.006  12.453  1.00  0.00    -0.308 N 
HETATM    9  C   UNL     1     -41.671 -47.036  11.491  1.00  0.00     0.320 C 
HETATM   10  O   UNL     1     -41.035 -45.997  11.637  1.00  0.00    -0.247 OA
HETATM   11  N   UNL     1     -42.507 -47.275  10.437  1.00  0.00    -0.341 N 
HETATM   12  H   UNL     1     -43.337 -47.781  10.713  1.00  0.00     0.164 HD
HETATM   13  H   UNL     1     -41.170 -47.668  13.301  1.00  0.00     0.170 HD
BRANCH  11  14
HETATM   14  C   UNL     1     -42.732 -46.298   9.389  1.00  0.00     0.154 C 
BRANCH  14  15
HETATM   15  C   UNL     1     -44.209 -46.105   9.000  1.00  0.00     0.292 C 
BRANCH  15  16
HETATM   16  N   UNL     1     -44.995 -47.346   9.110  1.00  0.00     0.090 N 
HETATM   17  C   UNL     1     -44.888 -48.158   7.889  1.00  0.00     0.272 C 
HETATM   18  C   UNL     1     -46.228 -48.876   7.749  1.00  0.00     0.032 C 
HETATM   19  C   UNL     1     -47.049 -48.421   8.940  1.00  0.00     0.032 C 
HETATM   20  C   UNL     1     -46.425 -47.094   9.311  1.00  0.00     0.272 C 
ENDBRANCH  15  16
ENDBRANCH  14  15
ENDBRANCH  11  14
ENDBRANCH   1   8
BRANCH   4  21
HETATM   21  N   UNL     1     -43.181 -53.307  12.832  1.00  0.00    -0.363 N 
HETATM   22  C   UNL     1     -44.563 -53.792  12.747  1.00  0.00     0.150 C 
HETATM   23  C   UNL     1     -45.042 -54.349  14.093  1.00  0.00     0.187 C 
HETATM   24  O   UNL     1     -44.115 -55.306  14.635  1.00  0.00    -0.388 OA
HETATM   25  C   UNL     1     -42.838 -54.685  14.844  1.00  0.00     0.187 C 
HETATM   26  C   UNL     1     -42.233 -54.183  13.525  1.00  0.00     0.150 C 
ENDBRANCH   4  21
TORSDOF 5
ENDMDL
MODEL 3
REMARK VINA RESULT:      -6.5      1.761      2.145
REMARK  5 active torsions:
REMARK  status: ('A' for Active; 'I' for Inactive)
REMARK       I    between atoms: C_2  and  N_3 
REMARK       I    between atoms: C_2  and  N_11 
REMARK    1  A    between atoms: N_3  and  C_4 
REMARK    2  A    between atoms: C_4  and  C_5 
REMARK    3  A    between atoms: C_5  and  N_6 
REMARK    4  A    between atoms: N_11  and  C_12 
REMARK    5  A    between atoms: C_15  and  N_19 
ROOT
HETATM    1  C   UNL     1     -39.926 -50.145  12.002  1.00  0.00     0.051 A 
HETATM    2  C   UNL     1     -39.386 -49.358  13.009  1.00  0.00     0.035 A 
HETATM    3  C   UNL     1     -39.624 -47.990  13.017  1.00  0.00     0.051 A 
HETATM    4  C   UNL     1     -40.369 -47.400  11.999  1.00  0.00     0.103 A 
HETATM    5  N   UNL     1     -40.815 -48.140  10.962  1.00  0.00    -0.350 N 
ATOM      6  HN  UNL     1     -41.325 -47.708  10.191  1.00  0.00     0.166 HD
HETATM    7  C   UNL     1     -40.567 -49.475  10.972  1.00  0.00     0.119 A 
ENDROOT
BRANCH   1   8
HETATM    8  N   UNL     1     -39.878 -51.552  11.998  1.00  0.00    -0.308 N 
HETATM    9  C   UNL     1     -40.757 -52.464  12.513  1.00  0.00     0.320 C 
HETATM   10  O   UNL     1     -40.470 -53.657  12.498  1.00  0.00    -0.247 OA
HETATM   11  N   UNL     1     -41.951 -51.975  12.963  1.00  0.00    -0.341 N 
HETATM   12  H   UNL     1     -42.279 -51.197  12.408  1.00  0.00     0.164 HD
HETATM   13  H   UNL     1     -39.134 -51.999  11.476  1.00  0.00     0.170 HD
BRANCH  11  14
HETATM   14  C   UNL     1     -43.007 -52.837  13.456  1.00  0.00     0.154 C 
BRANCH  14  15
HETATM   15  C   UNL     1     -44.097 -53.171  12.421  1.00  0.00     0.292 C 
BRANCH  15  16
HETATM   16  N   UNL     1     -45.459 -52.959  12.940  1.00  0.00     0.090 N 
HETATM   17  C   UNL     1     -45.770 -51.527  13.061  1.00  0.00     0.272 C 
HETATM   18  C   UNL     1     -46.711 -51.406  14.256  1.00  0.00     0.032 C 
HETATM   19  C   UNL     1     -46.895 -52.823  14.765  1.00  0.00     0.032 C 
HETATM   20  C   UNL     1     -45.652 -53.535  14.275  1.00  0.00     0.272 C 
ENDBRANCH  15  16
ENDBRANCH  14  15
ENDBRANCH  11  14
ENDBRANCH   1   8
BRANCH   4  21
HETATM   21  N   UNL     1     -40.720 -46.075  12.091  1.00  0.00    -0.363 N 
HETATM   22  C   UNL     1     -42.129 -45.675  12.006  1.00  0.00     0.150 C 
HETATM   23  C   UNL     1     -42.381 -44.780  10.787  1.00  0.00     0.187 C 
HETATM   24  O   UNL     1     -41.453 -43.682  10.730  1.00  0.00    -0.388 OA
HETATM   25  C   UNL     1     -40.111 -44.181  10.639  1.00  0.00     0.187 C 
HETATM   26  C   UNL     1     -39.735 -45.012  11.875  1.00  0.00     0.150 C 
ENDBRANCH   4  21
TORSDOF 5
ENDMDL
MODEL 4
REMARK VINA RESULT:      -6.4      1.695      2.186
REMARK  5 active torsions:
REMARK  status: ('A' for Active; 'I' for Inactive)
REMARK       I    between atoms: C_2  and  N_3 
REMARK       I    between atoms: C_2  and  N_11 
REMARK    1  A    between atoms: N_3  and  C_4 
REMARK    2  A    between atoms: C_4  and  C_5 
REMARK    3  A    between atoms: C_5  and  N_6 
REMARK    4  A    between atoms: N_11  and  C_12 
REMARK    5  A    between atoms: C_15  and  N_19 
ROOT
HETATM    1  C   UNL     1     -40.763 -49.890  11.468  1.00  0.00     0.051 A 
HETATM    2  C   UNL     1     -42.005 -49.272  11.441  1.00  0.00     0.035 A 
HETATM    3  C   UNL     1     -42.088 -47.899  11.252  1.00  0.00     0.051 A 
HETATM    4  C   UNL     1     -40.930 -47.136  11.127  1.00  0.00     0.103 A 
HETATM    5  N   UNL     1     -39.715 -47.711  11.251  1.00  0.00    -0.350 N 
ATOM      6  HN  UNL     1     -38.863 -47.152  11.204  1.00  0.00     0.166 HD
HETATM    7  C   UNL     1     -39.657 -49.054  11.440  1.00  0.00     0.119 A 
ENDROOT
BRANCH   1   8
HETATM    8  N   UNL     1     -40.584 -51.286  11.490  1.00  0.00    -0.308 N 
HETATM    9  C   UNL     1     -40.860 -52.195  12.474  1.00  0.00     0.320 C 
HETATM   10  O   UNL     1     -40.523 -53.365  12.330  1.00  0.00    -0.247 OA
HETATM   11  N   UNL     1     -41.568 -51.733  13.548  1.00  0.00    -0.341 N 
HETATM   12  H   UNL     1     -42.246 -51.032  13.287  1.00  0.00     0.164 HD
HETATM   13  H   UNL     1     -40.276 -51.737  10.637  1.00  0.00     0.170 HD
BRANCH  11  14
HETATM   14  C   UNL     1     -42.002 -52.604  14.623  1.00  0.00     0.154 C 
BRANCH  14  15
HETATM   15  C   UNL     1     -43.434 -53.149  14.467  1.00  0.00     0.292 C 
BRANCH  15  16
HETATM   16  N   UNL     1     -44.386 -52.126  14.004  1.00  0.00     0.090 N 
HETATM   17  C   UNL     1     -45.348 -51.772  15.057  1.00  0.00     0.272 C 
HETATM   18  C   UNL     1     -46.647 -51.424  14.334  1.00  0.00     0.032 C 
HETATM   19  C   UNL     1     -46.340 -51.599  12.859  1.00  0.00     0.032 C 
HETATM   20  C   UNL     1     -45.180 -52.571  12.854  1.00  0.00     0.272 C 
ENDBRANCH  15  16
ENDBRANCH  14  15
ENDBRANCH  11  14
ENDBRANCH   1   8
BRANCH   4  21
HETATM   21  N   UNL     1     -41.023 -45.805  10.798  1.00  0.00    -0.363 N 
HETATM   22  C   UNL     1     -39.832 -44.950  10.833  1.00  0.00     0.150 C 
HETATM   23  C   UNL     1     -39.981 -43.829  11.869  1.00  0.00     0.187 C 
HETATM   24  O   UNL     1     -41.216 -43.111  11.706  1.00  0.00    -0.388 OA
HETATM   25  C   UNL     1     -42.326 -44.007  11.863  1.00  0.00     0.187 C 
HETATM   26  C   UNL     1     -42.313 -45.112  10.796  1.00  0.00     0.150 C 
ENDBRANCH   4  21
TORSDOF 5
ENDMDL
MODEL 5
REMARK VINA RESULT:      -6.3      1.826      2.778
REMARK  5 active torsions:
REMARK  status: ('A' for Active; 'I' for Inactive)
REMARK       I    between atoms: C_2  and  N_3 
REMARK       I    between atoms: C_2  and  N_11 
REMARK    1  A    between atoms: N_3  and  C_4 
REMARK    2  A    between atoms: C_4  and  C_5 
REMARK    3  A    between atoms: C_5  and  N_6 
REMARK    4  A    between atoms: N_11  and  C_12 
REMARK    5  A    between atoms: C_15  and  N_19 
ROOT
HETATM    1  C   UNL     1     -40.347 -52.602  13.326  1.00  0.00     0.051 A 
HETATM    2  C   UNL     1     -39.662 -51.516  13.849  1.00  0.00     0.035 A 
HETATM    3  C   UNL     1     -39.673 -50.302  13.173  1.00  0.00     0.051 A 
HETATM    4  C   UNL     1     -40.338 -50.183  11.955  1.00  0.00     0.103 A 
HETATM    5  N   UNL     1     -40.924 -51.259  11.388  1.00  0.00    -0.350 N 
ATOM      6  HN  UNL     1     -41.375 -51.190  10.476  1.00  0.00     0.166 HD
HETATM    7  C   UNL     1     -40.897 -52.436  12.064  1.00  0.00     0.119 A 
ENDROOT
BRANCH   1   8
HETATM    8  N   UNL     1     -40.529 -53.817  14.013  1.00  0.00    -0.308 N 
HETATM    9  C   UNL     1     -41.541 -54.217  14.842  1.00  0.00     0.320 C 
HETATM   10  O   UNL     1     -41.453 -55.289  15.432  1.00  0.00    -0.247 OA
HETATM   11  N   UNL     1     -42.636 -53.402  14.905  1.00  0.00    -0.341 N 
HETATM   12  H   UNL     1     -42.837 -52.962  14.018  1.00  0.00     0.164 HD
HETATM   13  H   UNL     1     -39.872 -54.566  13.833  1.00  0.00     0.170 HD
BRANCH  11  14
HETATM   14  C   UNL     1     -43.815 -53.744  15.677  1.00  0.00     0.154 C 
BRANCH  14  15
HETATM   15  C   UNL     1     -44.930 -54.433  14.870  1.00  0.00     0.292 C 
BRANCH  15  16
HETATM   16  N   UNL     1     -46.006 -53.507  14.478  1.00  0.00     0.090 N 
HETATM   17  C   UNL     1     -45.793 -52.980  13.122  1.00  0.00     0.272 C 
HETATM   18  C   UNL     1     -46.370 -51.567  13.129  1.00  0.00     0.032 C 
HETATM   19  C   UNL     1     -46.903 -51.362  14.534  1.00  0.00     0.032 C 
HETATM   20  C   UNL     1     -46.097 -52.340  15.362  1.00  0.00     0.272 C 
ENDBRANCH  15  16
ENDBRANCH  14  15
ENDBRANCH  11  14
ENDBRANCH   1   8
BRANCH   4  21
HETATM   21  N   UNL     1     -40.466 -48.949  11.366  1.00  0.00    -0.363 N 
HETATM   22  C   UNL     1     -39.583 -47.846  11.762  1.00  0.00     0.150 C 
HETATM   23  C   UNL     1     -40.379 -46.691  12.381  1.00  0.00     0.187 C 
HETATM   24  O   UNL     1     -41.480 -46.292  11.546  1.00  0.00    -0.388 OA
HETATM   25  C   UNL     1     -42.378 -47.397  11.363  1.00  0.00     0.187 C 
HETATM   26  C   UNL     1     -41.688 -48.571  10.653  1.00  0.00     0.150 C 
ENDBRANCH   4  21
TORSDOF 5
ENDMDL
MODEL 6
REMARK VINA RESULT:      -5.9      4.192      7.878
REMARK  5 active torsions:
REMARK  status: ('A' for Active; 'I' for Inactive)
REMARK       I    between atoms: C_2  and  N_3 
REMARK       I    between atoms: C_2  and  N_11 
REMARK    1  A    between atoms: N_3  and  C_4 
REMARK    2  A    between atoms: C_4  and  C_5 
REMARK    3  A    between atoms: C_5  and  N_6 
REMARK    4  A    between atoms: N_11  and  C_12 
REMARK    5  A    between atoms: C_15  and  N_19 
ROOT
HETATM    1  C   UNL     1     -41.196 -51.855  12.049  1.00  0.00     0.051 A 
HETATM    2  C   UNL     1     -42.382 -51.364  12.574  1.00  0.00     0.035 A 
HETATM    3  C   UNL     1     -43.247 -52.221  13.244  1.00  0.00     0.051 A 
HETATM    4  C   UNL     1     -42.946 -53.575  13.357  1.00  0.00     0.103 A 
HETATM    5  N   UNL     1     -41.844 -54.083  12.765  1.00  0.00    -0.350 N 
ATOM      6  HN  UNL     1     -41.639 -55.081  12.807  1.00  0.00     0.166 HD
HETATM    7  C   UNL     1     -41.015 -53.229  12.111  1.00  0.00     0.119 A 
ENDROOT
BRANCH   1   8
HETATM    8  N   UNL     1     -40.187 -51.042  11.501  1.00  0.00    -0.308 N 
HETATM    9  C   UNL     1     -39.089 -50.482  12.093  1.00  0.00     0.320 C 
HETATM   10  O   UNL     1     -38.384 -49.707  11.454  1.00  0.00    -0.247 OA
HETATM   11  N   UNL     1     -38.811 -50.886  13.369  1.00  0.00    -0.341 N 
HETATM   12  H   UNL     1     -39.042 -51.857  13.522  1.00  0.00     0.164 HD
HETATM   13  H   UNL     1     -40.195 -50.887  10.500  1.00  0.00     0.170 HD
BRANCH  11  14
HETATM   14  C   UNL     1     -37.633 -50.438  14.086  1.00  0.00     0.154 C 
BRANCH  14  15
HETATM   15  C   UNL     1     -37.761 -49.040  14.719  1.00  0.00     0.292 C 
BRANCH  15  16
HETATM   16  N   UNL     1     -36.614 -48.695  15.576  1.00  0.00     0.090 N 
HETATM   17  C   UNL     1     -36.030 -49.893  16.197  1.00  0.00     0.272 C 
HETATM   18  C   UNL     1     -35.501 -49.440  17.555  1.00  0.00     0.032 C 
HETATM   19  C   UNL     1     -35.818 -47.959  17.633  1.00  0.00     0.032 C 
HETATM   20  C   UNL     1     -36.980 -47.799  16.677  1.00  0.00     0.272 C 
ENDBRANCH  15  16
ENDBRANCH  14  15
ENDBRANCH  11  14
ENDBRANCH   1   8
BRANCH   4  21
HETATM   21  N   UNL     1     -43.731 -54.385  14.142  1.00  0.00    -0.363 N 
HETATM   22  C   UNL     1     -45.059 -54.802  13.678  1.00  0.00     0.150 C 
HETATM   23  C   UNL     1     -46.163 -54.273  14.600  1.00  0.00     0.187 C 
HETATM   24  O   UNL     1     -45.899 -54.580  15.980  1.00  0.00    -0.388 OA
HETATM   25  C   UNL     1     -44.662 -53.979  16.386  1.00  0.00     0.187 C 
HETATM   26  C   UNL     1     -43.477 -54.529  15.577  1.00  0.00     0.150 C 
ENDBRANCH   4  21
TORSDOF 5
ENDMDL
MODEL 7
REMARK VINA RESULT:      -5.9      2.597      6.455
REMARK  5 active torsions:
REMARK  status: ('A' for Active; 'I' for Inactive)
REMARK       I    between atoms: C_2  and  N_3 
REMARK       I    between atoms: C_2  and  N_11 
REMARK    1  A    between atoms: N_3  and  C_4 
REMARK    2  A    between atoms: C_4  and  C_5 
REMARK    3  A    between atoms: C_5  and  N_6 
REMARK    4  A    between atoms: N_11  and  C_12 
REMARK    5  A    between atoms: C_15  and  N_19 
ROOT
HETATM    1  C   UNL     1     -40.121 -52.735  13.993  1.00  0.00     0.051 A 
HETATM    2  C   UNL     1     -40.676 -53.670  13.131  1.00  0.00     0.035 A 
HETATM    3  C   UNL     1     -42.024 -53.991  13.237  1.00  0.00     0.051 A 
HETATM    4  C   UNL     1     -42.809 -53.406  14.227  1.00  0.00     0.103 A 
HETATM    5  N   UNL     1     -42.258 -52.571  15.133  1.00  0.00    -0.350 N 
ATOM      6  HN  UNL     1     -42.818 -52.172  15.887  1.00  0.00     0.166 HD
HETATM    7  C   UNL     1     -40.938 -52.275  15.014  1.00  0.00     0.119 A 
ENDROOT
BRANCH   1   8
HETATM    8  N   UNL     1     -38.815 -52.227  13.860  1.00  0.00    -0.308 N 
HETATM    9  C   UNL     1     -38.352 -51.170  13.126  1.00  0.00     0.320 C 
HETATM   10  O   UNL     1     -37.145 -50.959  13.063  1.00  0.00    -0.247 OA
HETATM   11  N   UNL     1     -39.296 -50.366  12.552  1.00  0.00    -0.341 N 
HETATM   12  H   UNL     1     -40.121 -50.274  13.127  1.00  0.00     0.164 HD
HETATM   13  H   UNL     1     -38.090 -52.629  14.441  1.00  0.00     0.170 HD
BRANCH  11  14
HETATM   14  C   UNL     1     -38.949 -49.165  11.817  1.00  0.00     0.154 C 
BRANCH  14  15
HETATM   15  C   UNL     1     -39.881 -47.967  12.072  1.00  0.00     0.292 C 
BRANCH  15  16
HETATM   16  N   UNL     1     -40.888 -47.792  11.011  1.00  0.00     0.090 N 
HETATM   17  C   UNL     1     -41.104 -46.370  10.705  1.00  0.00     0.272 C 
HETATM   18  C   UNL     1     -42.570 -46.250  10.299  1.00  0.00     0.032 C 
HETATM   19  C   UNL     1     -43.126 -47.658  10.395  1.00  0.00     0.032 C 
HETATM   20  C   UNL     1     -42.199 -48.336  11.380  1.00  0.00     0.272 C 
ENDBRANCH  15  16
ENDBRANCH  14  15
ENDBRANCH  11  14
ENDBRANCH   1   8
BRANCH   4  21
HETATM   21  N   UNL     1     -44.167 -53.618  14.234  1.00  0.00    -0.363 N 
HETATM   22  C   UNL     1     -44.892 -53.808  12.973  1.00  0.00     0.150 C 
HETATM   23  C   UNL     1     -45.923 -52.696  12.750  1.00  0.00     0.187 C 
HETATM   24  O   UNL     1     -46.774 -52.519  13.896  1.00  0.00    -0.388 OA
HETATM   25  C   UNL     1     -45.983 -52.163  15.040  1.00  0.00     0.187 C 
HETATM   26  C   UNL     1     -44.983 -53.273  15.399  1.00  0.00     0.150 C 
ENDBRANCH   4  21
TORSDOF 5
ENDMDL
MODEL 8
REMARK VINA RESULT:      -5.8      2.336      3.015
REMARK  5 active torsions:
REMARK  status: ('A' for Active; 'I' for Inactive)
REMARK       I    between atoms: C_2  and  N_3 
REMARK       I    between atoms: C_2  and  N_11 
REMARK    1  A    between atoms: N_3  and  C_4 
REMARK    2  A    between atoms: C_4  and  C_5 
REMARK    3  A    between atoms: C_5  and  N_6 
REMARK    4  A    between atoms: N_11  and  C_12 
REMARK    5  A    between atoms: C_15  and  N_19 
ROOT
HETATM    1  C   UNL     1     -38.790 -49.176  13.106  1.00  0.00     0.051 A 
HETATM    2  C   UNL     1     -39.085 -48.357  14.187  1.00  0.00     0.035 A 
HETATM    3  C   UNL     1     -39.704 -47.132  13.975  1.00  0.00     0.051 A 
HETATM    4  C   UNL     1     -39.995 -46.706  12.681  1.00  0.00     0.103 A 
HETATM    5  N   UNL     1     -39.623 -47.449  11.616  1.00  0.00    -0.350 N 
ATOM      6  HN  UNL     1     -39.793 -47.124  10.665  1.00  0.00     0.166 HD
HETATM    7  C   UNL     1     -39.015 -48.641  11.847  1.00  0.00     0.119 A 
ENDROOT
BRANCH   1   8
HETATM    8  N   UNL     1     -38.316 -50.495  13.231  1.00  0.00    -0.308 N 
HETATM    9  C   UNL     1     -38.994 -51.682  13.187  1.00  0.00     0.320 C 
HETATM   10  O   UNL     1     -38.400 -52.728  13.429  1.00  0.00    -0.247 OA
HETATM   11  N   UNL     1     -40.304 -51.622  12.804  1.00  0.00    -0.341 N 
HETATM   12  H   UNL     1     -40.468 -50.908  12.110  1.00  0.00     0.164 HD
HETATM   13  H   UNL     1     -37.315 -50.635  13.285  1.00  0.00     0.170 HD
BRANCH  11  14
HETATM   14  C   UNL     1     -41.118 -52.810  12.634  1.00  0.00     0.154 C 
BRANCH  14  15
HETATM   15  C   UNL     1     -42.612 -52.533  12.385  1.00  0.00     0.292 C 
BRANCH  15  16
HETATM   16  N   UNL     1     -43.483 -53.150  13.400  1.00  0.00     0.090 N 
HETATM   17  C   UNL     1     -42.707 -53.959  14.352  1.00  0.00     0.272 C 
HETATM   18  C   UNL     1     -43.625 -55.106  14.766  1.00  0.00     0.032 C 
HETATM   19  C   UNL     1     -44.917 -54.877  14.007  1.00  0.00     0.032 C 
HETATM   20  C   UNL     1     -44.483 -54.050  12.816  1.00  0.00     0.272 C 
ENDBRANCH  15  16
ENDBRANCH  14  15
ENDBRANCH  11  14
ENDBRANCH   1   8
BRANCH   4  21
HETATM   21  N   UNL     1     -40.734 -45.564  12.489  1.00  0.00    -0.363 N 
HETATM   22  C   UNL     1     -42.133 -45.652  12.058  1.00  0.00     0.150 C 
HETATM   23  C   UNL     1     -42.337 -44.996  10.688  1.00  0.00     0.187 C 
HETATM   24  O   UNL     1     -41.791 -43.666  10.646  1.00  0.00    -0.388 OA
HETATM   25  C   UNL     1     -40.381 -43.708  10.909  1.00  0.00     0.187 C 
HETATM   26  C   UNL     1     -40.087 -44.262  12.311  1.00  0.00     0.150 C 
ENDBRANCH   4  21
TORSDOF 5
ENDMDL
MODEL 9
REMARK VINA RESULT:      -5.8      3.646      4.957
REMARK  5 active torsions:
REMARK  status: ('A' for Active; 'I' for Inactive)
REMARK       I    between atoms: C_2  and  N_3 
REMARK       I    between atoms: C_2  and  N_11 
REMARK    1  A    between atoms: N_3  and  C_4 
REMARK    2  A    between atoms: C_4  and  C_5 
REMARK    3  A    between atoms: C_5  and  N_6 
REMARK    4  A    between atoms: N_11  and  C_12 
REMARK    5  A    between atoms: C_15  and  N_19 
ROOT
HETATM    1  C   UNL     1     -42.044 -53.880  14.217  1.00  0.00     0.051 A 
HETATM    2  C   UNL     1     -41.509 -53.179  15.289  1.00  0.00     0.035 A 
HETATM    3  C   UNL     1     -40.524 -52.226  15.067  1.00  0.00     0.051 A 
HETATM    4  C   UNL     1     -40.044 -51.997  13.780  1.00  0.00     0.103 A 
HETATM    5  N   UNL     1     -40.485 -52.742  12.743  1.00  0.00    -0.350 N 
ATOM      6  HN  UNL     1     -40.108 -52.610  11.805  1.00  0.00     0.166 HD
HETATM    7  C   UNL     1     -41.445 -53.672  12.983  1.00  0.00     0.119 A 
ENDROOT
BRANCH   1   8
HETATM    8  N   UNL     1     -43.152 -54.741  14.319  1.00  0.00    -0.308 N 
HETATM    9  C   UNL     1     -44.488 -54.474  14.213  1.00  0.00     0.320 C 
HETATM   10  O   UNL     1     -45.304 -55.360  14.446  1.00  0.00    -0.247 OA
HETATM   11  N   UNL     1     -44.827 -53.222  13.782  1.00  0.00    -0.341 N 
HETATM   12  H   UNL     1     -44.172 -52.861  13.104  1.00  0.00     0.164 HD
HETATM   13  H   UNL     1     -42.972 -55.734  14.409  1.00  0.00     0.170 HD
BRANCH  11  14
HETATM   14  C   UNL     1     -46.202 -52.829  13.544  1.00  0.00     0.154 C 
BRANCH  14  15
HETATM   15  C   UNL     1     -46.637 -51.544  14.274  1.00  0.00     0.292 C 
BRANCH  15  16
HETATM   16  N   UNL     1     -46.412 -51.612  15.728  1.00  0.00     0.090 N 
HETATM   17  C   UNL     1     -47.644 -51.317  16.475  1.00  0.00     0.272 C 
HETATM   18  C   UNL     1     -47.195 -50.632  17.763  1.00  0.00     0.032 C 
HETATM   19  C   UNL     1     -45.682 -50.577  17.678  1.00  0.00     0.032 C 
HETATM   20  C   UNL     1     -45.411 -50.646  16.191  1.00  0.00     0.272 C 
ENDBRANCH  15  16
ENDBRANCH  14  15
ENDBRANCH  11  14
ENDBRANCH   1   8
BRANCH   4  21
HETATM   21  N   UNL     1     -39.177 -50.957  13.550  1.00  0.00    -0.363 N 
HETATM   22  C   UNL     1     -39.686 -49.653  13.110  1.00  0.00     0.150 C 
HETATM   23  C   UNL     1     -39.153 -49.287  11.720  1.00  0.00     0.187 C 
HETATM   24  O   UNL     1     -37.722 -49.415  11.646  1.00  0.00    -0.388 OA
HETATM   25  C   UNL     1     -37.338 -50.770  11.922  1.00  0.00     0.187 C 
HETATM   26  C   UNL     1     -37.747 -51.192  13.341  1.00  0.00     0.150 C 
ENDBRANCH   4  21
TORSDOF 5
ENDMDL
