MODEL 1
REMARK VINA RESULT:      -4.7      0.000      0.000
REMARK  3 active torsions:
REMARK  status: ('A' for Active; 'I' for Inactive)
REMARK       I    between atoms: N_2  and  C_3 
REMARK    1  A    between atoms: C_3  and  C_5 
REMARK    2  A    between atoms: C_5  and  N_6 
REMARK    3  A    between atoms: C_8  and  N_9 
ROOT
HETATM    1  N   UNL     1     -42.726 -47.818   9.778  1.00  0.00    -0.293 N 
HETATM    2  C   UNL     1     -43.832 -47.100  10.139  1.00  0.00     0.141 A 
HETATM    3  C   UNL     1     -44.598 -47.008   9.009  1.00  0.00     0.060 A 
HETATM    4  C   UNL     1     -43.890 -47.708   8.016  1.00  0.00     0.137 A 
HETATM    5  N   UNL     1     -42.744 -48.219   8.481  1.00  0.00    -0.307 N 
ATOM      6  HN  UNL     1     -42.051 -48.776   7.981  1.00  0.00     0.186 HD
ENDROOT
BRANCH   1   7
HETATM    7  C   UNL     1     -41.620 -48.205  10.639  1.00  0.00     0.250 C 
BRANCH   7   8
HETATM    8  C   UNL     1     -40.737 -47.048  11.067  1.00  0.00     0.237 C 
HETATM    9  N   UNL     1     -40.453 -46.106  10.107  1.00  0.00    -0.364 N 
HETATM   10  C   UNL     1     -39.623 -44.963  10.374  1.00  0.00     0.149 C 
HETATM   11  H   UNL     1     -40.946 -46.172   9.213  1.00  0.00     0.161 HD
HETATM   12  O   UNL     1     -40.238 -47.013  12.192  1.00  0.00    -0.272 OA
ENDBRANCH   7   8
ENDBRANCH   1   7
BRANCH   3  13
HETATM   13  N   UNL     1     -45.773 -46.376   8.908  1.00  0.00    -0.397 N 
HETATM   14  H   UNL     1     -46.321 -46.377   8.054  1.00  0.00     0.156 HD
HETATM   15  H   UNL     1     -46.132 -45.764   9.635  1.00  0.00     0.156 HD
ENDBRANCH   3  13
TORSDOF 3
ENDMDL
MODEL 2
REMARK VINA RESULT:      -4.6      1.840      2.595
REMARK  3 active torsions:
REMARK  status: ('A' for Active; 'I' for Inactive)
REMARK       I    between atoms: N_2  and  C_3 
REMARK    1  A    between atoms: C_3  and  C_5 
REMARK    2  A    between atoms: C_5  and  N_6 
REMARK    3  A    between atoms: C_8  and  N_9 
ROOT
HETATM    1  N   UNL     1     -44.509 -46.693   8.765  1.00  0.00    -0.293 N 
HETATM    2  C   UNL     1     -44.738 -47.957   8.296  1.00  0.00     0.141 A 
HETATM    3  C   UNL     1     -46.070 -48.193   8.503  1.00  0.00     0.060 A 
HETATM    4  C   UNL     1     -46.575 -47.017   9.086  1.00  0.00     0.137 A 
HETATM    5  N   UNL     1     -45.627 -46.086   9.241  1.00  0.00    -0.307 N 
ATOM      6  HN  UNL     1     -45.721 -45.145   9.624  1.00  0.00     0.186 HD
ENDROOT
BRANCH   1   7
HETATM    7  C   UNL     1     -43.246 -45.973   8.748  1.00  0.00     0.250 C 
BRANCH   7   8
HETATM    8  C   UNL     1     -42.437 -46.116  10.023  1.00  0.00     0.237 C 
HETATM    9  N   UNL     1     -41.078 -45.942   9.909  1.00  0.00    -0.364 N 
HETATM   10  C   UNL     1     -40.192 -46.057  11.035  1.00  0.00     0.149 C 
HETATM   11  H   UNL     1     -40.714 -45.609   9.013  1.00  0.00     0.161 HD
HETATM   12  O   UNL     1     -42.971 -46.457  11.079  1.00  0.00    -0.272 OA
ENDBRANCH   7   8
ENDBRANCH   1   7
BRANCH   3  13
HETATM   13  N   UNL     1     -46.723 -49.321   8.198  1.00  0.00    -0.397 N 
HETATM   14  H   UNL     1     -46.413 -50.233   8.516  1.00  0.00     0.156 HD
HETATM   15  H   UNL     1     -47.496 -49.348   7.541  1.00  0.00     0.156 HD
ENDBRANCH   3  13
TORSDOF 3
ENDMDL
MODEL 3
REMARK VINA RESULT:      -4.5      1.944      2.866
REMARK  3 active torsions:
REMARK  status: ('A' for Active; 'I' for Inactive)
REMARK       I    between atoms: N_2  and  C_3 
REMARK    1  A    between atoms: C_3  and  C_5 
REMARK    2  A    between atoms: C_5  and  N_6 
REMARK    3  A    between atoms: C_8  and  N_9 
ROOT
HETATM    1  N   UNL     1     -42.526 -47.728   9.834  1.00  0.00    -0.293 N 
HETATM    2  C   UNL     1     -43.532 -46.850  10.129  1.00  0.00     0.141 A 
HETATM    3  C   UNL     1     -44.324 -46.807   9.014  1.00  0.00     0.060 A 
HETATM    4  C   UNL     1     -43.735 -47.697   8.099  1.00  0.00     0.137 A 
HETATM    5  N   UNL     1     -42.637 -48.276   8.597  1.00  0.00    -0.307 N 
ATOM      6  HN  UNL     1     -42.028 -48.965   8.154  1.00  0.00     0.186 HD
ENDROOT
BRANCH   1   7
HETATM    7  C   UNL     1     -41.439 -48.133  10.711  1.00  0.00     0.250 C 
BRANCH   7   8
HETATM    8  C   UNL     1     -41.716 -49.404  11.490  1.00  0.00     0.237 C 
HETATM    9  N   UNL     1     -40.920 -50.488  11.199  1.00  0.00    -0.364 N 
HETATM   10  C   UNL     1     -41.079 -51.756  11.857  1.00  0.00     0.149 C 
HETATM   11  H   UNL     1     -40.122 -50.339  10.577  1.00  0.00     0.161 HD
HETATM   12  O   UNL     1     -42.662 -49.475  12.276  1.00  0.00    -0.272 OA
ENDBRANCH   7   8
ENDBRANCH   1   7
BRANCH   3  13
HETATM   13  N   UNL     1     -45.424 -46.061   8.863  1.00  0.00    -0.397 N 
HETATM   14  H   UNL     1     -46.099 -45.926   9.608  1.00  0.00     0.156 HD
HETATM   15  H   UNL     1     -45.710 -45.680   7.966  1.00  0.00     0.156 HD
ENDBRANCH   3  13
TORSDOF 3
ENDMDL
MODEL 4
REMARK VINA RESULT:      -4.4      1.909      4.328
REMARK  3 active torsions:
REMARK  status: ('A' for Active; 'I' for Inactive)
REMARK       I    between atoms: N_2  and  C_3 
REMARK    1  A    between atoms: C_3  and  C_5 
REMARK    2  A    between atoms: C_5  and  N_6 
REMARK    3  A    between atoms: C_8  and  N_9 
ROOT
HETATM    1  N   UNL     1     -41.056 -46.236  10.779  1.00  0.00    -0.293 N 
HETATM    2  C   UNL     1     -41.533 -45.005  11.135  1.00  0.00     0.141 A 
HETATM    3  C   UNL     1     -40.537 -44.119  10.826  1.00  0.00     0.060 A 
HETATM    4  C   UNL     1     -39.501 -44.894  10.276  1.00  0.00     0.137 A 
HETATM    5  N   UNL     1     -39.814 -46.194  10.233  1.00  0.00    -0.307 N 
ATOM      6  HN  UNL     1     -39.254 -46.968   9.874  1.00  0.00     0.186 HD
ENDROOT
BRANCH   1   7
HETATM    7  C   UNL     1     -41.755 -47.506  10.889  1.00  0.00     0.250 C 
BRANCH   7   8
HETATM    8  C   UNL     1     -42.926 -47.651   9.937  1.00  0.00     0.237 C 
HETATM    9  N   UNL     1     -42.618 -47.878   8.616  1.00  0.00    -0.364 N 
HETATM   10  C   UNL     1     -43.630 -48.027   7.606  1.00  0.00     0.149 C 
HETATM   11  H   UNL     1     -41.640 -48.059   8.379  1.00  0.00     0.161 HD
HETATM   12  O   UNL     1     -44.084 -47.484  10.323  1.00  0.00    -0.272 OA
ENDBRANCH   7   8
ENDBRANCH   1   7
BRANCH   3  13
HETATM   13  N   UNL     1     -40.578 -42.796  11.020  1.00  0.00    -0.397 N 
HETATM   14  H   UNL     1     -40.054 -42.144  10.445  1.00  0.00     0.156 HD
HETATM   15  H   UNL     1     -41.039 -42.372  11.819  1.00  0.00     0.156 HD
ENDBRANCH   3  13
TORSDOF 3
ENDMDL
MODEL 5
REMARK VINA RESULT:      -4.4      2.295      2.322
REMARK  3 active torsions:
REMARK  status: ('A' for Active; 'I' for Inactive)
REMARK       I    between atoms: N_2  and  C_3 
REMARK    1  A    between atoms: C_3  and  C_5 
REMARK    2  A    between atoms: C_5  and  N_6 
REMARK    3  A    between atoms: C_8  and  N_9 
ROOT
HETATM    1  N   UNL     1     -43.389 -47.155   9.971  1.00  0.00    -0.293 N 
HETATM    2  C   UNL     1     -44.709 -47.484   9.828  1.00  0.00     0.141 A 
HETATM    3  C   UNL     1     -44.860 -47.845   8.517  1.00  0.00     0.060 A 
HETATM    4  C   UNL     1     -43.583 -47.721   7.942  1.00  0.00     0.137 A 
HETATM    5  N   UNL     1     -42.670 -47.309   8.829  1.00  0.00    -0.307 N 
ATOM      6  HN  UNL     1     -41.674 -47.149   8.683  1.00  0.00     0.186 HD
ENDROOT
BRANCH   1   7
HETATM    7  C   UNL     1     -42.725 -46.728  11.191  1.00  0.00     0.250 C 
BRANCH   7   8
HETATM    8  C   UNL     1     -42.391 -45.249  11.226  1.00  0.00     0.237 C 
HETATM    9  N   UNL     1     -42.838 -44.545  12.320  1.00  0.00    -0.364 N 
HETATM   10  C   UNL     1     -42.599 -43.137  12.478  1.00  0.00     0.149 C 
HETATM   11  H   UNL     1     -43.252 -45.075  13.091  1.00  0.00     0.161 HD
HETATM   12  O   UNL     1     -41.825 -44.702  10.279  1.00  0.00    -0.272 OA
ENDBRANCH   7   8
ENDBRANCH   1   7
BRANCH   3  13
HETATM   13  N   UNL     1     -46.003 -48.232   7.938  1.00  0.00    -0.397 N 
HETATM   14  H   UNL     1     -46.024 -48.809   7.104  1.00  0.00     0.156 HD
HETATM   15  H   UNL     1     -46.911 -47.881   8.226  1.00  0.00     0.156 HD
ENDBRANCH   3  13
TORSDOF 3
ENDMDL
MODEL 6
REMARK VINA RESULT:      -4.4      2.243      4.787
REMARK  3 active torsions:
REMARK  status: ('A' for Active; 'I' for Inactive)
REMARK       I    between atoms: N_2  and  C_3 
REMARK    1  A    between atoms: C_3  and  C_5 
REMARK    2  A    between atoms: C_5  and  N_6 
REMARK    3  A    between atoms: C_8  and  N_9 
ROOT
HETATM    1  N   UNL     1     -42.180 -47.178  10.039  1.00  0.00    -0.293 N 
HETATM    2  C   UNL     1     -41.200 -46.589  10.789  1.00  0.00     0.141 A 
HETATM    3  C   UNL     1     -40.553 -47.614  11.423  1.00  0.00     0.060 A 
HETATM    4  C   UNL     1     -41.193 -48.789  10.991  1.00  0.00     0.137 A 
HETATM    5  N   UNL     1     -42.187 -48.533  10.133  1.00  0.00    -0.307 N 
ATOM      6  HN  UNL     1     -42.801 -49.196   9.661  1.00  0.00     0.186 HD
ENDROOT
BRANCH   1   7
HETATM    7  C   UNL     1     -43.128 -46.509   9.163  1.00  0.00     0.250 C 
BRANCH   7   8
HETATM    8  C   UNL     1     -44.061 -47.453   8.428  1.00  0.00     0.237 C 
HETATM    9  N   UNL     1     -45.322 -47.601   8.956  1.00  0.00    -0.364 N 
HETATM   10  C   UNL     1     -46.304 -48.469   8.365  1.00  0.00     0.149 C 
HETATM   11  H   UNL     1     -45.593 -46.983   9.725  1.00  0.00     0.161 HD
HETATM   12  O   UNL     1     -43.670 -48.110   7.463  1.00  0.00    -0.272 OA
ENDBRANCH   7   8
ENDBRANCH   1   7
BRANCH   3  13
HETATM   13  N   UNL     1     -39.525 -47.486  12.271  1.00  0.00    -0.397 N 
HETATM   14  H   UNL     1     -39.429 -48.061  13.102  1.00  0.00     0.156 HD
HETATM   15  H   UNL     1     -38.845 -46.736  12.200  1.00  0.00     0.156 HD
ENDBRANCH   3  13
TORSDOF 3
ENDMDL
MODEL 7
REMARK VINA RESULT:      -4.3      2.401      3.000
REMARK  3 active torsions:
REMARK  status: ('A' for Active; 'I' for Inactive)
REMARK       I    between atoms: N_2  and  C_3 
REMARK    1  A    between atoms: C_3  and  C_5 
REMARK    2  A    between atoms: C_5  and  N_6 
REMARK    3  A    between atoms: C_8  and  N_9 
ROOT
HETATM    1  N   UNL     1     -41.560 -47.873  10.635  1.00  0.00    -0.293 N 
HETATM    2  C   UNL     1     -42.837 -47.538  10.281  1.00  0.00     0.141 A 
HETATM    3  C   UNL     1     -42.798 -46.207   9.968  1.00  0.00     0.060 A 
HETATM    4  C   UNL     1     -41.459 -45.817  10.146  1.00  0.00     0.137 A 
HETATM    5  N   UNL     1     -40.688 -46.836  10.544  1.00  0.00    -0.307 N 
ATOM      6  HN  UNL     1     -39.686 -46.833  10.734  1.00  0.00     0.186 HD
ENDROOT
BRANCH   1   7
HETATM    7  C   UNL     1     -41.081 -49.187  11.030  1.00  0.00     0.250 C 
BRANCH   7   8
HETATM    8  C   UNL     1     -39.666 -49.191  11.575  1.00  0.00     0.237 C 
HETATM    9  N   UNL     1     -38.755 -49.980  10.912  1.00  0.00    -0.364 N 
HETATM   10  C   UNL     1     -37.382 -50.082  11.326  1.00  0.00     0.149 C 
HETATM   11  H   UNL     1     -39.050 -50.412  10.033  1.00  0.00     0.161 HD
HETATM   12  O   UNL     1     -39.381 -48.583  12.608  1.00  0.00    -0.272 OA
ENDBRANCH   7   8
ENDBRANCH   1   7
BRANCH   3  13
HETATM   13  N   UNL     1     -43.839 -45.463   9.577  1.00  0.00    -0.397 N 
HETATM   14  H   UNL     1     -43.727 -44.556   9.137  1.00  0.00     0.156 HD
HETATM   15  H   UNL     1     -44.800 -45.705   9.797  1.00  0.00     0.156 HD
ENDBRANCH   3  13
TORSDOF 3
ENDMDL
MODEL 8
REMARK VINA RESULT:      -4.1      5.870      6.591
REMARK  3 active torsions:
REMARK  status: ('A' for Active; 'I' for Inactive)
REMARK       I    between atoms: N_2  and  C_3 
REMARK    1  A    between atoms: C_3  and  C_5 
REMARK    2  A    between atoms: C_5  and  N_6 
REMARK    3  A    between atoms: C_8  and  N_9 
ROOT
HETATM    1  N   UNL     1     -43.468 -53.214  12.804  1.00  0.00    -0.293 N 
HETATM    2  C   UNL     1     -43.971 -54.264  13.522  1.00  0.00     0.141 A 
HETATM    3  C   UNL     1     -45.331 -54.118  13.487  1.00  0.00     0.060 A 
HETATM    4  C   UNL     1     -45.566 -52.965  12.718  1.00  0.00     0.137 A 
HETATM    5  N   UNL     1     -44.429 -52.409  12.284  1.00  0.00    -0.307 N 
ATOM      6  HN  UNL     1     -44.312 -51.579  11.703  1.00  0.00     0.186 HD
ENDROOT
BRANCH   1   7
HETATM    7  C   UNL     1     -42.067 -52.938  12.530  1.00  0.00     0.250 C 
BRANCH   7   8
HETATM    8  C   UNL     1     -41.748 -51.464  12.374  1.00  0.00     0.237 C 
HETATM    9  N   UNL     1     -40.858 -51.132  11.379  1.00  0.00    -0.364 N 
HETATM   10  C   UNL     1     -40.461 -49.774  11.125  1.00  0.00     0.149 C 
HETATM   11  H   UNL     1     -40.566 -51.870  10.734  1.00  0.00     0.161 HD
HETATM   12  O   UNL     1     -42.200 -50.629  13.157  1.00  0.00    -0.272 OA
ENDBRANCH   7   8
ENDBRANCH   1   7
BRANCH   3  13
HETATM   13  N   UNL     1     -46.221 -54.926  14.074  1.00  0.00    -0.397 N 
HETATM   14  H   UNL     1     -45.953 -55.789  14.536  1.00  0.00     0.156 HD
HETATM   15  H   UNL     1     -47.224 -54.787  13.996  1.00  0.00     0.156 HD
ENDBRANCH   3  13
TORSDOF 3
ENDMDL
MODEL 9
REMARK VINA RESULT:      -4.0      2.458      4.919
REMARK  3 active torsions:
REMARK  status: ('A' for Active; 'I' for Inactive)
REMARK       I    between atoms: N_2  and  C_3 
REMARK    1  A    between atoms: C_3  and  C_5 
REMARK    2  A    between atoms: C_5  and  N_6 
REMARK    3  A    between atoms: C_8  and  N_9 
ROOT
HETATM    1  N   UNL     1     -42.335 -46.587  10.538  1.00  0.00    -0.293 N 
HETATM    2  C   UNL     1     -40.989 -46.414  10.698  1.00  0.00     0.141 A 
HETATM    3  C   UNL     1     -40.850 -45.507  11.713  1.00  0.00     0.060 A 
HETATM    4  C   UNL     1     -42.158 -45.194  12.120  1.00  0.00     0.137 A 
HETATM    5  N   UNL     1     -43.078 -45.860  11.412  1.00  0.00    -0.307 N 
ATOM      6  HN  UNL     1     -44.093 -45.830  11.507  1.00  0.00     0.186 HD
ENDROOT
BRANCH   1   7
HETATM    7  C   UNL     1     -42.994 -47.474   9.593  1.00  0.00     0.250 C 
BRANCH   7   8
HETATM    8  C   UNL     1     -44.402 -47.047   9.224  1.00  0.00     0.237 C 
HETATM    9  N   UNL     1     -45.379 -48.010   9.322  1.00  0.00    -0.364 N 
HETATM   10  C   UNL     1     -46.754 -47.744   8.996  1.00  0.00     0.149 C 
HETATM   11  H   UNL     1     -45.127 -48.904   9.749  1.00  0.00     0.161 HD
HETATM   12  O   UNL     1     -44.629 -45.922   8.780  1.00  0.00    -0.272 OA
ENDBRANCH   7   8
ENDBRANCH   1   7
BRANCH   3  13
HETATM   13  N   UNL     1     -39.692 -45.039  12.193  1.00  0.00    -0.397 N 
HETATM   14  H   UNL     1     -39.617 -44.596  13.102  1.00  0.00     0.156 HD
HETATM   15  H   UNL     1     -38.844 -44.995  11.635  1.00  0.00     0.156 HD
ENDBRANCH   3  13
TORSDOF 3
ENDMDL
