MODEL 1
REMARK VINA RESULT:      -6.6      0.000      0.000
REMARK  5 active torsions:
REMARK  status: ('A' for Active; 'I' for Inactive)
REMARK    1  A    between atoms: C_2  and  N_3 
REMARK    2  A    between atoms: C_8  and  N_9 
REMARK       I    between atoms: N_9  and  C_10 
REMARK       I    between atoms: C_10  and  N_12 
REMARK    3  A    between atoms: N_12  and  C_13 
REMARK    4  A    between atoms: C_13  and  C_14 
REMARK    5  A    between atoms: C_14  and  C_15 
ROOT
HETATM    1  N   UNL     1     -40.854 -51.191  11.202  1.00  0.00    -0.310 N 
HETATM    2  C   UNL     1     -40.955 -52.046  12.278  1.00  0.00     0.298 C 
HETATM    3  O   UNL     1     -40.594 -51.781  13.408  1.00  0.00    -0.254 OA
HETATM    4  N   UNL     1     -41.513 -53.298  11.983  1.00  0.00    -0.244 NA
HETATM    5  H   UNL     1     -40.780 -51.612  10.289  1.00  0.00     0.170 HD
HETATM    6  H   UNL     1     -42.241 -53.269  11.281  1.00  0.00     0.132 HD
ENDROOT
BRANCH   1   7
HETATM    7  C   UNL     1     -40.401 -49.863  11.325  1.00  0.00     0.083 A 
HETATM    8  C   UNL     1     -39.076 -49.309  11.403  1.00  0.00     0.051 A 
HETATM    9  N   UNL     1     -39.113 -47.974  11.504  1.00  0.00    -0.301 N 
HETATM   10  C   UNL     1     -37.736 -49.943  11.442  1.00  0.00     0.072 C 
HETATM   11  N   UNL     1     -40.404 -47.659  11.435  1.00  0.00    -0.295 N 
ATOM     12  HN  UNL     1     -38.324 -47.337  11.610  1.00  0.00     0.187 HD
HETATM   13  C   UNL     1     -41.238 -48.757  11.406  1.00  0.00     0.053 A 
HETATM   14  C   UNL     1     -42.717 -48.620  11.406  1.00  0.00     0.072 C 
BRANCH  11  15
HETATM   15  C   UNL     1     -40.762 -46.250  11.369  1.00  0.00     0.144 C 
HETATM   16  C   UNL     1     -39.814 -45.440  10.501  1.00  0.00     0.028 C 
ENDBRANCH  11  15
ENDBRANCH   1   7
BRANCH   4  17
HETATM   17  C   UNL     1     -41.770 -54.091  13.184  1.00  0.00     0.099 C 
BRANCH  17  18
HETATM   18  C   UNL     1     -43.155 -54.117  13.827  1.00  0.00     0.046 C 
BRANCH  18  19
HETATM   19  C   UNL     1     -44.358 -53.833  12.909  1.00  0.00     0.122 C 
HETATM   20  C   UNL     1     -44.910 -52.403  12.922  1.00  0.00     0.032 C 
HETATM   21  C   UNL     1     -45.820 -52.084  14.110  1.00  0.00     0.004 C 
HETATM   22  C   UNL     1     -46.792 -53.216  14.424  1.00  0.00     0.026 C 
HETATM   23  C   UNL     1     -46.065 -54.546  14.454  1.00  0.00     0.168 C 
HETATM   24  O   UNL     1     -45.414 -54.769  13.205  1.00  0.00    -0.386 OA
ENDBRANCH  18  19
ENDBRANCH  17  18
ENDBRANCH   4  17
TORSDOF 5
ENDMDL
MODEL 2
REMARK VINA RESULT:      -6.3      2.113      3.213
REMARK  5 active torsions:
REMARK  status: ('A' for Active; 'I' for Inactive)
REMARK    1  A    between atoms: C_2  and  N_3 
REMARK    2  A    between atoms: C_8  and  N_9 
REMARK       I    between atoms: N_9  and  C_10 
REMARK       I    between atoms: C_10  and  N_12 
REMARK    3  A    between atoms: N_12  and  C_13 
REMARK    4  A    between atoms: C_13  and  C_14 
REMARK    5  A    between atoms: C_14  and  C_15 
ROOT
HETATM    1  N   UNL     1     -42.119 -48.963  10.961  1.00  0.00    -0.310 N 
HETATM    2  C   UNL     1     -42.561 -49.656  12.068  1.00  0.00     0.298 C 
HETATM    3  O   UNL     1     -43.167 -49.161  12.998  1.00  0.00    -0.254 OA
HETATM    4  N   UNL     1     -42.250 -51.023  12.067  1.00  0.00    -0.244 NA
HETATM    5  H   UNL     1     -41.311 -49.332  10.485  1.00  0.00     0.170 HD
HETATM    6  H   UNL     1     -42.275 -51.451  11.151  1.00  0.00     0.132 HD
ENDROOT
BRANCH   1   7
HETATM    7  C   UNL     1     -42.414 -47.603  10.748  1.00  0.00     0.083 A 
HETATM    8  C   UNL     1     -43.545 -46.954  10.140  1.00  0.00     0.051 A 
HETATM    9  N   UNL     1     -43.410 -45.622  10.161  1.00  0.00    -0.301 N 
HETATM   10  C   UNL     1     -44.757 -47.490   9.476  1.00  0.00     0.072 C 
HETATM   11  N   UNL     1     -42.267 -45.401  10.808  1.00  0.00    -0.295 N 
ATOM     12  HN  UNL     1     -44.044 -44.927   9.767  1.00  0.00     0.187 HD
HETATM   13  C   UNL     1     -41.580 -46.555  11.119  1.00  0.00     0.053 A 
HETATM   14  C   UNL     1     -40.247 -46.523  11.774  1.00  0.00     0.072 C 
BRANCH  11  15
HETATM   15  C   UNL     1     -41.915 -44.026  11.124  1.00  0.00     0.144 C 
HETATM   16  C   UNL     1     -42.600 -43.514  12.379  1.00  0.00     0.028 C 
ENDBRANCH  11  15
ENDBRANCH   1   7
BRANCH   4  17
HETATM   17  C   UNL     1     -42.899 -51.743  13.162  1.00  0.00     0.099 C 
BRANCH  17  18
HETATM   18  C   UNL     1     -43.687 -53.025  12.902  1.00  0.00     0.046 C 
BRANCH  18  19
HETATM   19  C   UNL     1     -45.176 -52.869  12.538  1.00  0.00     0.122 C 
HETATM   20  C   UNL     1     -45.842 -51.545  12.926  1.00  0.00     0.032 C 
HETATM   21  C   UNL     1     -46.254 -51.447  14.396  1.00  0.00     0.004 C 
HETATM   22  C   UNL     1     -46.891 -52.733  14.912  1.00  0.00     0.026 C 
HETATM   23  C   UNL     1     -46.059 -53.935  14.512  1.00  0.00     0.168 C 
HETATM   24  O   UNL     1     -45.919 -53.974  13.093  1.00  0.00    -0.386 OA
ENDBRANCH  18  19
ENDBRANCH  17  18
ENDBRANCH   4  17
TORSDOF 5
ENDMDL
MODEL 3
REMARK VINA RESULT:      -6.2      2.164      3.699
REMARK  5 active torsions:
REMARK  status: ('A' for Active; 'I' for Inactive)
REMARK    1  A    between atoms: C_2  and  N_3 
REMARK    2  A    between atoms: C_8  and  N_9 
REMARK       I    between atoms: N_9  and  C_10 
REMARK       I    between atoms: C_10  and  N_12 
REMARK    3  A    between atoms: N_12  and  C_13 
REMARK    4  A    between atoms: C_13  and  C_14 
REMARK    5  A    between atoms: C_14  and  C_15 
ROOT
HETATM    1  N   UNL     1     -41.435 -48.446  10.137  1.00  0.00    -0.310 N 
HETATM    2  C   UNL     1     -41.289 -49.293  11.214  1.00  0.00     0.298 C 
HETATM    3  O   UNL     1     -41.581 -49.012  12.360  1.00  0.00    -0.254 OA
HETATM    4  N   UNL     1     -40.751 -50.551  10.904  1.00  0.00    -0.244 NA
HETATM    5  H   UNL     1     -40.813 -48.589   9.357  1.00  0.00     0.170 HD
HETATM    6  H   UNL     1     -41.039 -50.911  10.004  1.00  0.00     0.132 HD
ENDROOT
BRANCH   1   7
HETATM    7  C   UNL     1     -42.038 -47.178  10.242  1.00  0.00     0.083 A 
HETATM    8  C   UNL     1     -43.387 -46.738  10.003  1.00  0.00     0.051 A 
HETATM    9  N   UNL     1     -43.519 -45.428  10.243  1.00  0.00    -0.301 N 
HETATM   10  C   UNL     1     -44.589 -47.450   9.507  1.00  0.00     0.072 C 
HETATM   11  N   UNL     1     -42.324 -45.034  10.678  1.00  0.00    -0.295 N 
ATOM     12  HN  UNL     1     -44.354 -44.855  10.120  1.00  0.00     0.187 HD
HETATM   13  C   UNL     1     -41.367 -46.024  10.626  1.00  0.00     0.053 A 
HETATM   14  C   UNL     1     -39.951 -45.767  10.996  1.00  0.00     0.072 C 
BRANCH  11  15
HETATM   15  C   UNL     1     -42.190 -43.670  11.167  1.00  0.00     0.144 C 
HETATM   16  C   UNL     1     -42.621 -43.516  12.615  1.00  0.00     0.028 C 
ENDBRANCH  11  15
ENDBRANCH   1   7
BRANCH   4  17
HETATM   17  C   UNL     1     -40.793 -51.470  12.040  1.00  0.00     0.099 C 
BRANCH  17  18
HETATM   18  C   UNL     1     -41.949 -52.453  12.214  1.00  0.00     0.046 C 
BRANCH  18  19
HETATM   19  C   UNL     1     -42.794 -52.319  13.493  1.00  0.00     0.122 C 
HETATM   20  C   UNL     1     -42.364 -53.170  14.693  1.00  0.00     0.032 C 
HETATM   21  C   UNL     1     -42.806 -54.632  14.627  1.00  0.00     0.004 C 
HETATM   22  C   UNL     1     -44.240 -54.789  14.134  1.00  0.00     0.026 C 
HETATM   23  C   UNL     1     -44.469 -53.946  12.894  1.00  0.00     0.168 C 
HETATM   24  O   UNL     1     -44.178 -52.580  13.179  1.00  0.00    -0.386 OA
ENDBRANCH  18  19
ENDBRANCH  17  18
ENDBRANCH   4  17
TORSDOF 5
ENDMDL
MODEL 4
REMARK VINA RESULT:      -5.9      3.949      6.199
REMARK  5 active torsions:
REMARK  status: ('A' for Active; 'I' for Inactive)
REMARK    1  A    between atoms: C_2  and  N_3 
REMARK    2  A    between atoms: C_8  and  N_9 
REMARK       I    between atoms: N_9  and  C_10 
REMARK       I    between atoms: C_10  and  N_12 
REMARK    3  A    between atoms: N_12  and  C_13 
REMARK    4  A    between atoms: C_13  and  C_14 
REMARK    5  A    between atoms: C_14  and  C_15 
ROOT
HETATM    1  N   UNL     1     -41.339 -47.322  10.063  1.00  0.00    -0.310 N 
HETATM    2  C   UNL     1     -41.364 -48.340  10.992  1.00  0.00     0.298 C 
HETATM    3  O   UNL     1     -41.914 -48.277  12.074  1.00  0.00    -0.254 OA
HETATM    4  N   UNL     1     -40.682 -49.503  10.606  1.00  0.00    -0.244 NA
HETATM    5  H   UNL     1     -40.556 -47.302   9.429  1.00  0.00     0.170 HD
HETATM    6  H   UNL     1     -40.744 -49.709   9.618  1.00  0.00     0.132 HD
ENDROOT
BRANCH   1   7
HETATM    7  C   UNL     1     -42.042 -46.115  10.239  1.00  0.00     0.083 A 
HETATM    8  C   UNL     1     -43.323 -45.675   9.755  1.00  0.00     0.051 A 
HETATM    9  N   UNL     1     -43.606 -44.438  10.183  1.00  0.00    -0.301 N 
HETATM   10  C   UNL     1     -44.317 -46.313   8.857  1.00  0.00     0.072 C 
HETATM   11  N   UNL     1     -42.582 -44.101  10.964  1.00  0.00    -0.295 N 
ATOM     12  HN  UNL     1     -44.427 -43.877   9.960  1.00  0.00     0.187 HD
HETATM   13  C   UNL     1     -41.569 -45.036  10.977  1.00  0.00     0.053 A 
HETATM   14  C   UNL     1     -40.306 -44.815  11.727  1.00  0.00     0.072 C 
BRANCH  11  15
HETATM   15  C   UNL     1     -42.669 -42.853  11.705  1.00  0.00     0.144 C 
HETATM   16  C   UNL     1     -42.136 -41.663  10.925  1.00  0.00     0.028 C 
ENDBRANCH  11  15
ENDBRANCH   1   7
BRANCH   4  17
HETATM   17  C   UNL     1     -40.898 -50.610  11.537  1.00  0.00     0.099 C 
BRANCH  17  18
HETATM   18  C   UNL     1     -39.839 -50.981  12.574  1.00  0.00     0.046 C 
BRANCH  18  19
HETATM   19  C   UNL     1     -38.406 -50.478  12.322  1.00  0.00     0.122 C 
HETATM   20  C   UNL     1     -37.324 -50.975  13.287  1.00  0.00     0.032 C 
HETATM   21  C   UNL     1     -37.281 -50.240  14.627  1.00  0.00     0.004 C 
HETATM   22  C   UNL     1     -37.447 -48.732  14.474  1.00  0.00     0.026 C 
HETATM   23  C   UNL     1     -38.611 -48.417  13.556  1.00  0.00     0.168 C 
HETATM   24  O   UNL     1     -38.407 -49.036  12.287  1.00  0.00    -0.386 OA
ENDBRANCH  18  19
ENDBRANCH  17  18
ENDBRANCH   4  17
TORSDOF 5
ENDMDL
MODEL 5
REMARK VINA RESULT:      -5.9      1.132      2.165
REMARK  5 active torsions:
REMARK  status: ('A' for Active; 'I' for Inactive)
REMARK    1  A    between atoms: C_2  and  N_3 
REMARK    2  A    between atoms: C_8  and  N_9 
REMARK       I    between atoms: N_9  and  C_10 
REMARK       I    between atoms: C_10  and  N_12 
REMARK    3  A    between atoms: N_12  and  C_13 
REMARK    4  A    between atoms: C_13  and  C_14 
REMARK    5  A    between atoms: C_14  and  C_15 
ROOT
HETATM    1  N   UNL     1     -40.913 -50.498  11.156  1.00  0.00    -0.310 N 
HETATM    2  C   UNL     1     -40.894 -51.465  12.139  1.00  0.00     0.298 C 
HETATM    3  O   UNL     1     -40.740 -51.245  13.324  1.00  0.00    -0.254 OA
HETATM    4  N   UNL     1     -41.059 -52.778  11.673  1.00  0.00    -0.244 NA
HETATM    5  H   UNL     1     -40.630 -50.782  10.231  1.00  0.00     0.170 HD
HETATM    6  H   UNL     1     -41.688 -52.859  10.886  1.00  0.00     0.132 HD
ENDROOT
BRANCH   1   7
HETATM    7  C   UNL     1     -40.850 -49.121  11.443  1.00  0.00     0.083 A 
HETATM    8  C   UNL     1     -41.852 -48.091  11.411  1.00  0.00     0.051 A 
HETATM    9  N   UNL     1     -41.344 -46.907  11.777  1.00  0.00    -0.301 N 
HETATM   10  C   UNL     1     -43.279 -48.108  11.008  1.00  0.00     0.072 C 
HETATM   11  N   UNL     1     -40.076 -47.159  12.093  1.00  0.00    -0.295 N 
ATOM     12  HN  UNL     1     -41.824 -46.008  11.806  1.00  0.00     0.187 HD
HETATM   13  C   UNL     1     -39.694 -48.459  11.839  1.00  0.00     0.053 A 
HETATM   14  C   UNL     1     -38.299 -48.923  12.053  1.00  0.00     0.072 C 
BRANCH  11  15
HETATM   15  C   UNL     1     -39.290 -46.083  12.677  1.00  0.00     0.144 C 
HETATM   16  C   UNL     1     -39.372 -46.046  14.193  1.00  0.00     0.028 C 
ENDBRANCH  11  15
ENDBRANCH   1   7
BRANCH   4  17
HETATM   17  C   UNL     1     -41.220 -53.739  12.764  1.00  0.00     0.099 C 
BRANCH  17  18
HETATM   18  C   UNL     1     -42.604 -54.080  13.313  1.00  0.00     0.046 C 
BRANCH  18  19
HETATM   19  C   UNL     1     -43.816 -53.471  12.583  1.00  0.00     0.122 C 
HETATM   20  C   UNL     1     -44.367 -52.157  13.146  1.00  0.00     0.032 C 
HETATM   21  C   UNL     1     -45.266 -52.319  14.373  1.00  0.00     0.004 C 
HETATM   22  C   UNL     1     -46.235 -53.488  14.240  1.00  0.00     0.026 C 
HETATM   23  C   UNL     1     -45.508 -54.726  13.754  1.00  0.00     0.168 C 
HETATM   24  O   UNL     1     -44.869 -54.453  12.508  1.00  0.00    -0.386 OA
ENDBRANCH  18  19
ENDBRANCH  17  18
ENDBRANCH   4  17
TORSDOF 5
ENDMDL
MODEL 6
REMARK VINA RESULT:      -5.8      1.748      2.721
REMARK  5 active torsions:
REMARK  status: ('A' for Active; 'I' for Inactive)
REMARK    1  A    between atoms: C_2  and  N_3 
REMARK    2  A    between atoms: C_8  and  N_9 
REMARK       I    between atoms: N_9  and  C_10 
REMARK       I    between atoms: C_10  and  N_12 
REMARK    3  A    between atoms: N_12  and  C_13 
REMARK    4  A    between atoms: C_13  and  C_14 
REMARK    5  A    between atoms: C_14  and  C_15 
ROOT
HETATM    1  N   UNL     1     -41.022 -51.521  11.601  1.00  0.00    -0.310 N 
HETATM    2  C   UNL     1     -42.201 -51.833  12.242  1.00  0.00     0.298 C 
HETATM    3  O   UNL     1     -42.676 -51.200  13.165  1.00  0.00    -0.254 OA
HETATM    4  N   UNL     1     -42.849 -52.978  11.755  1.00  0.00    -0.244 NA
HETATM    5  H   UNL     1     -40.519 -52.283  11.173  1.00  0.00     0.170 HD
HETATM    6  H   UNL     1     -42.757 -53.110  10.756  1.00  0.00     0.132 HD
ENDROOT
BRANCH   1   7
HETATM    7  C   UNL     1     -40.281 -50.360  11.895  1.00  0.00     0.083 A 
HETATM    8  C   UNL     1     -40.453 -48.990  11.495  1.00  0.00     0.051 A 
HETATM    9  N   UNL     1     -39.506 -48.206  12.027  1.00  0.00    -0.301 N 
HETATM   10  C   UNL     1     -41.429 -48.335  10.592  1.00  0.00     0.072 C 
HETATM   11  N   UNL     1     -38.777 -49.016  12.791  1.00  0.00    -0.295 N 
ATOM     12  HN  UNL     1     -39.373 -47.206  11.879  1.00  0.00     0.187 HD
HETATM   13  C   UNL     1     -39.143 -50.341  12.693  1.00  0.00     0.053 A 
HETATM   14  C   UNL     1     -38.406 -51.414  13.408  1.00  0.00     0.072 C 
BRANCH  11  15
HETATM   15  C   UNL     1     -37.745 -48.422  13.627  1.00  0.00     0.144 C 
HETATM   16  C   UNL     1     -38.270 -47.964  14.977  1.00  0.00     0.028 C 
ENDBRANCH  11  15
ENDBRANCH   1   7
BRANCH   4  17
HETATM   17  C   UNL     1     -44.178 -53.156  12.337  1.00  0.00     0.099 C 
BRANCH  17  18
HETATM   18  C   UNL     1     -44.414 -54.154  13.468  1.00  0.00     0.046 C 
BRANCH  18  19
HETATM   19  C   UNL     1     -45.823 -54.190  14.088  1.00  0.00     0.122 C 
HETATM   20  C   UNL     1     -46.643 -52.899  14.002  1.00  0.00     0.032 C 
HETATM   21  C   UNL     1     -46.278 -51.843  15.047  1.00  0.00     0.004 C 
HETATM   22  C   UNL     1     -46.052 -52.442  16.431  1.00  0.00     0.026 C 
HETATM   23  C   UNL     1     -45.152 -53.659  16.341  1.00  0.00     0.168 C 
HETATM   24  O   UNL     1     -45.729 -54.621  15.461  1.00  0.00    -0.386 OA
ENDBRANCH  18  19
ENDBRANCH  17  18
ENDBRANCH   4  17
TORSDOF 5
ENDMDL
MODEL 7
REMARK VINA RESULT:      -5.8      2.671      6.792
REMARK  5 active torsions:
REMARK  status: ('A' for Active; 'I' for Inactive)
REMARK    1  A    between atoms: C_2  and  N_3 
REMARK    2  A    between atoms: C_8  and  N_9 
REMARK       I    between atoms: N_9  and  C_10 
REMARK       I    between atoms: C_10  and  N_12 
REMARK    3  A    between atoms: N_12  and  C_13 
REMARK    4  A    between atoms: C_13  and  C_14 
REMARK    5  A    between atoms: C_14  and  C_15 
ROOT
HETATM    1  N   UNL     1     -40.826 -52.235  11.807  1.00  0.00    -0.310 N 
HETATM    2  C   UNL     1     -41.164 -50.899  11.825  1.00  0.00     0.298 C 
HETATM    3  O   UNL     1     -41.861 -50.372  12.671  1.00  0.00    -0.254 OA
HETATM    4  N   UNL     1     -40.645 -50.148  10.761  1.00  0.00    -0.244 NA
HETATM    5  H   UNL     1     -40.624 -52.643  10.908  1.00  0.00     0.170 HD
HETATM    6  H   UNL     1     -39.724 -50.440  10.461  1.00  0.00     0.132 HD
ENDROOT
BRANCH   1   7
HETATM    7  C   UNL     1     -41.183 -53.124  12.840  1.00  0.00     0.083 A 
HETATM    8  C   UNL     1     -40.407 -53.737  13.884  1.00  0.00     0.051 A 
HETATM    9  N   UNL     1     -41.170 -54.516  14.662  1.00  0.00    -0.301 N 
HETATM   10  C   UNL     1     -38.959 -53.696  14.198  1.00  0.00     0.072 C 
HETATM   11  N   UNL     1     -42.405 -54.374  14.187  1.00  0.00    -0.295 N 
ATOM     12  HN  UNL     1     -40.870 -55.092  15.448  1.00  0.00     0.187 HD
HETATM   13  C   UNL     1     -42.469 -53.611  13.041  1.00  0.00     0.053 A 
HETATM   14  C   UNL     1     -43.745 -53.394  12.312  1.00  0.00     0.072 C 
BRANCH  11  15
HETATM   15  C   UNL     1     -43.497 -54.990  14.925  1.00  0.00     0.144 C 
HETATM   16  C   UNL     1     -44.114 -54.059  15.954  1.00  0.00     0.028 C 
ENDBRANCH  11  15
ENDBRANCH   1   7
BRANCH   4  17
HETATM   17  C   UNL     1     -40.873 -48.713  10.928  1.00  0.00     0.099 C 
BRANCH  17  18
HETATM   18  C   UNL     1     -41.878 -47.971  10.049  1.00  0.00     0.046 C 
BRANCH  18  19
HETATM   19  C   UNL     1     -42.983 -47.175  10.768  1.00  0.00     0.122 C 
HETATM   20  C   UNL     1     -44.388 -47.788  10.757  1.00  0.00     0.032 C 
HETATM   21  C   UNL     1     -45.165 -47.572   9.458  1.00  0.00     0.004 C 
HETATM   22  C   UNL     1     -45.010 -46.158   8.910  1.00  0.00     0.026 C 
HETATM   23  C   UNL     1     -43.552 -45.744   8.914  1.00  0.00     0.168 C 
HETATM   24  O   UNL     1     -43.028 -45.835  10.238  1.00  0.00    -0.386 OA
ENDBRANCH  18  19
ENDBRANCH  17  18
ENDBRANCH   4  17
TORSDOF 5
ENDMDL
MODEL 8
REMARK VINA RESULT:      -5.7      2.883      4.425
REMARK  5 active torsions:
REMARK  status: ('A' for Active; 'I' for Inactive)
REMARK    1  A    between atoms: C_2  and  N_3 
REMARK    2  A    between atoms: C_8  and  N_9 
REMARK       I    between atoms: N_9  and  C_10 
REMARK       I    between atoms: C_10  and  N_12 
REMARK    3  A    between atoms: N_12  and  C_13 
REMARK    4  A    between atoms: C_13  and  C_14 
REMARK    5  A    between atoms: C_14  and  C_15 
ROOT
HETATM    1  N   UNL     1     -40.965 -48.138  10.617  1.00  0.00    -0.310 N 
HETATM    2  C   UNL     1     -41.375 -49.238  11.339  1.00  0.00     0.298 C 
HETATM    3  O   UNL     1     -42.303 -49.244  12.125  1.00  0.00    -0.254 OA
HETATM    4  N   UNL     1     -40.624 -50.401  11.115  1.00  0.00    -0.244 NA
HETATM    5  H   UNL     1     -39.996 -48.109  10.341  1.00  0.00     0.170 HD
HETATM    6  H   UNL     1     -40.300 -50.504  10.162  1.00  0.00     0.132 HD
ENDROOT
BRANCH   1   7
HETATM    7  C   UNL     1     -41.653 -46.910  10.647  1.00  0.00     0.083 A 
HETATM    8  C   UNL     1     -42.840 -46.462   9.971  1.00  0.00     0.051 A 
HETATM    9  N   UNL     1     -43.147 -45.203  10.309  1.00  0.00    -0.301 N 
HETATM   10  C   UNL     1     -43.715 -47.113   8.966  1.00  0.00     0.072 C 
HETATM   11  N   UNL     1     -42.234 -44.857  11.214  1.00  0.00    -0.295 N 
ATOM     12  HN  UNL     1     -43.913 -44.633   9.951  1.00  0.00     0.187 HD
HETATM   13  C   UNL     1     -41.259 -45.813  11.404  1.00  0.00     0.053 A 
HETATM   14  C   UNL     1     -40.108 -45.589  12.316  1.00  0.00     0.072 C 
BRANCH  11  15
HETATM   15  C   UNL     1     -42.390 -43.578  11.888  1.00  0.00     0.144 C 
HETATM   16  C   UNL     1     -41.716 -42.434  11.150  1.00  0.00     0.028 C 
ENDBRANCH  11  15
ENDBRANCH   1   7
BRANCH   4  17
HETATM   17  C   UNL     1     -41.212 -51.576  11.756  1.00  0.00     0.099 C 
BRANCH  17  18
HETATM   18  C   UNL     1     -40.468 -52.323  12.862  1.00  0.00     0.046 C 
BRANCH  18  19
HETATM   19  C   UNL     1     -40.679 -53.846  12.942  1.00  0.00     0.122 C 
HETATM   20  C   UNL     1     -41.872 -54.331  13.773  1.00  0.00     0.032 C 
HETATM   21  C   UNL     1     -41.631 -54.347  15.283  1.00  0.00     0.004 C 
HETATM   22  C   UNL     1     -40.252 -54.886  15.650  1.00  0.00     0.026 C 
HETATM   23  C   UNL     1     -39.184 -54.239  14.791  1.00  0.00     0.168 C 
HETATM   24  O   UNL     1     -39.468 -54.470  13.413  1.00  0.00    -0.386 OA
ENDBRANCH  18  19
ENDBRANCH  17  18
ENDBRANCH   4  17
TORSDOF 5
ENDMDL
MODEL 9
REMARK VINA RESULT:      -5.5      2.673      7.228
REMARK  5 active torsions:
REMARK  status: ('A' for Active; 'I' for Inactive)
REMARK    1  A    between atoms: C_2  and  N_3 
REMARK    2  A    between atoms: C_8  and  N_9 
REMARK       I    between atoms: N_9  and  C_10 
REMARK       I    between atoms: C_10  and  N_12 
REMARK    3  A    between atoms: N_12  and  C_13 
REMARK    4  A    between atoms: C_13  and  C_14 
REMARK    5  A    between atoms: C_14  and  C_15 
ROOT
HETATM    1  N   UNL     1     -41.064 -52.472  12.117  1.00  0.00    -0.310 N 
HETATM    2  C   UNL     1     -41.395 -51.136  12.046  1.00  0.00     0.298 C 
HETATM    3  O   UNL     1     -42.170 -50.574  12.795  1.00  0.00    -0.254 OA
HETATM    4  N   UNL     1     -40.768 -50.431  11.008  1.00  0.00    -0.244 NA
HETATM    5  H   UNL     1     -40.776 -52.917  11.259  1.00  0.00     0.170 HD
HETATM    6  H   UNL     1     -39.824 -50.736  10.814  1.00  0.00     0.132 HD
ENDROOT
BRANCH   1   7
HETATM    7  C   UNL     1     -41.527 -53.317  13.144  1.00  0.00     0.083 A 
HETATM    8  C   UNL     1     -42.798 -53.955  13.358  1.00  0.00     0.051 A 
HETATM    9  N   UNL     1     -42.791 -54.688  14.478  1.00  0.00    -0.301 N 
HETATM   10  C   UNL     1     -44.075 -53.897  12.607  1.00  0.00     0.072 C 
HETATM   11  N   UNL     1     -41.550 -54.585  14.951  1.00  0.00    -0.295 N 
ATOM     12  HN  UNL     1     -43.567 -55.212  14.882  1.00  0.00     0.187 HD
HETATM   13  C   UNL     1     -40.761 -53.710  14.236  1.00  0.00     0.053 A 
HETATM   14  C   UNL     1     -39.368 -53.397  14.644  1.00  0.00     0.072 C 
BRANCH  11  15
HETATM   15  C   UNL     1     -41.185 -55.402  16.097  1.00  0.00     0.144 C 
HETATM   16  C   UNL     1     -41.914 -54.999  17.367  1.00  0.00     0.028 C 
ENDBRANCH  11  15
ENDBRANCH   1   7
BRANCH   4  17
HETATM   17  C   UNL     1     -41.005 -48.990  11.092  1.00  0.00     0.099 C 
BRANCH  17  18
HETATM   18  C   UNL     1     -41.971 -48.295  10.135  1.00  0.00     0.046 C 
BRANCH  18  19
HETATM   19  C   UNL     1     -43.230 -47.658  10.752  1.00  0.00     0.122 C 
HETATM   20  C   UNL     1     -44.474 -47.592   9.860  1.00  0.00     0.032 C 
HETATM   21  C   UNL     1     -44.467 -46.448   8.844  1.00  0.00     0.004 C 
HETATM   22  C   UNL     1     -43.958 -45.140   9.438  1.00  0.00     0.026 C 
HETATM   23  C   UNL     1     -42.678 -45.373  10.217  1.00  0.00     0.168 C 
HETATM   24  O   UNL     1     -42.905 -46.340  11.240  1.00  0.00    -0.386 OA
ENDBRANCH  18  19
ENDBRANCH  17  18
ENDBRANCH   4  17
TORSDOF 5
ENDMDL
