MODEL 1
REMARK VINA RESULT:      -5.9      0.000      0.000
REMARK  5 active torsions:
REMARK  status: ('A' for Active; 'I' for Inactive)
REMARK    1  A    between atoms: O_2  and  C_3 
REMARK    2  A    between atoms: C_3  and  C_4 
REMARK       I    between atoms: C_4  and  N_6 
REMARK    3  A    between atoms: N_6  and  C_7 
REMARK    4  A    between atoms: C_10  and  O_11 
REMARK    5  A    between atoms: C_15  and  N_16 
REMARK       I    between atoms: N_19  and  C_22 
ROOT
HETATM    1  C   UNL     1     -40.335 -49.590  11.615  1.00  0.00     0.079 A 
HETATM    2  C   UNL     1     -39.022 -49.122  11.752  1.00  0.00     0.038 A 
HETATM    3  C   UNL     1     -38.217 -49.621  12.751  1.00  0.00     0.058 A 
HETATM    4  C   UNL     1     -38.756 -50.571  13.588  1.00  0.00     0.143 A 
HETATM    5  N   UNL     1     -40.028 -51.049  13.499  1.00  0.00    -0.321 N 
ATOM      6  HN  UNL     1     -40.366 -51.755  14.152  1.00  0.00     0.169 HD
HETATM    7  C   UNL     1     -40.844 -50.563  12.517  1.00  0.00     0.132 A 
ENDROOT
BRANCH   7   8
HETATM    8  N   UNL     1     -42.147 -51.064  12.439  1.00  0.00    -0.362 N 
HETATM    9  C   UNL     1     -43.282 -50.480  13.191  1.00  0.00     0.144 C 
HETATM   10  C   UNL     1     -43.878 -51.418  14.264  1.00  0.00     0.145 C 
HETATM   11  N   UNL     1     -44.049 -52.789  13.778  1.00  0.00    -0.349 N 
HETATM   12  C   UNL     1     -42.801 -53.339  13.239  1.00  0.00     0.145 C 
HETATM   13  C   UNL     1     -45.219 -53.504  13.638  1.00  0.00     0.215 C 
HETATM   14  C   UNL     1     -42.325 -52.483  12.049  1.00  0.00     0.144 C 
HETATM   15  O   UNL     1     -45.222 -54.654  13.190  1.00  0.00    -0.274 OA
HETATM   16  C   UNL     1     -46.543 -52.892  14.030  1.00  0.00     0.117 C 
ENDBRANCH   7   8
BRANCH   1  17
HETATM   17  N   UNL     1     -41.059 -49.109  10.498  1.00  0.00    -0.322 N 
HETATM   18  C   UNL     1     -41.924 -48.032  10.639  1.00  0.00     0.245 C 
HETATM   19  O   UNL     1     -42.120 -47.414  11.686  1.00  0.00    -0.271 OA
HETATM   20  H   UNL     1     -41.256 -49.779   9.762  1.00  0.00     0.169 HD
BRANCH  18  21
HETATM   21  C   UNL     1     -42.722 -47.713   9.382  1.00  0.00     0.270 C 
BRANCH  21  22
HETATM   22  O   UNL     1     -44.004 -47.156   9.650  1.00  0.00    -0.387 OA
HETATM   23  C   UNL     1     -44.250 -45.982   8.878  1.00  0.00     0.202 C 
ENDBRANCH  21  22
ENDBRANCH  18  21
ENDBRANCH   1  17
BRANCH   4  24
HETATM   24  O   UNL     1     -37.868 -51.044  14.535  1.00  0.00    -0.341 OA
HETATM   25  C   UNL     1     -37.179 -50.035  15.253  1.00  0.00     0.211 C 
ENDBRANCH   4  24
TORSDOF 5
ENDMDL
MODEL 2
REMARK VINA RESULT:      -5.8      2.744      6.084
REMARK  5 active torsions:
REMARK  status: ('A' for Active; 'I' for Inactive)
REMARK    1  A    between atoms: O_2  and  C_3 
REMARK    2  A    between atoms: C_3  and  C_4 
REMARK       I    between atoms: C_4  and  N_6 
REMARK    3  A    between atoms: N_6  and  C_7 
REMARK    4  A    between atoms: C_10  and  O_11 
REMARK    5  A    between atoms: C_15  and  N_16 
REMARK       I    between atoms: N_19  and  C_22 
ROOT
HETATM    1  C   UNL     1     -42.672 -45.880  10.533  1.00  0.00     0.079 A 
HETATM    2  C   UNL     1     -43.504 -45.294   9.570  1.00  0.00     0.038 A 
HETATM    3  C   UNL     1     -44.305 -46.089   8.782  1.00  0.00     0.058 A 
HETATM    4  C   UNL     1     -44.242 -47.450   8.979  1.00  0.00     0.143 A 
HETATM    5  N   UNL     1     -43.444 -48.063   9.894  1.00  0.00    -0.321 N 
ATOM      6  HN  UNL     1     -43.446 -49.079   9.990  1.00  0.00     0.169 HD
HETATM    7  C   UNL     1     -42.639 -47.292  10.684  1.00  0.00     0.132 A 
ENDROOT
BRANCH   7   8
HETATM    8  N   UNL     1     -41.825 -47.938  11.619  1.00  0.00    -0.362 N 
HETATM    9  C   UNL     1     -40.411 -48.290  11.352  1.00  0.00     0.144 C 
HETATM   10  C   UNL     1     -40.135 -49.809  11.307  1.00  0.00     0.145 C 
HETATM   11  N   UNL     1     -40.796 -50.531  12.397  1.00  0.00    -0.349 N 
HETATM   12  C   UNL     1     -42.237 -50.263  12.436  1.00  0.00     0.145 C 
HETATM   13  C   UNL     1     -40.215 -51.258  13.413  1.00  0.00     0.215 C 
HETATM   14  C   UNL     1     -42.482 -48.759  12.665  1.00  0.00     0.144 C 
HETATM   15  O   UNL     1     -40.897 -51.802  14.287  1.00  0.00    -0.274 OA
HETATM   16  C   UNL     1     -38.715 -51.407  13.489  1.00  0.00     0.117 C 
ENDBRANCH   7   8
BRANCH   1  17
HETATM   17  N   UNL     1     -41.965 -44.990  11.376  1.00  0.00    -0.322 N 
HETATM   18  C   UNL     1     -40.714 -44.519  11.000  1.00  0.00     0.245 C 
HETATM   19  O   UNL     1     -40.139 -44.801   9.948  1.00  0.00    -0.271 OA
HETATM   20  H   UNL     1     -42.169 -45.045  12.368  1.00  0.00     0.169 HD
BRANCH  18  21
HETATM   21  C   UNL     1     -40.027 -43.673  12.064  1.00  0.00     0.270 C 
BRANCH  21  22
HETATM   22  O   UNL     1     -40.058 -44.257  13.360  1.00  0.00    -0.387 OA
HETATM   23  C   UNL     1     -39.022 -45.221  13.540  1.00  0.00     0.202 C 
ENDBRANCH  21  22
ENDBRANCH  18  21
ENDBRANCH   1  17
BRANCH   4  24
HETATM   24  O   UNL     1     -45.106 -48.167   8.172  1.00  0.00    -0.341 OA
HETATM   25  C   UNL     1     -46.429 -48.271   8.671  1.00  0.00     0.211 C 
ENDBRANCH   4  24
TORSDOF 5
ENDMDL
MODEL 3
REMARK VINA RESULT:      -5.6      1.999      6.322
REMARK  5 active torsions:
REMARK  status: ('A' for Active; 'I' for Inactive)
REMARK    1  A    between atoms: O_2  and  C_3 
REMARK    2  A    between atoms: C_3  and  C_4 
REMARK       I    between atoms: C_4  and  N_6 
REMARK    3  A    between atoms: N_6  and  C_7 
REMARK    4  A    between atoms: C_10  and  O_11 
REMARK    5  A    between atoms: C_15  and  N_16 
REMARK       I    between atoms: N_19  and  C_22 
ROOT
HETATM    1  C   UNL     1     -41.152 -51.722  12.559  1.00  0.00     0.079 A 
HETATM    2  C   UNL     1     -41.587 -53.039  12.755  1.00  0.00     0.038 A 
HETATM    3  C   UNL     1     -42.933 -53.307  12.863  1.00  0.00     0.058 A 
HETATM    4  C   UNL     1     -43.803 -52.243  12.778  1.00  0.00     0.143 A 
HETATM    5  N   UNL     1     -43.425 -50.948  12.598  1.00  0.00    -0.321 N 
ATOM      6  HN  UNL     1     -44.123 -50.205  12.543  1.00  0.00     0.169 HD
HETATM    7  C   UNL     1     -42.094 -50.661  12.493  1.00  0.00     0.132 A 
ENDROOT
BRANCH   7   8
HETATM    8  N   UNL     1     -41.724 -49.326  12.308  1.00  0.00    -0.362 N 
HETATM    9  C   UNL     1     -42.016 -48.263  13.298  1.00  0.00     0.144 C 
HETATM   10  C   UNL     1     -43.004 -47.187  12.797  1.00  0.00     0.145 C 
HETATM   11  N   UNL     1     -42.709 -46.747  11.431  1.00  0.00    -0.349 N 
HETATM   12  C   UNL     1     -42.646 -47.875  10.495  1.00  0.00     0.145 C 
HETATM   13  C   UNL     1     -42.352 -45.489  10.999  1.00  0.00     0.215 C 
HETATM   14  C   UNL     1     -41.525 -48.843  10.920  1.00  0.00     0.144 C 
HETATM   15  O   UNL     1     -42.107 -45.260   9.810  1.00  0.00    -0.274 OA
HETATM   16  C   UNL     1     -42.246 -44.344  11.977  1.00  0.00     0.117 C 
ENDBRANCH   7   8
BRANCH   1  17
HETATM   17  N   UNL     1     -39.764 -51.546  12.347  1.00  0.00    -0.322 N 
HETATM   18  C   UNL     1     -38.924 -51.273  13.420  1.00  0.00     0.245 C 
HETATM   19  O   UNL     1     -39.282 -51.182  14.594  1.00  0.00    -0.271 OA
HETATM   20  H   UNL     1     -39.483 -51.212  11.432  1.00  0.00     0.169 HD
BRANCH  18  21
HETATM   21  C   UNL     1     -37.484 -50.985  13.018  1.00  0.00     0.270 C 
BRANCH  21  22
HETATM   22  O   UNL     1     -37.219 -51.225  11.641  1.00  0.00    -0.387 OA
HETATM   23  C   UNL     1     -37.134 -50.014  10.892  1.00  0.00     0.202 C 
ENDBRANCH  21  22
ENDBRANCH  18  21
ENDBRANCH   1  17
BRANCH   4  24
HETATM   24  O   UNL     1     -45.134 -52.607  12.858  1.00  0.00    -0.341 OA
HETATM   25  C   UNL     1     -46.006 -51.567  13.263  1.00  0.00     0.211 C 
ENDBRANCH   4  24
TORSDOF 5
ENDMDL
MODEL 4
REMARK VINA RESULT:      -5.6      1.597      4.992
REMARK  5 active torsions:
REMARK  status: ('A' for Active; 'I' for Inactive)
REMARK    1  A    between atoms: O_2  and  C_3 
REMARK    2  A    between atoms: C_3  and  C_4 
REMARK       I    between atoms: C_4  and  N_6 
REMARK    3  A    between atoms: N_6  and  C_7 
REMARK    4  A    between atoms: C_10  and  O_11 
REMARK    5  A    between atoms: C_15  and  N_16 
REMARK       I    between atoms: N_19  and  C_22 
ROOT
HETATM    1  C   UNL     1     -40.725 -49.426  12.755  1.00  0.00     0.079 A 
HETATM    2  C   UNL     1     -40.146 -48.383  12.020  1.00  0.00     0.038 A 
HETATM    3  C   UNL     1     -40.852 -47.792  10.997  1.00  0.00     0.058 A 
HETATM    4  C   UNL     1     -42.116 -48.270  10.736  1.00  0.00     0.143 A 
HETATM    5  N   UNL     1     -42.715 -49.285  11.417  1.00  0.00    -0.321 N 
ATOM      6  HN  UNL     1     -43.657 -49.591  11.173  1.00  0.00     0.169 HD
HETATM    7  C   UNL     1     -42.029 -49.887  12.434  1.00  0.00     0.132 A 
ENDROOT
BRANCH   7   8
HETATM    8  N   UNL     1     -42.659 -50.928  13.122  1.00  0.00    -0.362 N 
HETATM    9  C   UNL     1     -42.482 -52.355  12.765  1.00  0.00     0.144 C 
HETATM   10  C   UNL     1     -43.765 -53.040  12.246  1.00  0.00     0.145 C 
HETATM   11  N   UNL     1     -44.943 -52.707  13.050  1.00  0.00    -0.349 N 
HETATM   12  C   UNL     1     -45.135 -51.257  13.165  1.00  0.00     0.145 C 
HETATM   13  C   UNL     1     -45.738 -53.555  13.790  1.00  0.00     0.215 C 
HETATM   14  C   UNL     1     -43.912 -50.623  13.853  1.00  0.00     0.144 C 
HETATM   15  O   UNL     1     -46.696 -53.133  14.445  1.00  0.00    -0.274 OA
HETATM   16  C   UNL     1     -45.456 -55.038  13.821  1.00  0.00     0.117 C 
ENDBRANCH   7   8
BRANCH   1  17
HETATM   17  N   UNL     1     -39.980 -49.903  13.859  1.00  0.00    -0.322 N 
HETATM   18  C   UNL     1     -39.137 -50.997  13.711  1.00  0.00     0.245 C 
HETATM   19  O   UNL     1     -38.953 -51.611  12.659  1.00  0.00    -0.271 OA
HETATM   20  H   UNL     1     -40.369 -49.730  14.779  1.00  0.00     0.169 HD
BRANCH  18  21
HETATM   21  C   UNL     1     -38.502 -51.469  15.012  1.00  0.00     0.270 C 
BRANCH  21  22
HETATM   22  O   UNL     1     -39.450 -51.779  16.026  1.00  0.00    -0.387 OA
HETATM   23  C   UNL     1     -40.134 -53.003  15.765  1.00  0.00     0.202 C 
ENDBRANCH  21  22
ENDBRANCH  18  21
ENDBRANCH   1  17
BRANCH   4  24
HETATM   24  O   UNL     1     -42.766 -47.594   9.720  1.00  0.00    -0.341 OA
HETATM   25  C   UNL     1     -44.168 -47.480   9.891  1.00  0.00     0.211 C 
ENDBRANCH   4  24
TORSDOF 5
ENDMDL
MODEL 5
REMARK VINA RESULT:      -5.5      2.998      7.680
REMARK  5 active torsions:
REMARK  status: ('A' for Active; 'I' for Inactive)
REMARK    1  A    between atoms: O_2  and  C_3 
REMARK    2  A    between atoms: C_3  and  C_4 
REMARK       I    between atoms: C_4  and  N_6 
REMARK    3  A    between atoms: N_6  and  C_7 
REMARK    4  A    between atoms: C_10  and  O_11 
REMARK    5  A    between atoms: C_15  and  N_16 
REMARK       I    between atoms: N_19  and  C_22 
ROOT
HETATM    1  C   UNL     1     -42.948 -54.448  14.386  1.00  0.00     0.079 A 
HETATM    2  C   UNL     1     -44.232 -55.007  14.370  1.00  0.00     0.038 A 
HETATM    3  C   UNL     1     -45.215 -54.443  13.587  1.00  0.00     0.058 A 
HETATM    4  C   UNL     1     -44.881 -53.330  12.849  1.00  0.00     0.143 A 
HETATM    5  N   UNL     1     -43.650 -52.749  12.841  1.00  0.00    -0.321 N 
ATOM      6  HN  UNL     1     -43.468 -51.923  12.269  1.00  0.00     0.169 HD
HETATM    7  C   UNL     1     -42.663 -53.291  13.613  1.00  0.00     0.132 A 
ENDROOT
BRANCH   7   8
HETATM    8  N   UNL     1     -41.405 -52.681  13.592  1.00  0.00    -0.362 N 
HETATM    9  C   UNL     1     -40.967 -51.699  14.612  1.00  0.00     0.144 C 
HETATM   10  C   UNL     1     -40.742 -50.274  14.060  1.00  0.00     0.145 C 
HETATM   11  N   UNL     1     -40.010 -50.273  12.791  1.00  0.00    -0.349 N 
HETATM   12  C   UNL     1     -40.654 -51.126  11.787  1.00  0.00     0.145 C 
HETATM   13  C   UNL     1     -38.778 -49.719  12.519  1.00  0.00     0.215 C 
HETATM   14  C   UNL     1     -40.700 -52.581  12.292  1.00  0.00     0.144 C 
HETATM   15  O   UNL     1     -38.262 -49.812  11.401  1.00  0.00    -0.274 OA
HETATM   16  C   UNL     1     -38.017 -48.977  13.591  1.00  0.00     0.117 C 
ENDBRANCH   7   8
BRANCH   1  17
HETATM   17  N   UNL     1     -41.968 -55.151  15.127  1.00  0.00    -0.322 N 
HETATM   18  C   UNL     1     -41.709 -54.802  16.446  1.00  0.00     0.245 C 
HETATM   19  O   UNL     1     -42.287 -53.911  17.069  1.00  0.00    -0.271 OA
HETATM   20  H   UNL     1     -41.217 -55.578  14.596  1.00  0.00     0.169 HD
BRANCH  18  21
HETATM   21  C   UNL     1     -40.546 -55.562  17.069  1.00  0.00     0.270 C 
BRANCH  21  22
HETATM   22  O   UNL     1     -39.670 -56.143  16.111  1.00  0.00    -0.387 OA
HETATM   23  C   UNL     1     -38.475 -55.382  15.945  1.00  0.00     0.202 C 
ENDBRANCH  21  22
ENDBRANCH  18  21
ENDBRANCH   1  17
BRANCH   4  24
HETATM   24  O   UNL     1     -45.915 -52.854  12.065  1.00  0.00    -0.341 OA
HETATM   25  C   UNL     1     -46.552 -51.693  12.571  1.00  0.00     0.211 C 
ENDBRANCH   4  24
TORSDOF 5
ENDMDL
MODEL 6
REMARK VINA RESULT:      -5.5      3.840      6.724
REMARK  5 active torsions:
REMARK  status: ('A' for Active; 'I' for Inactive)
REMARK    1  A    between atoms: O_2  and  C_3 
REMARK    2  A    between atoms: C_3  and  C_4 
REMARK       I    between atoms: C_4  and  N_6 
REMARK    3  A    between atoms: N_6  and  C_7 
REMARK    4  A    between atoms: C_10  and  O_11 
REMARK    5  A    between atoms: C_15  and  N_16 
REMARK       I    between atoms: N_19  and  C_22 
ROOT
HETATM    1  C   UNL     1     -42.777 -45.906  10.564  1.00  0.00     0.079 A 
HETATM    2  C   UNL     1     -43.562 -45.307   9.570  1.00  0.00     0.038 A 
HETATM    3  C   UNL     1     -44.420 -46.078   8.818  1.00  0.00     0.058 A 
HETATM    4  C   UNL     1     -44.459 -47.429   9.081  1.00  0.00     0.143 A 
HETATM    5  N   UNL     1     -43.709 -48.054  10.029  1.00  0.00    -0.321 N 
ATOM      6  HN  UNL     1     -43.786 -49.061  10.174  1.00  0.00     0.169 HD
HETATM    7  C   UNL     1     -42.848 -47.307  10.783  1.00  0.00     0.132 A 
ENDROOT
BRANCH   7   8
HETATM    8  N   UNL     1     -42.085 -47.965  11.752  1.00  0.00    -0.362 N 
HETATM    9  C   UNL     1     -42.226 -47.704  13.204  1.00  0.00     0.144 C 
HETATM   10  C   UNL     1     -40.979 -47.067  13.855  1.00  0.00     0.145 C 
HETATM   11  N   UNL     1     -39.732 -47.703  13.420  1.00  0.00    -0.349 N 
HETATM   12  C   UNL     1     -39.607 -47.721  11.959  1.00  0.00     0.145 C 
HETATM   13  C   UNL     1     -38.810 -48.382  14.186  1.00  0.00     0.215 C 
HETATM   14  C   UNL     1     -40.772 -48.521  11.346  1.00  0.00     0.144 C 
HETATM   15  O   UNL     1     -37.805 -48.893  13.683  1.00  0.00    -0.274 OA
HETATM   16  C   UNL     1     -39.006 -48.522  15.677  1.00  0.00     0.117 C 
ENDBRANCH   7   8
BRANCH   1  17
HETATM   17  N   UNL     1     -42.006 -45.030  11.365  1.00  0.00    -0.322 N 
HETATM   18  C   UNL     1     -40.767 -44.587  10.920  1.00  0.00     0.245 C 
HETATM   19  O   UNL     1     -40.256 -44.882   9.839  1.00  0.00    -0.271 OA
HETATM   20  H   UNL     1     -42.157 -45.079  12.366  1.00  0.00     0.169 HD
BRANCH  18  21
HETATM   21  C   UNL     1     -40.005 -43.755  11.942  1.00  0.00     0.270 C 
BRANCH  21  22
HETATM   22  O   UNL     1     -40.303 -42.366  11.880  1.00  0.00    -0.387 OA
HETATM   23  C   UNL     1     -39.691 -41.637  12.942  1.00  0.00     0.202 C 
ENDBRANCH  21  22
ENDBRANCH  18  21
ENDBRANCH   1  17
BRANCH   4  24
HETATM   24  O   UNL     1     -45.374 -48.118   8.308  1.00  0.00    -0.341 OA
HETATM   25  C   UNL     1     -46.673 -48.205   8.867  1.00  0.00     0.211 C 
ENDBRANCH   4  24
TORSDOF 5
ENDMDL
MODEL 7
REMARK VINA RESULT:      -5.5      1.636      5.160
REMARK  5 active torsions:
REMARK  status: ('A' for Active; 'I' for Inactive)
REMARK    1  A    between atoms: O_2  and  C_3 
REMARK    2  A    between atoms: C_3  and  C_4 
REMARK       I    between atoms: C_4  and  N_6 
REMARK    3  A    between atoms: N_6  and  C_7 
REMARK    4  A    between atoms: C_10  and  O_11 
REMARK    5  A    between atoms: C_15  and  N_16 
REMARK       I    between atoms: N_19  and  C_22 
ROOT
HETATM    1  C   UNL     1     -40.905 -47.928  11.914  1.00  0.00     0.079 A 
HETATM    2  C   UNL     1     -40.891 -46.871  10.994  1.00  0.00     0.038 A 
HETATM    3  C   UNL     1     -41.917 -46.741  10.085  1.00  0.00     0.058 A 
HETATM    4  C   UNL     1     -42.924 -47.679  10.122  1.00  0.00     0.143 A 
HETATM    5  N   UNL     1     -42.974 -48.726  10.991  1.00  0.00    -0.321 N 
ATOM      6  HN  UNL     1     -43.751 -49.386  10.965  1.00  0.00     0.169 HD
HETATM    7  C   UNL     1     -41.963 -48.875  11.898  1.00  0.00     0.132 A 
ENDROOT
BRANCH   7   8
HETATM    8  N   UNL     1     -42.031 -49.955  12.783  1.00  0.00    -0.362 N 
HETATM    9  C   UNL     1     -41.484 -51.295  12.464  1.00  0.00     0.144 C 
HETATM   10  C   UNL     1     -42.553 -52.402  12.346  1.00  0.00     0.145 C 
HETATM   11  N   UNL     1     -43.548 -52.338  13.419  1.00  0.00    -0.349 N 
HETATM   12  C   UNL     1     -44.174 -51.015  13.508  1.00  0.00     0.145 C 
HETATM   13  C   UNL     1     -43.818 -53.280  14.388  1.00  0.00     0.215 C 
HETATM   14  C   UNL     1     -43.102 -49.950  13.808  1.00  0.00     0.144 C 
HETATM   15  O   UNL     1     -44.676 -53.086  15.254  1.00  0.00    -0.274 OA
HETATM   16  C   UNL     1     -43.064 -54.588  14.417  1.00  0.00     0.117 C 
ENDBRANCH   7   8
BRANCH   1  17
HETATM   17  N   UNL     1     -39.875 -47.927  12.884  1.00  0.00    -0.322 N 
HETATM   18  C   UNL     1     -38.708 -48.647  12.663  1.00  0.00     0.245 C 
HETATM   19  O   UNL     1     -38.463 -49.304  11.650  1.00  0.00    -0.271 OA
HETATM   20  H   UNL     1     -40.156 -47.770  13.846  1.00  0.00     0.169 HD
BRANCH  18  21
HETATM   21  C   UNL     1     -37.751 -48.652  13.847  1.00  0.00     0.270 C 
BRANCH  21  22
HETATM   22  O   UNL     1     -37.428 -49.957  14.311  1.00  0.00    -0.387 OA
HETATM   23  C   UNL     1     -36.833 -49.933  15.607  1.00  0.00     0.202 C 
ENDBRANCH  21  22
ENDBRANCH  18  21
ENDBRANCH   1  17
BRANCH   4  24
HETATM   24  O   UNL     1     -43.929 -47.450   9.203  1.00  0.00    -0.341 OA
HETATM   25  C   UNL     1     -43.596 -47.788   7.867  1.00  0.00     0.211 C 
ENDBRANCH   4  24
TORSDOF 5
ENDMDL
MODEL 8
REMARK VINA RESULT:      -5.4      2.179      5.478
REMARK  5 active torsions:
REMARK  status: ('A' for Active; 'I' for Inactive)
REMARK    1  A    between atoms: O_2  and  C_3 
REMARK    2  A    between atoms: C_3  and  C_4 
REMARK       I    between atoms: C_4  and  N_6 
REMARK    3  A    between atoms: N_6  and  C_7 
REMARK    4  A    between atoms: C_10  and  O_11 
REMARK    5  A    between atoms: C_15  and  N_16 
REMARK       I    between atoms: N_19  and  C_22 
ROOT
HETATM    1  C   UNL     1     -42.519 -51.997  12.558  1.00  0.00     0.079 A 
HETATM    2  C   UNL     1     -41.921 -53.229  12.855  1.00  0.00     0.038 A 
HETATM    3  C   UNL     1     -40.577 -53.285  13.151  1.00  0.00     0.058 A 
HETATM    4  C   UNL     1     -39.872 -52.103  13.133  1.00  0.00     0.143 A 
HETATM    5  N   UNL     1     -40.408 -50.887  12.841  1.00  0.00    -0.321 N 
ATOM      6  HN  UNL     1     -39.827 -50.047  12.846  1.00  0.00     0.169 HD
HETATM    7  C   UNL     1     -41.738 -50.811  12.541  1.00  0.00     0.132 A 
ENDROOT
BRANCH   7   8
HETATM    8  N   UNL     1     -42.273 -49.553  12.244  1.00  0.00    -0.362 N 
HETATM    9  C   UNL     1     -41.882 -48.773  11.047  1.00  0.00     0.144 C 
HETATM   10  C   UNL     1     -41.140 -47.457  11.364  1.00  0.00     0.145 C 
HETATM   11  N   UNL     1     -41.765 -46.710  12.459  1.00  0.00    -0.349 N 
HETATM   12  C   UNL     1     -41.914 -47.530  13.666  1.00  0.00     0.145 C 
HETATM   13  C   UNL     1     -42.332 -45.455  12.419  1.00  0.00     0.215 C 
HETATM   14  C   UNL     1     -42.813 -48.744  13.363  1.00  0.00     0.144 C 
HETATM   15  O   UNL     1     -42.849 -44.949  13.420  1.00  0.00    -0.274 OA
HETATM   16  C   UNL     1     -42.339 -44.658  11.137  1.00  0.00     0.117 C 
ENDBRANCH   7   8
BRANCH   1  17
HETATM   17  N   UNL     1     -43.922 -52.010  12.375  1.00  0.00    -0.322 N 
HETATM   18  C   UNL     1     -44.768 -51.868  13.468  1.00  0.00     0.245 C 
HETATM   19  O   UNL     1     -44.400 -51.709  14.632  1.00  0.00    -0.271 OA
HETATM   20  H   UNL     1     -44.271 -52.520  11.572  1.00  0.00     0.169 HD
BRANCH  18  21
HETATM   21  C   UNL     1     -46.244 -52.027  13.130  1.00  0.00     0.270 C 
BRANCH  21  22
HETATM   22  O   UNL     1     -46.476 -52.507  11.811  1.00  0.00    -0.387 OA
HETATM   23  C   UNL     1     -47.371 -51.666  11.085  1.00  0.00     0.202 C 
ENDBRANCH  21  22
ENDBRANCH  18  21
ENDBRANCH   1  17
BRANCH   4  24
HETATM   24  O   UNL     1     -38.541 -52.247  13.478  1.00  0.00    -0.341 OA
HETATM   25  C   UNL     1     -37.856 -51.027  13.705  1.00  0.00     0.211 C 
ENDBRANCH   4  24
TORSDOF 5
ENDMDL
MODEL 9
REMARK VINA RESULT:      -5.2      2.848      5.708
REMARK  5 active torsions:
REMARK  status: ('A' for Active; 'I' for Inactive)
REMARK    1  A    between atoms: O_2  and  C_3 
REMARK    2  A    between atoms: C_3  and  C_4 
REMARK       I    between atoms: C_4  and  N_6 
REMARK    3  A    between atoms: N_6  and  C_7 
REMARK    4  A    between atoms: C_10  and  O_11 
REMARK    5  A    between atoms: C_15  and  N_16 
REMARK       I    between atoms: N_19  and  C_22 
ROOT
HETATM    1  C   UNL     1     -40.872 -47.326  11.337  1.00  0.00     0.079 A 
HETATM    2  C   UNL     1     -41.138 -46.129  10.659  1.00  0.00     0.038 A 
HETATM    3  C   UNL     1     -42.264 -46.023   9.873  1.00  0.00     0.058 A 
HETATM    4  C   UNL     1     -43.085 -47.125   9.785  1.00  0.00     0.143 A 
HETATM    5  N   UNL     1     -42.861 -48.309  10.417  1.00  0.00    -0.321 N 
ATOM      6  HN  UNL     1     -43.511 -49.088  10.310  1.00  0.00     0.169 HD
HETATM    7  C   UNL     1     -41.748 -48.435  11.199  1.00  0.00     0.132 A 
ENDROOT
BRANCH   7   8
HETATM    8  N   UNL     1     -41.533 -49.658  11.842  1.00  0.00    -0.362 N 
HETATM    9  C   UNL     1     -41.940 -49.915  13.243  1.00  0.00     0.144 C 
HETATM   10  C   UNL     1     -40.759 -50.151  14.211  1.00  0.00     0.145 C 
HETATM   11  N   UNL     1     -39.743 -51.044  13.648  1.00  0.00    -0.349 N 
HETATM   12  C   UNL     1     -39.264 -50.575  12.344  1.00  0.00     0.145 C 
HETATM   13  C   UNL     1     -39.340 -52.276  14.114  1.00  0.00     0.215 C 
HETATM   14  C   UNL     1     -40.436 -50.523  11.346  1.00  0.00     0.144 C 
HETATM   15  O   UNL     1     -38.480 -52.939  13.524  1.00  0.00    -0.274 OA
HETATM   16  C   UNL     1     -39.945 -52.857  15.369  1.00  0.00     0.117 C 
ENDBRANCH   7   8
BRANCH   1  17
HETATM   17  N   UNL     1     -39.758 -47.316  12.211  1.00  0.00    -0.322 N 
HETATM   18  C   UNL     1     -39.889 -46.818  13.501  1.00  0.00     0.245 C 
HETATM   19  O   UNL     1     -40.932 -46.380  13.988  1.00  0.00    -0.271 OA
HETATM   20  H   UNL     1     -38.842 -47.270  11.778  1.00  0.00     0.169 HD
BRANCH  18  21
HETATM   21  C   UNL     1     -38.579 -46.758  14.275  1.00  0.00     0.270 C 
BRANCH  21  22
HETATM   22  O   UNL     1     -37.697 -47.835  13.983  1.00  0.00    -0.387 OA
HETATM   23  C   UNL     1     -37.420 -48.628  15.136  1.00  0.00     0.202 C 
ENDBRANCH  21  22
ENDBRANCH  18  21
ENDBRANCH   1  17
BRANCH   4  24
HETATM   24  O   UNL     1     -44.208 -46.918   9.007  1.00  0.00    -0.341 OA
HETATM   25  C   UNL     1     -45.385 -47.542   9.493  1.00  0.00     0.211 C 
ENDBRANCH   4  24
TORSDOF 5
ENDMDL
