MODEL 1
REMARK VINA RESULT:      -6.0      0.000      0.000
REMARK  7 active torsions:
REMARK  status: ('A' for Active; 'I' for Inactive)
REMARK    1  A    between atoms: C_2  and  C_3 
REMARK    2  A    between atoms: C_3  and  C_4 
REMARK    3  A    between atoms: C_4  and  O_6 
REMARK    4  A    between atoms: C_4  and  C_7 
REMARK    5  A    between atoms: C_7  and  N_8 
REMARK       I    between atoms: N_8  and  C_9 
REMARK    6  A    between atoms: C_9  and  C_11 
REMARK    7  A    between atoms: C_17  and  N_18 
ROOT
HETATM    1  C   UNL     1     -42.648 -49.486  12.435  1.00  0.00     0.070 A 
HETATM    2  C   UNL     1     -43.244 -48.397  11.785  1.00  0.00     0.022 A 
HETATM    3  C   UNL     1     -42.545 -47.728  10.793  1.00  0.00     0.018 A 
HETATM    4  C   UNL     1     -41.272 -48.175  10.495  1.00  0.00     0.089 A 
HETATM    5  N   UNL     1     -40.686 -49.247  11.083  1.00  0.00    -0.356 N 
ATOM      6  HN  UNL     1     -39.754 -49.549  10.800  1.00  0.00     0.166 HD
HETATM    7  C   UNL     1     -41.364 -49.910  12.055  1.00  0.00     0.098 A 
ENDROOT
BRANCH   1   8
HETATM    8  C   UNL     1     -43.438 -50.138  13.498  1.00  0.00     0.255 C 
HETATM    9  N   UNL     1     -43.970 -51.375  13.197  1.00  0.00    -0.354 N 
HETATM   10  H   UNL     1     -43.671 -51.811  12.328  1.00  0.00     0.162 HD
HETATM   11  O   UNL     1     -43.552 -49.562  14.572  1.00  0.00    -0.268 OA
BRANCH   9  12
HETATM   12  C   UNL     1     -44.668 -52.168  14.195  1.00  0.00     0.160 C 
BRANCH  12  13
HETATM   13  C   UNL     1     -46.089 -52.611  13.761  1.00  0.00     0.070 C 
HETATM   14  C   UNL     1     -46.948 -52.909  14.996  1.00  0.00     0.047 C 
BRANCH  13  15
HETATM   15  C   UNL     1     -46.767 -51.536  12.885  1.00  0.00     0.038 C 
BRANCH  15  16
HETATM   16  C   UNL     1     -47.035 -51.982  11.441  1.00  0.00    -0.002 C 
HETATM   17  C   UNL     1     -47.752 -50.909  10.638  1.00  0.00     0.005 C 
ENDBRANCH  15  16
ENDBRANCH  13  15
BRANCH  13  18
HETATM   18  O   UNL     1     -46.010 -53.811  12.982  1.00  0.00    -0.389 OA
HETATM   19  H   UNL     1     -46.766 -53.848  12.386  1.00  0.00     0.210 HD
ENDBRANCH  13  18
ENDBRANCH  12  13
ENDBRANCH   9  12
ENDBRANCH   1   8
BRANCH   7  20
HETATM   20  N   UNL     1     -40.796 -51.079  12.568  1.00  0.00    -0.265 NA
HETATM   21  C   UNL     1     -41.050 -52.312  11.800  1.00  0.00     0.123 C 
HETATM   22  C   UNL     1     -40.768 -53.496  12.742  1.00  0.00     0.182 C 
HETATM   23  O   UNL     1     -39.414 -53.475  13.234  1.00  0.00    -0.389 OA
HETATM   24  C   UNL     1     -39.128 -52.235  13.910  1.00  0.00     0.182 C 
HETATM   25  C   UNL     1     -39.377 -51.020  12.993  1.00  0.00     0.123 C 
ENDBRANCH   7  20
TORSDOF 7
ENDMDL
MODEL 2
REMARK VINA RESULT:      -5.9      2.010      4.198
REMARK  7 active torsions:
REMARK  status: ('A' for Active; 'I' for Inactive)
REMARK    1  A    between atoms: C_2  and  C_3 
REMARK    2  A    between atoms: C_3  and  C_4 
REMARK    3  A    between atoms: C_4  and  O_6 
REMARK    4  A    between atoms: C_4  and  C_7 
REMARK    5  A    between atoms: C_7  and  N_8 
REMARK       I    between atoms: N_8  and  C_9 
REMARK    6  A    between atoms: C_9  and  C_11 
REMARK    7  A    between atoms: C_17  and  N_18 
ROOT
HETATM    1  C   UNL     1     -39.780 -50.425  12.849  1.00  0.00     0.070 A 
HETATM    2  C   UNL     1     -38.592 -51.146  13.032  1.00  0.00     0.022 A 
HETATM    3  C   UNL     1     -37.465 -50.802  12.303  1.00  0.00     0.018 A 
HETATM    4  C   UNL     1     -37.574 -49.751  11.414  1.00  0.00     0.089 A 
HETATM    5  N   UNL     1     -38.700 -49.015  11.243  1.00  0.00    -0.356 N 
ATOM      6  HN  UNL     1     -38.713 -48.229  10.593  1.00  0.00     0.166 HD
HETATM    7  C   UNL     1     -39.810 -49.344  11.954  1.00  0.00     0.098 A 
ENDROOT
BRANCH   1   8
HETATM    8  C   UNL     1     -40.948 -50.860  13.638  1.00  0.00     0.255 C 
HETATM    9  N   UNL     1     -42.146 -50.959  12.960  1.00  0.00    -0.354 N 
HETATM   10  H   UNL     1     -42.117 -50.863  11.947  1.00  0.00     0.162 HD
HETATM   11  O   UNL     1     -40.783 -51.125  14.822  1.00  0.00    -0.268 OA
BRANCH   9  12
HETATM   12  C   UNL     1     -43.342 -51.485  13.596  1.00  0.00     0.160 C 
BRANCH  12  13
HETATM   13  C   UNL     1     -43.826 -52.834  13.005  1.00  0.00     0.070 C 
HETATM   14  C   UNL     1     -43.363 -53.995  13.894  1.00  0.00     0.047 C 
BRANCH  13  15
HETATM   15  C   UNL     1     -45.362 -52.857  12.851  1.00  0.00     0.038 C 
BRANCH  15  16
HETATM   16  C   UNL     1     -46.037 -51.501  13.100  1.00  0.00    -0.002 C 
HETATM   17  C   UNL     1     -46.797 -51.478  14.416  1.00  0.00     0.005 C 
ENDBRANCH  15  16
ENDBRANCH  13  15
BRANCH  13  18
HETATM   18  O   UNL     1     -43.262 -53.026  11.703  1.00  0.00    -0.389 OA
HETATM   19  H   UNL     1     -43.243 -53.969  11.506  1.00  0.00     0.210 HD
ENDBRANCH  13  18
ENDBRANCH  12  13
ENDBRANCH   9  12
ENDBRANCH   1   8
BRANCH   7  20
HETATM   20  N   UNL     1     -40.923 -48.505  11.853  1.00  0.00    -0.265 NA
HETATM   21  C   UNL     1     -40.814 -47.200  12.531  1.00  0.00     0.123 C 
HETATM   22  C   UNL     1     -42.244 -46.662  12.707  1.00  0.00     0.182 C 
HETATM   23  O   UNL     1     -42.919 -46.521  11.442  1.00  0.00    -0.389 OA
HETATM   24  C   UNL     1     -42.953 -47.773  10.731  1.00  0.00     0.182 C 
HETATM   25  C   UNL     1     -41.535 -48.339  10.514  1.00  0.00     0.123 C 
ENDBRANCH   7  20
TORSDOF 7
ENDMDL
MODEL 3
REMARK VINA RESULT:      -5.8      2.789      3.900
REMARK  7 active torsions:
REMARK  status: ('A' for Active; 'I' for Inactive)
REMARK    1  A    between atoms: C_2  and  C_3 
REMARK    2  A    between atoms: C_3  and  C_4 
REMARK    3  A    between atoms: C_4  and  O_6 
REMARK    4  A    between atoms: C_4  and  C_7 
REMARK    5  A    between atoms: C_7  and  N_8 
REMARK       I    between atoms: N_8  and  C_9 
REMARK    6  A    between atoms: C_9  and  C_11 
REMARK    7  A    between atoms: C_17  and  N_18 
ROOT
HETATM    1  C   UNL     1     -41.735 -48.351  11.669  1.00  0.00     0.070 A 
HETATM    2  C   UNL     1     -42.597 -47.559  10.897  1.00  0.00     0.022 A 
HETATM    3  C   UNL     1     -42.100 -46.438  10.252  1.00  0.00     0.018 A 
HETATM    4  C   UNL     1     -40.757 -46.151  10.411  1.00  0.00     0.089 A 
HETATM    5  N   UNL     1     -39.895 -46.919  11.121  1.00  0.00    -0.356 N 
ATOM      6  HN  UNL     1     -38.908 -46.673  11.178  1.00  0.00     0.166 HD
HETATM    7  C   UNL     1     -40.373 -48.021  11.756  1.00  0.00     0.098 A 
ENDROOT
BRANCH   1   8
HETATM    8  C   UNL     1     -42.334 -49.516  12.348  1.00  0.00     0.255 C 
HETATM    9  N   UNL     1     -41.968 -50.760  11.873  1.00  0.00    -0.354 N 
HETATM   10  H   UNL     1     -41.214 -50.793  11.191  1.00  0.00     0.162 HD
HETATM   11  O   UNL     1     -43.089 -49.314  13.290  1.00  0.00    -0.268 OA
BRANCH   9  12
HETATM   12  C   UNL     1     -42.398 -51.983  12.528  1.00  0.00     0.160 C 
BRANCH  12  13
HETATM   13  C   UNL     1     -41.265 -53.024  12.719  1.00  0.00     0.070 C 
HETATM   14  C   UNL     1     -40.260 -52.525  13.764  1.00  0.00     0.047 C 
BRANCH  13  15
HETATM   15  C   UNL     1     -41.834 -54.398  13.137  1.00  0.00     0.038 C 
BRANCH  15  16
HETATM   16  C   UNL     1     -42.273 -54.473  14.606  1.00  0.00    -0.002 C 
HETATM   17  C   UNL     1     -43.712 -54.941  14.745  1.00  0.00     0.005 C 
ENDBRANCH  15  16
ENDBRANCH  13  15
BRANCH  13  18
HETATM   18  O   UNL     1     -40.561 -53.210  11.486  1.00  0.00    -0.389 OA
HETATM   19  H   UNL     1     -40.021 -54.006  11.550  1.00  0.00     0.210 HD
ENDBRANCH  13  18
ENDBRANCH  12  13
ENDBRANCH   9  12
ENDBRANCH   1   8
BRANCH   7  20
HETATM   20  N   UNL     1     -39.453 -48.863  12.385  1.00  0.00    -0.265 NA
HETATM   21  C   UNL     1     -38.372 -49.392  11.533  1.00  0.00     0.123 C 
HETATM   22  C   UNL     1     -37.785 -50.617  12.256  1.00  0.00     0.182 C 
HETATM   23  O   UNL     1     -37.280 -50.274  13.561  1.00  0.00    -0.389 OA
HETATM   24  C   UNL     1     -38.308 -49.674  14.372  1.00  0.00     0.182 C 
HETATM   25  C   UNL     1     -38.910 -48.427  13.693  1.00  0.00     0.123 C 
ENDBRANCH   7  20
TORSDOF 7
ENDMDL
MODEL 4
REMARK VINA RESULT:      -5.8      2.343      6.551
REMARK  7 active torsions:
REMARK  status: ('A' for Active; 'I' for Inactive)
REMARK    1  A    between atoms: C_2  and  C_3 
REMARK    2  A    between atoms: C_3  and  C_4 
REMARK    3  A    between atoms: C_4  and  O_6 
REMARK    4  A    between atoms: C_4  and  C_7 
REMARK    5  A    between atoms: C_7  and  N_8 
REMARK       I    between atoms: N_8  and  C_9 
REMARK    6  A    between atoms: C_9  and  C_11 
REMARK    7  A    between atoms: C_17  and  N_18 
ROOT
HETATM    1  C   UNL     1     -40.903 -53.259  13.741  1.00  0.00     0.070 A 
HETATM    2  C   UNL     1     -39.543 -53.593  13.799  1.00  0.00     0.022 A 
HETATM    3  C   UNL     1     -39.096 -54.470  14.775  1.00  0.00     0.018 A 
HETATM    4  C   UNL     1     -40.031 -54.974  15.659  1.00  0.00     0.089 A 
HETATM    5  N   UNL     1     -41.357 -54.695  15.602  1.00  0.00    -0.356 N 
ATOM      6  HN  UNL     1     -42.005 -55.121  16.264  1.00  0.00     0.166 HD
HETATM    7  C   UNL     1     -41.804 -53.837  14.648  1.00  0.00     0.098 A 
ENDROOT
BRANCH   1   8
HETATM    8  C   UNL     1     -41.306 -52.301  12.693  1.00  0.00     0.255 C 
HETATM    9  N   UNL     1     -41.593 -51.017  13.111  1.00  0.00    -0.354 N 
HETATM   10  H   UNL     1     -41.377 -50.784  14.077  1.00  0.00     0.162 HD
HETATM   11  O   UNL     1     -41.337 -52.690  11.532  1.00  0.00    -0.268 OA
BRANCH   9  12
HETATM   12  C   UNL     1     -41.890 -49.956  12.165  1.00  0.00     0.160 C 
BRANCH  12  13
HETATM   13  C   UNL     1     -40.632 -49.334  11.505  1.00  0.00     0.070 C 
HETATM   14  C   UNL     1     -40.895 -47.865  11.150  1.00  0.00     0.047 C 
BRANCH  13  15
HETATM   15  C   UNL     1     -39.401 -49.449  12.430  1.00  0.00     0.038 C 
BRANCH  15  16
HETATM   16  C   UNL     1     -38.158 -50.037  11.749  1.00  0.00    -0.002 C 
HETATM   17  C   UNL     1     -37.363 -50.929  12.688  1.00  0.00     0.005 C 
ENDBRANCH  15  16
ENDBRANCH  13  15
BRANCH  13  18
HETATM   18  O   UNL     1     -40.322 -50.030  10.292  1.00  0.00    -0.389 OA
HETATM   19  H   UNL     1     -39.806 -49.450   9.721  1.00  0.00     0.210 HD
ENDBRANCH  13  18
ENDBRANCH  12  13
ENDBRANCH   9  12
ENDBRANCH   1   8
BRANCH   7  20
HETATM   20  N   UNL     1     -43.184 -53.652  14.531  1.00  0.00    -0.265 NA
HETATM   21  C   UNL     1     -43.996 -54.879  14.437  1.00  0.00     0.123 C 
HETATM   22  C   UNL     1     -45.360 -54.474  13.852  1.00  0.00     0.182 C 
HETATM   23  O   UNL     1     -46.021 -53.491  14.673  1.00  0.00    -0.389 OA
HETATM   24  C   UNL     1     -45.197 -52.322  14.844  1.00  0.00     0.182 C 
HETATM   25  C   UNL     1     -43.824 -52.681  15.449  1.00  0.00     0.123 C 
ENDBRANCH   7  20
TORSDOF 7
ENDMDL
MODEL 5
REMARK VINA RESULT:      -5.7      1.926      2.524
REMARK  7 active torsions:
REMARK  status: ('A' for Active; 'I' for Inactive)
REMARK    1  A    between atoms: C_2  and  C_3 
REMARK    2  A    between atoms: C_3  and  C_4 
REMARK    3  A    between atoms: C_4  and  O_6 
REMARK    4  A    between atoms: C_4  and  C_7 
REMARK    5  A    between atoms: C_7  and  N_8 
REMARK       I    between atoms: N_8  and  C_9 
REMARK    6  A    between atoms: C_9  and  C_11 
REMARK    7  A    between atoms: C_17  and  N_18 
ROOT
HETATM    1  C   UNL     1     -42.525 -48.503  11.825  1.00  0.00     0.070 A 
HETATM    2  C   UNL     1     -43.572 -47.927  11.092  1.00  0.00     0.022 A 
HETATM    3  C   UNL     1     -43.289 -46.963  10.137  1.00  0.00     0.018 A 
HETATM    4  C   UNL     1     -41.965 -46.610   9.958  1.00  0.00     0.089 A 
HETATM    5  N   UNL     1     -40.931 -47.176  10.628  1.00  0.00    -0.356 N 
ATOM      6  HN  UNL     1     -39.970 -46.896  10.432  1.00  0.00     0.166 HD
HETATM    7  C   UNL     1     -41.199 -48.123  11.565  1.00  0.00     0.098 A 
ENDROOT
BRANCH   1   8
HETATM    8  C   UNL     1     -42.900 -49.504  12.842  1.00  0.00     0.255 C 
HETATM    9  N   UNL     1     -42.797 -50.829  12.468  1.00  0.00    -0.354 N 
HETATM   10  H   UNL     1     -42.345 -51.026  11.578  1.00  0.00     0.162 HD
HETATM   11  O   UNL     1     -43.250 -49.108  13.946  1.00  0.00    -0.268 OA
BRANCH   9  12
HETATM   12  C   UNL     1     -43.026 -51.908  13.412  1.00  0.00     0.160 C 
BRANCH  12  13
HETATM   13  C   UNL     1     -44.304 -52.736  13.122  1.00  0.00     0.070 C 
HETATM   14  C   UNL     1     -44.370 -53.950  14.057  1.00  0.00     0.047 C 
BRANCH  13  15
HETATM   15  C   UNL     1     -45.575 -51.873  13.276  1.00  0.00     0.038 C 
BRANCH  15  16
HETATM   16  C   UNL     1     -45.760 -51.272  14.677  1.00  0.00    -0.002 C 
HETATM   17  C   UNL     1     -47.136 -51.574  15.248  1.00  0.00     0.005 C 
ENDBRANCH  15  16
ENDBRANCH  13  15
BRANCH  13  18
HETATM   18  O   UNL     1     -44.276 -53.220  11.775  1.00  0.00    -0.389 OA
HETATM   19  H   UNL     1     -43.712 -52.645  11.247  1.00  0.00     0.210 HD
ENDBRANCH  13  18
ENDBRANCH  12  13
ENDBRANCH   9  12
ENDBRANCH   1   8
BRANCH   7  20
HETATM   20  N   UNL     1     -40.118 -48.777  12.161  1.00  0.00    -0.265 NA
HETATM   21  C   UNL     1     -39.467 -49.822  11.350  1.00  0.00     0.123 C 
HETATM   22  C   UNL     1     -38.662 -50.708  12.317  1.00  0.00     0.182 C 
HETATM   23  O   UNL     1     -37.679 -49.946  13.044  1.00  0.00    -0.389 OA
HETATM   24  C   UNL     1     -38.296 -48.866  13.771  1.00  0.00     0.182 C 
HETATM   25  C   UNL     1     -39.098 -47.939  12.835  1.00  0.00     0.123 C 
ENDBRANCH   7  20
TORSDOF 7
ENDMDL
MODEL 6
REMARK VINA RESULT:      -5.7      1.959      5.374
REMARK  7 active torsions:
REMARK  status: ('A' for Active; 'I' for Inactive)
REMARK    1  A    between atoms: C_2  and  C_3 
REMARK    2  A    between atoms: C_3  and  C_4 
REMARK    3  A    between atoms: C_4  and  O_6 
REMARK    4  A    between atoms: C_4  and  C_7 
REMARK    5  A    between atoms: C_7  and  N_8 
REMARK       I    between atoms: N_8  and  C_9 
REMARK    6  A    between atoms: C_9  and  C_11 
REMARK    7  A    between atoms: C_17  and  N_18 
ROOT
HETATM    1  C   UNL     1     -44.036 -51.209  13.204  1.00  0.00     0.070 A 
HETATM    2  C   UNL     1     -45.428 -51.369  13.222  1.00  0.00     0.022 A 
HETATM    3  C   UNL     1     -45.970 -52.644  13.189  1.00  0.00     0.018 A 
HETATM    4  C   UNL     1     -45.093 -53.710  13.132  1.00  0.00     0.089 A 
HETATM    5  N   UNL     1     -43.743 -53.585  13.148  1.00  0.00    -0.356 N 
ATOM      6  HN  UNL     1     -43.145 -54.411  13.135  1.00  0.00     0.166 HD
HETATM    7  C   UNL     1     -43.203 -52.339  13.183  1.00  0.00     0.098 A 
ENDROOT
BRANCH   1   8
HETATM    8  C   UNL     1     -43.527 -49.824  13.217  1.00  0.00     0.255 C 
HETATM    9  N   UNL     1     -43.168 -49.289  11.997  1.00  0.00    -0.354 N 
HETATM   10  H   UNL     1     -43.404 -49.826  11.166  1.00  0.00     0.162 HD
HETATM   11  O   UNL     1     -43.478 -49.234  14.289  1.00  0.00    -0.268 OA
BRANCH   9  12
HETATM   12  C   UNL     1     -42.762 -47.900  11.862  1.00  0.00     0.160 C 
BRANCH  12  13
HETATM   13  C   UNL     1     -42.534 -47.453  10.395  1.00  0.00     0.070 C 
HETATM   14  C   UNL     1     -43.868 -47.423   9.640  1.00  0.00     0.047 C 
BRANCH  13  15
HETATM   15  C   UNL     1     -41.853 -46.068  10.333  1.00  0.00     0.038 C 
BRANCH  15  16
HETATM   16  C   UNL     1     -40.391 -46.067  10.800  1.00  0.00    -0.002 C 
HETATM   17  C   UNL     1     -39.583 -44.964  10.137  1.00  0.00     0.005 C 
ENDBRANCH  15  16
ENDBRANCH  13  15
BRANCH  13  18
HETATM   18  O   UNL     1     -41.673 -48.383   9.729  1.00  0.00    -0.389 OA
HETATM   19  H   UNL     1     -41.420 -48.020   8.873  1.00  0.00     0.210 HD
ENDBRANCH  13  18
ENDBRANCH  12  13
ENDBRANCH   9  12
ENDBRANCH   1   8
BRANCH   7  20
HETATM   20  N   UNL     1     -41.817 -52.231  13.317  1.00  0.00    -0.265 NA
HETATM   21  C   UNL     1     -41.172 -53.230  14.189  1.00  0.00     0.123 C 
HETATM   22  C   UNL     1     -39.791 -52.669  14.573  1.00  0.00     0.182 C 
HETATM   23  O   UNL     1     -38.979 -52.411  13.411  1.00  0.00    -0.389 OA
HETATM   24  C   UNL     1     -39.640 -51.504  12.508  1.00  0.00     0.182 C 
HETATM   25  C   UNL     1     -41.023 -52.039  12.081  1.00  0.00     0.123 C 
ENDBRANCH   7  20
TORSDOF 7
ENDMDL
MODEL 7
REMARK VINA RESULT:      -5.7      2.009      5.662
REMARK  7 active torsions:
REMARK  status: ('A' for Active; 'I' for Inactive)
REMARK    1  A    between atoms: C_2  and  C_3 
REMARK    2  A    between atoms: C_3  and  C_4 
REMARK    3  A    between atoms: C_4  and  O_6 
REMARK    4  A    between atoms: C_4  and  C_7 
REMARK    5  A    between atoms: C_7  and  N_8 
REMARK       I    between atoms: N_8  and  C_9 
REMARK    6  A    between atoms: C_9  and  C_11 
REMARK    7  A    between atoms: C_17  and  N_18 
ROOT
HETATM    1  C   UNL     1     -44.253 -51.509  13.481  1.00  0.00     0.070 A 
HETATM    2  C   UNL     1     -45.642 -51.348  13.386  1.00  0.00     0.022 A 
HETATM    3  C   UNL     1     -46.471 -52.444  13.562  1.00  0.00     0.018 A 
HETATM    4  C   UNL     1     -45.874 -53.663  13.822  1.00  0.00     0.089 A 
HETATM    5  N   UNL     1     -44.536 -53.840  13.954  1.00  0.00    -0.356 N 
ATOM      6  HN  UNL     1     -44.154 -54.759  14.176  1.00  0.00     0.166 HD
HETATM    7  C   UNL     1     -43.716 -52.771  13.784  1.00  0.00     0.098 A 
ENDROOT
BRANCH   1   8
HETATM    8  C   UNL     1     -43.428 -50.306  13.258  1.00  0.00     0.255 C 
HETATM    9  N   UNL     1     -42.679 -50.280  12.100  1.00  0.00    -0.354 N 
HETATM   10  H   UNL     1     -42.850 -51.017  11.419  1.00  0.00     0.162 HD
HETATM   11  O   UNL     1     -43.476 -49.408  14.089  1.00  0.00    -0.268 OA
BRANCH   9  12
HETATM   12  C   UNL     1     -41.917 -49.106  11.710  1.00  0.00     0.160 C 
BRANCH  12  13
HETATM   13  C   UNL     1     -40.405 -49.379  11.505  1.00  0.00     0.070 C 
HETATM   14  C   UNL     1     -39.616 -48.067  11.593  1.00  0.00     0.047 C 
BRANCH  13  15
HETATM   15  C   UNL     1     -39.875 -50.393  12.542  1.00  0.00     0.038 C 
BRANCH  15  16
HETATM   16  C   UNL     1     -38.467 -50.075  13.066  1.00  0.00    -0.002 C 
HETATM   17  C   UNL     1     -37.400 -50.894  12.360  1.00  0.00     0.005 C 
ENDBRANCH  15  16
ENDBRANCH  13  15
BRANCH  13  18
HETATM   18  O   UNL     1     -40.182 -49.940  10.206  1.00  0.00    -0.389 OA
HETATM   19  H   UNL     1     -40.785 -49.525   9.578  1.00  0.00     0.210 HD
ENDBRANCH  13  18
ENDBRANCH  12  13
ENDBRANCH   9  12
ENDBRANCH   1   8
BRANCH   7  20
HETATM   20  N   UNL     1     -42.353 -52.946  14.038  1.00  0.00    -0.265 NA
HETATM   21  C   UNL     1     -41.932 -52.792  15.443  1.00  0.00     0.123 C 
HETATM   22  C   UNL     1     -40.412 -52.550  15.435  1.00  0.00     0.182 C 
HETATM   23  O   UNL     1     -39.703 -53.637  14.809  1.00  0.00    -0.389 OA
HETATM   24  C   UNL     1     -40.170 -53.853  13.463  1.00  0.00     0.182 C 
HETATM   25  C   UNL     1     -41.689 -54.121  13.428  1.00  0.00     0.123 C 
ENDBRANCH   7  20
TORSDOF 7
ENDMDL
MODEL 8
REMARK VINA RESULT:      -5.5      1.974      4.848
REMARK  7 active torsions:
REMARK  status: ('A' for Active; 'I' for Inactive)
REMARK    1  A    between atoms: C_2  and  C_3 
REMARK    2  A    between atoms: C_3  and  C_4 
REMARK    3  A    between atoms: C_4  and  O_6 
REMARK    4  A    between atoms: C_4  and  C_7 
REMARK    5  A    between atoms: C_7  and  N_8 
REMARK       I    between atoms: N_8  and  C_9 
REMARK    6  A    between atoms: C_9  and  C_11 
REMARK    7  A    between atoms: C_17  and  N_18 
ROOT
HETATM    1  C   UNL     1     -43.987 -51.032  13.181  1.00  0.00     0.070 A 
HETATM    2  C   UNL     1     -45.375 -51.229  13.193  1.00  0.00     0.022 A 
HETATM    3  C   UNL     1     -45.886 -52.500  12.986  1.00  0.00     0.018 A 
HETATM    4  C   UNL     1     -44.985 -53.525  12.768  1.00  0.00     0.089 A 
HETATM    5  N   UNL     1     -43.639 -53.369  12.786  1.00  0.00    -0.356 N 
ATOM      6  HN  UNL     1     -43.022 -54.169  12.649  1.00  0.00     0.166 HD
HETATM    7  C   UNL     1     -43.128 -52.127  12.990  1.00  0.00     0.098 A 
ENDROOT
BRANCH   1   8
HETATM    8  C   UNL     1     -43.510 -49.651  13.384  1.00  0.00     0.255 C 
HETATM    9  N   UNL     1     -43.300 -48.899  12.245  1.00  0.00    -0.354 N 
HETATM   10  H   UNL     1     -43.615 -49.295  11.362  1.00  0.00     0.162 HD
HETATM   11  O   UNL     1     -43.357 -49.252  14.531  1.00  0.00    -0.268 OA
BRANCH   9  12
HETATM   12  C   UNL     1     -42.942 -47.493  12.315  1.00  0.00     0.160 C 
BRANCH  12  13
HETATM   13  C   UNL     1     -42.641 -46.853  10.935  1.00  0.00     0.070 C 
HETATM   14  C   UNL     1     -41.127 -46.782  10.706  1.00  0.00     0.047 C 
BRANCH  13  15
HETATM   15  C   UNL     1     -43.319 -47.643   9.793  1.00  0.00     0.038 C 
BRANCH  15  16
HETATM   16  C   UNL     1     -44.437 -46.873   9.076  1.00  0.00    -0.002 C 
HETATM   17  C   UNL     1     -45.804 -47.485   9.333  1.00  0.00     0.005 C 
ENDBRANCH  15  16
ENDBRANCH  13  15
BRANCH  13  18
HETATM   18  O   UNL     1     -43.155 -45.517  10.894  1.00  0.00    -0.389 OA
HETATM   19  H   UNL     1     -43.220 -45.234   9.975  1.00  0.00     0.210 HD
ENDBRANCH  13  18
ENDBRANCH  12  13
ENDBRANCH   9  12
ENDBRANCH   1   8
BRANCH   7  20
HETATM   20  N   UNL     1     -41.742 -52.004  13.122  1.00  0.00    -0.265 NA
HETATM   21  C   UNL     1     -41.061 -53.096  13.841  1.00  0.00     0.123 C 
HETATM   22  C   UNL     1     -39.688 -52.559  14.282  1.00  0.00     0.182 C 
HETATM   23  O   UNL     1     -38.900 -52.124  13.156  1.00  0.00    -0.389 OA
HETATM   24  C   UNL     1     -39.596 -51.119  12.395  1.00  0.00     0.182 C 
HETATM   25  C   UNL     1     -40.972 -51.624  11.914  1.00  0.00     0.123 C 
ENDBRANCH   7  20
TORSDOF 7
ENDMDL
MODEL 9
REMARK VINA RESULT:      -5.4      3.033      5.006
REMARK  7 active torsions:
REMARK  status: ('A' for Active; 'I' for Inactive)
REMARK    1  A    between atoms: C_2  and  C_3 
REMARK    2  A    between atoms: C_3  and  C_4 
REMARK    3  A    between atoms: C_4  and  O_6 
REMARK    4  A    between atoms: C_4  and  C_7 
REMARK    5  A    between atoms: C_7  and  N_8 
REMARK       I    between atoms: N_8  and  C_9 
REMARK    6  A    between atoms: C_9  and  C_11 
REMARK    7  A    between atoms: C_17  and  N_18 
ROOT
HETATM    1  C   UNL     1     -42.458 -47.487  10.392  1.00  0.00     0.070 A 
HETATM    2  C   UNL     1     -42.954 -47.789   9.116  1.00  0.00     0.022 A 
HETATM    3  C   UNL     1     -43.680 -46.834   8.421  1.00  0.00     0.018 A 
HETATM    4  C   UNL     1     -43.885 -45.614   9.036  1.00  0.00     0.089 A 
HETATM    5  N   UNL     1     -43.387 -45.284  10.253  1.00  0.00    -0.356 N 
ATOM      6  HN  UNL     1     -43.546 -44.356  10.644  1.00  0.00     0.166 HD
HETATM    7  C   UNL     1     -42.673 -46.212  10.941  1.00  0.00     0.098 A 
ENDROOT
BRANCH   1   8
HETATM    8  C   UNL     1     -41.715 -48.556  11.085  1.00  0.00     0.255 C 
HETATM    9  N   UNL     1     -42.473 -49.524  11.713  1.00  0.00    -0.354 N 
HETATM   10  H   UNL     1     -43.476 -49.513  11.541  1.00  0.00     0.162 HD
HETATM   11  O   UNL     1     -40.492 -48.535  11.043  1.00  0.00    -0.268 OA
BRANCH   9  12
HETATM   12  C   UNL     1     -41.864 -50.689  12.331  1.00  0.00     0.160 C 
BRANCH  12  13
HETATM   13  C   UNL     1     -42.883 -51.771  12.771  1.00  0.00     0.070 C 
HETATM   14  C   UNL     1     -42.327 -52.567  13.958  1.00  0.00     0.047 C 
BRANCH  13  15
HETATM   15  C   UNL     1     -44.244 -51.141  13.139  1.00  0.00     0.038 C 
BRANCH  15  16
HETATM   16  C   UNL     1     -45.203 -52.098  13.860  1.00  0.00    -0.002 C 
HETATM   17  C   UNL     1     -46.534 -51.437  14.176  1.00  0.00     0.005 C 
ENDBRANCH  15  16
ENDBRANCH  13  15
BRANCH  13  18
HETATM   18  O   UNL     1     -43.113 -52.689  11.696  1.00  0.00    -0.389 OA
HETATM   19  H   UNL     1     -43.375 -53.541  12.062  1.00  0.00     0.210 HD
ENDBRANCH  13  18
ENDBRANCH  12  13
ENDBRANCH   9  12
ENDBRANCH   1   8
BRANCH   7  20
HETATM   20  N   UNL     1     -42.071 -45.818  12.138  1.00  0.00    -0.265 NA
HETATM   21  C   UNL     1     -41.275 -44.578  12.084  1.00  0.00     0.123 C 
HETATM   22  C   UNL     1     -40.347 -44.583  13.311  1.00  0.00     0.182 C 
HETATM   23  O   UNL     1     -41.091 -44.655  14.542  1.00  0.00    -0.389 OA
HETATM   24  C   UNL     1     -41.939 -45.819  14.567  1.00  0.00     0.182 C 
HETATM   25  C   UNL     1     -42.904 -45.842  13.363  1.00  0.00     0.123 C 
ENDBRANCH   7  20
TORSDOF 7
ENDMDL
