MODEL 1
REMARK VINA RESULT:      -6.4      0.000      0.000
REMARK  5 active torsions:
REMARK  status: ('A' for Active; 'I' for Inactive)
REMARK    1  A    between atoms: O_2  and  C_3 
REMARK    2  A    between atoms: C_9  and  N_10 
REMARK       I    between atoms: N_10  and  C_11 
REMARK       I    between atoms: C_11  and  N_13 
REMARK    3  A    between atoms: N_13  and  C_14 
REMARK    4  A    between atoms: C_14  and  C_15 
REMARK    5  A    between atoms: C_15  and  N_16 
ROOT
HETATM    1  N   UNL     1     -41.685 -49.573  10.958  1.00  0.00    -0.305 N 
HETATM    2  C   UNL     1     -41.965 -50.249  12.119  1.00  0.00     0.320 C 
HETATM    3  O   UNL     1     -42.164 -49.741  13.219  1.00  0.00    -0.247 OA
HETATM    4  N   UNL     1     -41.996 -51.618  11.933  1.00  0.00    -0.341 N 
HETATM    5  H   UNL     1     -41.973 -50.005  10.087  1.00  0.00     0.171 HD
HETATM    6  H   UNL     1     -41.382 -51.954  11.203  1.00  0.00     0.164 HD
ENDROOT
BRANCH   1   7
HETATM    7  C   UNL     1     -41.318 -48.208  10.875  1.00  0.00     0.087 A 
HETATM    8  C   UNL     1     -42.070 -47.305  10.106  1.00  0.00     0.169 A 
HETATM    9  N   UNL     1     -41.754 -45.997   9.948  1.00  0.00    -0.345 N 
HETATM   10  C   UNL     1     -40.645 -45.555  10.578  1.00  0.00     0.090 A 
ATOM     11  HN  UNL     1     -42.329 -45.374   9.379  1.00  0.00     0.167 HD
HETATM   12  C   UNL     1     -39.829 -46.359  11.348  1.00  0.00     0.019 A 
HETATM   13  C   UNL     1     -40.173 -47.702  11.492  1.00  0.00     0.035 A 
BRANCH   8  14
HETATM   14  O   UNL     1     -43.216 -47.788   9.490  1.00  0.00    -0.339 OA
HETATM   15  C   UNL     1     -43.607 -46.990   8.371  1.00  0.00     0.211 C 
ENDBRANCH   8  14
ENDBRANCH   1   7
BRANCH   4  16
HETATM   16  C   UNL     1     -42.138 -52.476  13.104  1.00  0.00     0.154 C 
BRANCH  16  17
HETATM   17  C   UNL     1     -43.446 -53.302  13.079  1.00  0.00     0.292 C 
BRANCH  17  18
HETATM   18  N   UNL     1     -44.184 -53.333  14.358  1.00  0.00     0.090 N 
HETATM   19  C   UNL     1     -45.569 -53.807  14.177  1.00  0.00     0.273 C 
HETATM   20  C   UNL     1     -46.569 -52.763  13.654  1.00  0.00     0.034 C 
HETATM   21  C   UNL     1     -46.510 -51.433  14.415  1.00  0.00    -0.015 C 
HETATM   22  C   UNL     1     -47.162 -51.529  15.799  1.00  0.00     0.010 C 
HETATM   23  C   UNL     1     -45.051 -50.974  14.506  1.00  0.00     0.034 C 
HETATM   24  C   UNL     1     -44.157 -52.064  15.099  1.00  0.00     0.273 C 
ENDBRANCH  17  18
ENDBRANCH  16  17
ENDBRANCH   4  16
TORSDOF 5
ENDMDL
MODEL 2
REMARK VINA RESULT:      -6.3      2.671      4.046
REMARK  5 active torsions:
REMARK  status: ('A' for Active; 'I' for Inactive)
REMARK    1  A    between atoms: O_2  and  C_3 
REMARK    2  A    between atoms: C_9  and  N_10 
REMARK       I    between atoms: N_10  and  C_11 
REMARK       I    between atoms: C_11  and  N_13 
REMARK    3  A    between atoms: N_13  and  C_14 
REMARK    4  A    between atoms: C_14  and  C_15 
REMARK    5  A    between atoms: C_15  and  N_16 
ROOT
HETATM    1  N   UNL     1     -42.114 -48.165   9.505  1.00  0.00    -0.305 N 
HETATM    2  C   UNL     1     -41.738 -48.691  10.716  1.00  0.00     0.320 C 
HETATM    3  O   UNL     1     -42.411 -48.692  11.743  1.00  0.00    -0.247 OA
HETATM    4  N   UNL     1     -40.469 -49.237  10.678  1.00  0.00    -0.341 N 
HETATM    5  H   UNL     1     -41.721 -48.587   8.672  1.00  0.00     0.171 HD
HETATM    6  H   UNL     1     -39.842 -48.790  10.022  1.00  0.00     0.164 HD
ENDROOT
BRANCH   1   7
HETATM    7  C   UNL     1     -43.221 -47.307   9.296  1.00  0.00     0.087 A 
HETATM    8  C   UNL     1     -43.097 -45.918   9.465  1.00  0.00     0.169 A 
HETATM    9  N   UNL     1     -44.122 -45.042   9.323  1.00  0.00    -0.345 N 
HETATM   10  C   UNL     1     -45.326 -45.558   8.997  1.00  0.00     0.090 A 
ATOM     11  HN  UNL     1     -43.989 -44.040   9.455  1.00  0.00     0.167 HD
HETATM   12  C   UNL     1     -45.560 -46.907   8.819  1.00  0.00     0.019 A 
HETATM   13  C   UNL     1     -44.491 -47.788   8.974  1.00  0.00     0.035 A 
BRANCH   8  14
HETATM   14  O   UNL     1     -41.840 -45.420   9.778  1.00  0.00    -0.339 OA
HETATM   15  C   UNL     1     -41.791 -44.861  11.093  1.00  0.00     0.211 C 
ENDBRANCH   8  14
ENDBRANCH   1   7
BRANCH   4  16
HETATM   16  C   UNL     1     -39.875 -49.704  11.925  1.00  0.00     0.154 C 
BRANCH  16  17
HETATM   17  C   UNL     1     -40.032 -51.231  12.121  1.00  0.00     0.292 C 
BRANCH  17  18
HETATM   18  N   UNL     1     -40.589 -51.633  13.429  1.00  0.00     0.090 N 
HETATM   19  C   UNL     1     -40.025 -52.916  13.891  1.00  0.00     0.273 C 
HETATM   20  C   UNL     1     -40.642 -54.179  13.267  1.00  0.00     0.034 C 
HETATM   21  C   UNL     1     -42.176 -54.180  13.294  1.00  0.00    -0.015 C 
HETATM   22  C   UNL     1     -42.729 -54.463  14.696  1.00  0.00     0.010 C 
HETATM   23  C   UNL     1     -42.686 -52.845  12.743  1.00  0.00     0.034 C 
HETATM   24  C   UNL     1     -42.057 -51.659  13.476  1.00  0.00     0.273 C 
ENDBRANCH  17  18
ENDBRANCH  16  17
ENDBRANCH   4  16
TORSDOF 5
ENDMDL
MODEL 3
REMARK VINA RESULT:      -6.3      1.634      2.178
REMARK  5 active torsions:
REMARK  status: ('A' for Active; 'I' for Inactive)
REMARK    1  A    between atoms: O_2  and  C_3 
REMARK    2  A    between atoms: C_9  and  N_10 
REMARK       I    between atoms: N_10  and  C_11 
REMARK       I    between atoms: C_11  and  N_13 
REMARK    3  A    between atoms: N_13  and  C_14 
REMARK    4  A    between atoms: C_14  and  C_15 
REMARK    5  A    between atoms: C_15  and  N_16 
ROOT
HETATM    1  N   UNL     1     -41.353 -48.903  10.623  1.00  0.00    -0.305 N 
HETATM    2  C   UNL     1     -41.177 -49.757  11.682  1.00  0.00     0.320 C 
HETATM    3  O   UNL     1     -41.343 -49.482  12.867  1.00  0.00    -0.247 OA
HETATM    4  N   UNL     1     -40.769 -51.015  11.278  1.00  0.00    -0.341 N 
HETATM    5  H   UNL     1     -41.623 -49.311   9.735  1.00  0.00     0.171 HD
HETATM    6  H   UNL     1     -40.216 -51.021  10.432  1.00  0.00     0.164 HD
ENDROOT
BRANCH   1   7
HETATM    7  C   UNL     1     -41.496 -47.497  10.722  1.00  0.00     0.087 A 
HETATM    8  C   UNL     1     -42.755 -46.890  10.586  1.00  0.00     0.169 A 
HETATM    9  N   UNL     1     -42.960 -45.551  10.628  1.00  0.00    -0.345 N 
HETATM   10  C   UNL     1     -41.873 -44.772  10.814  1.00  0.00     0.090 A 
ATOM     11  HN  UNL     1     -43.892 -45.150  10.524  1.00  0.00     0.167 HD
HETATM   12  C   UNL     1     -40.590 -45.264  10.948  1.00  0.00     0.019 A 
HETATM   13  C   UNL     1     -40.405 -46.644  10.897  1.00  0.00     0.035 A 
BRANCH   8  14
HETATM   14  O   UNL     1     -43.853 -47.722  10.418  1.00  0.00    -0.339 OA
HETATM   15  C   UNL     1     -44.622 -47.377   9.265  1.00  0.00     0.211 C 
ENDBRANCH   8  14
ENDBRANCH   1   7
BRANCH   4  16
HETATM   16  C   UNL     1     -40.403 -51.989  12.300  1.00  0.00     0.154 C 
BRANCH  16  17
HETATM   17  C   UNL     1     -41.510 -53.044  12.538  1.00  0.00     0.292 C 
BRANCH  17  18
HETATM   18  N   UNL     1     -42.565 -52.631  13.485  1.00  0.00     0.090 N 
HETATM   19  C   UNL     1     -42.515 -53.416  14.733  1.00  0.00     0.273 C 
HETATM   20  C   UNL     1     -43.153 -54.813  14.669  1.00  0.00     0.034 C 
HETATM   21  C   UNL     1     -44.555 -54.810  14.046  1.00  0.00    -0.015 C 
HETATM   22  C   UNL     1     -45.612 -54.246  15.002  1.00  0.00     0.010 C 
HETATM   23  C   UNL     1     -44.513 -54.033  12.727  1.00  0.00     0.034 C 
HETATM   24  C   UNL     1     -43.920 -52.636  12.917  1.00  0.00     0.273 C 
ENDBRANCH  17  18
ENDBRANCH  16  17
ENDBRANCH   4  16
TORSDOF 5
ENDMDL
MODEL 4
REMARK VINA RESULT:      -6.1      2.608      3.669
REMARK  5 active torsions:
REMARK  status: ('A' for Active; 'I' for Inactive)
REMARK    1  A    between atoms: O_2  and  C_3 
REMARK    2  A    between atoms: C_9  and  N_10 
REMARK       I    between atoms: N_10  and  C_11 
REMARK       I    between atoms: C_11  and  N_13 
REMARK    3  A    between atoms: N_13  and  C_14 
REMARK    4  A    between atoms: C_14  and  C_15 
REMARK    5  A    between atoms: C_15  and  N_16 
ROOT
HETATM    1  N   UNL     1     -40.092 -51.882  14.011  1.00  0.00    -0.305 N 
HETATM    2  C   UNL     1     -40.648 -53.122  13.816  1.00  0.00     0.320 C 
HETATM    3  O   UNL     1     -40.365 -53.905  12.915  1.00  0.00    -0.247 OA
HETATM    4  N   UNL     1     -41.606 -53.421  14.766  1.00  0.00    -0.341 N 
HETATM    5  H   UNL     1     -40.053 -51.533  14.963  1.00  0.00     0.171 HD
HETATM    6  H   UNL     1     -42.100 -52.616  15.128  1.00  0.00     0.164 HD
ENDROOT
BRANCH   1   7
HETATM    7  C   UNL     1     -39.298 -51.185  13.068  1.00  0.00     0.087 A 
HETATM    8  C   UNL     1     -39.886 -50.542  11.967  1.00  0.00     0.169 A 
HETATM    9  N   UNL     1     -39.186 -49.893  11.005  1.00  0.00    -0.345 N 
HETATM   10  C   UNL     1     -37.843 -49.876  11.133  1.00  0.00     0.090 A 
ATOM     11  HN  UNL     1     -39.653 -49.439  10.220  1.00  0.00     0.167 HD
HETATM   12  C   UNL     1     -37.163 -50.485  12.168  1.00  0.00     0.019 A 
HETATM   13  C   UNL     1     -37.905 -51.149  13.144  1.00  0.00     0.035 A 
BRANCH   8  14
HETATM   14  O   UNL     1     -41.272 -50.561  11.878  1.00  0.00    -0.339 OA
HETATM   15  C   UNL     1     -41.834 -49.248  11.902  1.00  0.00     0.211 C 
ENDBRANCH   8  14
ENDBRANCH   1   7
BRANCH   4  16
HETATM   16  C   UNL     1     -42.386 -54.642  14.607  1.00  0.00     0.154 C 
BRANCH  16  17
HETATM   17  C   UNL     1     -43.881 -54.442  14.951  1.00  0.00     0.292 C 
BRANCH  17  18
HETATM   18  N   UNL     1     -44.784 -54.389  13.784  1.00  0.00     0.090 N 
HETATM   19  C   UNL     1     -44.255 -53.509  12.725  1.00  0.00     0.273 C 
HETATM   20  C   UNL     1     -44.480 -52.002  12.935  1.00  0.00     0.034 C 
HETATM   21  C   UNL     1     -45.926 -51.652  13.307  1.00  0.00    -0.015 C 
HETATM   22  C   UNL     1     -46.871 -51.741  12.103  1.00  0.00     0.010 C 
HETATM   23  C   UNL     1     -46.382 -52.562  14.452  1.00  0.00     0.034 C 
HETATM   24  C   UNL     1     -46.173 -54.039  14.111  1.00  0.00     0.273 C 
ENDBRANCH  17  18
ENDBRANCH  16  17
ENDBRANCH   4  16
TORSDOF 5
ENDMDL
MODEL 5
REMARK VINA RESULT:      -6.0      1.963      7.165
REMARK  5 active torsions:
REMARK  status: ('A' for Active; 'I' for Inactive)
REMARK    1  A    between atoms: O_2  and  C_3 
REMARK    2  A    between atoms: C_9  and  N_10 
REMARK       I    between atoms: N_10  and  C_11 
REMARK       I    between atoms: C_11  and  N_13 
REMARK    3  A    between atoms: N_13  and  C_14 
REMARK    4  A    between atoms: C_14  and  C_15 
REMARK    5  A    between atoms: C_15  and  N_16 
ROOT
HETATM    1  N   UNL     1     -43.668 -52.442  12.323  1.00  0.00    -0.305 N 
HETATM    2  C   UNL     1     -42.462 -51.885  12.667  1.00  0.00     0.320 C 
HETATM    3  O   UNL     1     -42.114 -51.560  13.799  1.00  0.00    -0.247 OA
HETATM    4  N   UNL     1     -41.637 -51.706  11.573  1.00  0.00    -0.341 N 
HETATM    5  H   UNL     1     -43.686 -53.052  11.513  1.00  0.00     0.171 HD
HETATM    6  H   UNL     1     -42.127 -51.533  10.705  1.00  0.00     0.164 HD
ENDROOT
BRANCH   1   7
HETATM    7  C   UNL     1     -44.812 -52.494  13.157  1.00  0.00     0.087 A 
HETATM    8  C   UNL     1     -45.171 -53.683  13.812  1.00  0.00     0.169 A 
HETATM    9  N   UNL     1     -46.272 -53.817  14.591  1.00  0.00    -0.345 N 
HETATM   10  C   UNL     1     -47.058 -52.729  14.731  1.00  0.00     0.090 A 
ATOM     11  HN  UNL     1     -46.497 -54.701  15.049  1.00  0.00     0.167 HD
HETATM   12  C   UNL     1     -46.803 -51.516  14.123  1.00  0.00     0.019 A 
HETATM   13  C   UNL     1     -45.667 -51.404  13.325  1.00  0.00     0.035 A 
BRANCH   8  14
HETATM   14  O   UNL     1     -44.329 -54.777  13.662  1.00  0.00    -0.339 OA
HETATM   15  C   UNL     1     -43.567 -55.039  14.842  1.00  0.00     0.211 C 
ENDBRANCH   8  14
ENDBRANCH   1   7
BRANCH   4  16
HETATM   16  C   UNL     1     -40.379 -50.992  11.759  1.00  0.00     0.154 C 
BRANCH  16  17
HETATM   17  C   UNL     1     -40.400 -49.577  11.133  1.00  0.00     0.292 C 
BRANCH  17  18
HETATM   18  N   UNL     1     -41.144 -48.567  11.912  1.00  0.00     0.090 N 
HETATM   19  C   UNL     1     -42.436 -48.235  11.283  1.00  0.00     0.273 C 
HETATM   20  C   UNL     1     -42.371 -47.245  10.107  1.00  0.00     0.034 C 
HETATM   21  C   UNL     1     -41.541 -45.993  10.416  1.00  0.00    -0.015 C 
HETATM   22  C   UNL     1     -42.283 -45.021  11.341  1.00  0.00     0.010 C 
HETATM   23  C   UNL     1     -40.193 -46.419  11.006  1.00  0.00     0.034 C 
HETATM   24  C   UNL     1     -40.376 -47.349  12.207  1.00  0.00     0.273 C 
ENDBRANCH  17  18
ENDBRANCH  16  17
ENDBRANCH   4  16
TORSDOF 5
ENDMDL
MODEL 6
REMARK VINA RESULT:      -5.9      2.258      7.069
REMARK  5 active torsions:
REMARK  status: ('A' for Active; 'I' for Inactive)
REMARK    1  A    between atoms: O_2  and  C_3 
REMARK    2  A    between atoms: C_9  and  N_10 
REMARK       I    between atoms: N_10  and  C_11 
REMARK       I    between atoms: C_11  and  N_13 
REMARK    3  A    between atoms: N_13  and  C_14 
REMARK    4  A    between atoms: C_14  and  C_15 
REMARK    5  A    between atoms: C_15  and  N_16 
ROOT
HETATM    1  N   UNL     1     -43.485 -52.801  11.986  1.00  0.00    -0.305 N 
HETATM    2  C   UNL     1     -42.291 -52.295  12.436  1.00  0.00     0.320 C 
HETATM    3  O   UNL     1     -41.782 -52.511  13.531  1.00  0.00    -0.247 OA
HETATM    4  N   UNL     1     -41.688 -51.472  11.503  1.00  0.00    -0.341 N 
HETATM    5  H   UNL     1     -43.589 -52.932  10.987  1.00  0.00     0.171 HD
HETATM    6  H   UNL     1     -42.335 -50.980  10.901  1.00  0.00     0.164 HD
ENDROOT
BRANCH   1   7
HETATM    7  C   UNL     1     -44.457 -53.440  12.794  1.00  0.00     0.087 A 
HETATM    8  C   UNL     1     -45.702 -52.838  13.036  1.00  0.00     0.169 A 
HETATM    9  N   UNL     1     -46.662 -53.371  13.831  1.00  0.00    -0.345 N 
HETATM   10  C   UNL     1     -46.382 -54.555  14.416  1.00  0.00     0.090 A 
ATOM     11  HN  UNL     1     -47.554 -52.900  13.980  1.00  0.00     0.167 HD
HETATM   12  C   UNL     1     -45.187 -55.227  14.255  1.00  0.00     0.019 A 
HETATM   13  C   UNL     1     -44.215 -54.656  13.436  1.00  0.00     0.035 A 
BRANCH   8  14
HETATM   14  O   UNL     1     -45.964 -51.631  12.401  1.00  0.00    -0.339 OA
HETATM   15  C   UNL     1     -47.060 -51.726  11.489  1.00  0.00     0.211 C 
ENDBRANCH   8  14
ENDBRANCH   1   7
BRANCH   4  16
HETATM   16  C   UNL     1     -40.485 -50.745  11.891  1.00  0.00     0.154 C 
BRANCH  16  17
HETATM   17  C   UNL     1     -40.783 -49.290  12.324  1.00  0.00     0.292 C 
BRANCH  17  18
HETATM   18  N   UNL     1     -40.999 -48.345  11.210  1.00  0.00     0.090 N 
HETATM   19  C   UNL     1     -40.183 -47.126  11.364  1.00  0.00     0.273 C 
HETATM   20  C   UNL     1     -40.737 -46.070  12.335  1.00  0.00     0.034 C 
HETATM   21  C   UNL     1     -42.218 -45.747  12.097  1.00  0.00    -0.015 C 
HETATM   22  C   UNL     1     -42.428 -44.877  10.852  1.00  0.00     0.010 C 
HETATM   23  C   UNL     1     -43.008 -47.056  12.013  1.00  0.00     0.034 C 
HETATM   24  C   UNL     1     -42.409 -48.005  10.973  1.00  0.00     0.273 C 
ENDBRANCH  17  18
ENDBRANCH  16  17
ENDBRANCH   4  16
TORSDOF 5
ENDMDL
MODEL 7
REMARK VINA RESULT:      -5.7      2.219      7.692
REMARK  5 active torsions:
REMARK  status: ('A' for Active; 'I' for Inactive)
REMARK    1  A    between atoms: O_2  and  C_3 
REMARK    2  A    between atoms: C_9  and  N_10 
REMARK       I    between atoms: N_10  and  C_11 
REMARK       I    between atoms: C_11  and  N_13 
REMARK    3  A    between atoms: N_13  and  C_14 
REMARK    4  A    between atoms: C_14  and  C_15 
REMARK    5  A    between atoms: C_15  and  N_16 
ROOT
HETATM    1  N   UNL     1     -41.996 -52.505  11.846  1.00  0.00    -0.305 N 
HETATM    2  C   UNL     1     -41.483 -51.274  12.171  1.00  0.00     0.320 C 
HETATM    3  O   UNL     1     -41.499 -50.757  13.285  1.00  0.00    -0.247 OA
HETATM    4  N   UNL     1     -40.928 -50.633  11.080  1.00  0.00    -0.341 N 
HETATM    5  H   UNL     1     -41.560 -53.002  11.077  1.00  0.00     0.171 HD
HETATM    6  H   UNL     1     -41.361 -50.863  10.196  1.00  0.00     0.164 HD
ENDROOT
BRANCH   1   7
HETATM    7  C   UNL     1     -42.859 -53.273  12.664  1.00  0.00     0.087 A 
HETATM    8  C   UNL     1     -42.344 -54.114  13.663  1.00  0.00     0.169 A 
HETATM    9  N   UNL     1     -43.106 -54.908  14.455  1.00  0.00    -0.345 N 
HETATM   10  C   UNL     1     -44.441 -54.870  14.253  1.00  0.00     0.090 A 
ATOM     11  HN  UNL     1     -42.691 -55.506  15.169  1.00  0.00     0.167 HD
HETATM   12  C   UNL     1     -45.049 -54.088  13.292  1.00  0.00     0.019 A 
HETATM   13  C   UNL     1     -44.244 -53.284  12.489  1.00  0.00     0.035 A 
BRANCH   8  14
HETATM   14  O   UNL     1     -40.969 -54.112  13.857  1.00  0.00    -0.339 OA
HETATM   15  C   UNL     1     -40.610 -53.717  15.183  1.00  0.00     0.211 C 
ENDBRANCH   8  14
ENDBRANCH   1   7
BRANCH   4  16
HETATM   16  C   UNL     1     -40.472 -49.257  11.239  1.00  0.00     0.154 C 
BRANCH  16  17
HETATM   17  C   UNL     1     -41.616 -48.229  11.069  1.00  0.00     0.292 C 
BRANCH  17  18
HETATM   18  N   UNL     1     -41.207 -46.942  10.470  1.00  0.00     0.090 N 
HETATM   19  C   UNL     1     -39.901 -46.491  10.986  1.00  0.00     0.273 C 
HETATM   20  C   UNL     1     -39.926 -45.813  12.366  1.00  0.00     0.034 C 
HETATM   21  C   UNL     1     -41.001 -44.725  12.486  1.00  0.00    -0.015 C 
HETATM   22  C   UNL     1     -40.613 -43.444  11.738  1.00  0.00     0.010 C 
HETATM   23  C   UNL     1     -42.338 -45.286  11.992  1.00  0.00     0.034 C 
HETATM   24  C   UNL     1     -42.213 -45.877  10.587  1.00  0.00     0.273 C 
ENDBRANCH  17  18
ENDBRANCH  16  17
ENDBRANCH   4  16
TORSDOF 5
ENDMDL
MODEL 8
REMARK VINA RESULT:      -5.5      3.116      4.298
REMARK  5 active torsions:
REMARK  status: ('A' for Active; 'I' for Inactive)
REMARK    1  A    between atoms: O_2  and  C_3 
REMARK    2  A    between atoms: C_9  and  N_10 
REMARK       I    between atoms: N_10  and  C_11 
REMARK       I    between atoms: C_11  and  N_13 
REMARK    3  A    between atoms: N_13  and  C_14 
REMARK    4  A    between atoms: C_14  and  C_15 
REMARK    5  A    between atoms: C_15  and  N_16 
ROOT
HETATM    1  N   UNL     1     -40.576 -50.823  11.070  1.00  0.00    -0.305 N 
HETATM    2  C   UNL     1     -41.181 -51.695  11.939  1.00  0.00     0.320 C 
HETATM    3  O   UNL     1     -41.982 -51.397  12.821  1.00  0.00    -0.247 OA
HETATM    4  N   UNL     1     -40.784 -53.002  11.730  1.00  0.00    -0.341 N 
HETATM    5  H   UNL     1     -40.315 -51.180  10.158  1.00  0.00     0.171 HD
HETATM    6  H   UNL     1     -39.842 -53.100  11.375  1.00  0.00     0.164 HD
ENDROOT
BRANCH   1   7
HETATM    7  C   UNL     1     -40.563 -49.413  11.205  1.00  0.00     0.087 A 
HETATM    8  C   UNL     1     -39.588 -48.774  11.989  1.00  0.00     0.169 A 
HETATM    9  N   UNL     1     -39.540 -47.436  12.197  1.00  0.00    -0.345 N 
HETATM   10  C   UNL     1     -40.496 -46.690  11.604  1.00  0.00     0.090 A 
ATOM     11  HN  UNL     1     -38.814 -47.011  12.774  1.00  0.00     0.167 HD
HETATM   12  C   UNL     1     -41.505 -47.217  10.823  1.00  0.00     0.019 A 
HETATM   13  C   UNL     1     -41.536 -48.596  10.628  1.00  0.00     0.035 A 
BRANCH   8  14
HETATM   14  O   UNL     1     -38.608 -49.569  12.567  1.00  0.00    -0.339 OA
HETATM   15  C   UNL     1     -37.812 -48.848  13.509  1.00  0.00     0.211 C 
ENDBRANCH   8  14
ENDBRANCH   1   7
BRANCH   4  16
HETATM   16  C   UNL     1     -41.231 -54.025  12.669  1.00  0.00     0.154 C 
BRANCH  16  17
HETATM   17  C   UNL     1     -40.244 -54.224  13.844  1.00  0.00     0.292 C 
BRANCH  17  18
HETATM   18  N   UNL     1     -40.764 -53.817  15.165  1.00  0.00     0.090 N 
HETATM   19  C   UNL     1     -40.037 -54.479  16.265  1.00  0.00     0.273 C 
HETATM   20  C   UNL     1     -40.461 -55.925  16.570  1.00  0.00     0.034 C 
HETATM   21  C   UNL     1     -41.980 -56.096  16.698  1.00  0.00    -0.015 C 
HETATM   22  C   UNL     1     -42.516 -55.539  18.022  1.00  0.00     0.010 C 
HETATM   23  C   UNL     1     -42.660 -55.441  15.492  1.00  0.00     0.034 C 
HETATM   24  C   UNL     1     -42.216 -53.988  15.319  1.00  0.00     0.273 C 
ENDBRANCH  17  18
ENDBRANCH  16  17
ENDBRANCH   4  16
TORSDOF 5
ENDMDL
MODEL 9
REMARK VINA RESULT:      -5.3      5.338      8.353
REMARK  5 active torsions:
REMARK  status: ('A' for Active; 'I' for Inactive)
REMARK    1  A    between atoms: O_2  and  C_3 
REMARK    2  A    between atoms: C_9  and  N_10 
REMARK       I    between atoms: N_10  and  C_11 
REMARK       I    between atoms: C_11  and  N_13 
REMARK    3  A    between atoms: N_13  and  C_14 
REMARK    4  A    between atoms: C_14  and  C_15 
REMARK    5  A    between atoms: C_15  and  N_16 
ROOT
HETATM    1  N   UNL     1     -38.226 -55.514  15.388  1.00  0.00    -0.305 N 
HETATM    2  C   UNL     1     -39.090 -54.506  15.042  1.00  0.00     0.320 C 
HETATM    3  O   UNL     1     -39.554 -53.660  15.802  1.00  0.00    -0.247 OA
HETATM    4  N   UNL     1     -39.415 -54.533  13.699  1.00  0.00    -0.341 N 
HETATM    5  H   UNL     1     -37.589 -55.847  14.674  1.00  0.00     0.171 HD
HETATM    6  H   UNL     1     -39.410 -55.457  13.288  1.00  0.00     0.164 HD
ENDROOT
BRANCH   1   7
HETATM    7  C   UNL     1     -37.928 -55.916  16.713  1.00  0.00     0.087 A 
HETATM    8  C   UNL     1     -38.771 -56.802  17.404  1.00  0.00     0.169 A 
HETATM    9  N   UNL     1     -38.571 -57.196  18.685  1.00  0.00    -0.345 N 
HETATM   10  C   UNL     1     -37.489 -56.694  19.317  1.00  0.00     0.090 A 
ATOM     11  HN  UNL     1     -39.209 -57.842  19.151  1.00  0.00     0.167 HD
HETATM   12  C   UNL     1     -36.603 -55.809  18.736  1.00  0.00     0.019 A 
HETATM   13  C   UNL     1     -36.832 -55.416  17.419  1.00  0.00     0.035 A 
BRANCH   8  14
HETATM   14  O   UNL     1     -39.863 -57.315  16.717  1.00  0.00    -0.339 OA
HETATM   15  C   UNL     1     -41.097 -56.749  17.162  1.00  0.00     0.211 C 
ENDBRANCH   8  14
ENDBRANCH   1   7
BRANCH   4  16
HETATM   16  C   UNL     1     -40.436 -53.612  13.212  1.00  0.00     0.154 C 
BRANCH  16  17
HETATM   17  C   UNL     1     -41.855 -54.227  13.245  1.00  0.00     0.292 C 
BRANCH  17  18
HETATM   18  N   UNL     1     -42.750 -53.663  14.276  1.00  0.00     0.090 N 
HETATM   19  C   UNL     1     -43.678 -54.680  14.807  1.00  0.00     0.273 C 
HETATM   20  C   UNL     1     -44.910 -54.978  13.936  1.00  0.00     0.034 C 
HETATM   21  C   UNL     1     -45.644 -53.714  13.471  1.00  0.00    -0.015 C 
HETATM   22  C   UNL     1     -46.456 -53.069  14.600  1.00  0.00     0.010 C 
HETATM   23  C   UNL     1     -44.626 -52.736  12.876  1.00  0.00     0.034 C 
HETATM   24  C   UNL     1     -43.478 -52.460  13.849  1.00  0.00     0.273 C 
ENDBRANCH  17  18
ENDBRANCH  16  17
ENDBRANCH   4  16
TORSDOF 5
ENDMDL
