MODEL 1
REMARK VINA RESULT:      -5.2      0.000      0.000
REMARK  6 active torsions:
REMARK  status: ('A' for Active; 'I' for Inactive)
REMARK    1  A    between atoms: C_1  and  C_2 
REMARK    2  A    between atoms: C_1  and  N_10 
REMARK    3  A    between atoms: C_2  and  O_3 
REMARK    4  A    between atoms: O_3  and  C_4 
REMARK    5  A    between atoms: C_4  and  C_5 
REMARK    6  A    between atoms: N_10  and  C_11 
ROOT
HETATM    1  N   UNL     1     -40.479 -49.989  10.601  1.00  0.00    -0.262 NA
HETATM    2  H   UNL     1     -39.680 -49.711  10.037  1.00  0.00     0.130 HD
ENDROOT
BRANCH   1   3
HETATM    3  C   UNL     1     -40.170 -50.706  11.824  1.00  0.00     0.121 C 
BRANCH   3   4
HETATM    4  C   UNL     1     -40.890 -52.059  11.866  1.00  0.00     0.182 C 
BRANCH   4   5
HETATM    5  O   UNL     1     -42.253 -51.947  12.299  1.00  0.00    -0.390 OA
BRANCH   5   6
HETATM    6  C   UNL     1     -42.473 -52.528  13.584  1.00  0.00     0.174 C 
BRANCH   6   7
HETATM    7  C   UNL     1     -43.175 -53.867  13.440  1.00  0.00     0.035 C 
HETATM    8  C   UNL     1     -44.609 -53.783  12.959  1.00  0.00     0.035 C 
HETATM    9  C   UNL     1     -45.297 -54.948  13.653  1.00  0.00     0.168 C 
HETATM   10  O   UNL     1     -44.382 -55.501  14.608  1.00  0.00    -0.391 OA
HETATM   11  C   UNL     1     -43.311 -54.572  14.773  1.00  0.00     0.174 C 
ENDBRANCH   6   7
ENDBRANCH   5   6
ENDBRANCH   4   5
ENDBRANCH   3   4
ENDBRANCH   1   3
BRANCH   1  12
HETATM   12  C   UNL     1     -41.229 -48.834  10.786  1.00  0.00     0.156 A 
HETATM   13  N   UNL     1     -40.582 -47.684  10.571  1.00  0.00    -0.343 N 
HETATM   14  C   UNL     1     -41.297 -46.551  10.705  1.00  0.00     0.092 A 
ATOM     15  HN  UNL     1     -39.594 -47.667  10.318  1.00  0.00     0.167 HD
HETATM   16  C   UNL     1     -42.622 -46.522  11.058  1.00  0.00     0.034 A 
HETATM   17  C   UNL     1     -43.191 -47.754  11.273  1.00  0.00     0.092 A 
HETATM   18  N   UNL     1     -42.521 -48.912  11.143  1.00  0.00    -0.343 N 
ATOM     19  HN  UNL     1     -42.974 -49.810  11.309  1.00  0.00     0.167 HD
ENDBRANCH   1  12
TORSDOF 6
ENDMDL
MODEL 2
REMARK VINA RESULT:      -5.0      2.042      3.140
REMARK  6 active torsions:
REMARK  status: ('A' for Active; 'I' for Inactive)
REMARK    1  A    between atoms: C_1  and  C_2 
REMARK    2  A    between atoms: C_1  and  N_10 
REMARK    3  A    between atoms: C_2  and  O_3 
REMARK    4  A    between atoms: O_3  and  C_4 
REMARK    5  A    between atoms: C_4  and  C_5 
REMARK    6  A    between atoms: N_10  and  C_11 
ROOT
HETATM    1  N   UNL     1     -40.827 -52.876  11.725  1.00  0.00    -0.262 NA
HETATM    2  H   UNL     1     -40.130 -53.197  11.058  1.00  0.00     0.130 HD
ENDROOT
BRANCH   1   3
HETATM    3  C   UNL     1     -40.763 -53.477  13.044  1.00  0.00     0.121 C 
BRANCH   3   4
HETATM    4  C   UNL     1     -42.101 -54.124  13.420  1.00  0.00     0.182 C 
BRANCH   4   5
HETATM    5  O   UNL     1     -43.194 -53.196  13.380  1.00  0.00    -0.390 OA
BRANCH   5   6
HETATM    6  C   UNL     1     -44.228 -53.600  12.483  1.00  0.00     0.174 C 
BRANCH   6   7
HETATM    7  C   UNL     1     -45.558 -53.008  12.914  1.00  0.00     0.035 C 
HETATM    8  C   UNL     1     -45.504 -51.545  13.306  1.00  0.00     0.035 C 
HETATM    9  C   UNL     1     -46.554 -51.420  14.398  1.00  0.00     0.168 C 
HETATM   10  O   UNL     1     -47.001 -52.738  14.740  1.00  0.00    -0.391 OA
HETATM   11  C   UNL     1     -46.083 -53.670  14.170  1.00  0.00     0.174 C 
ENDBRANCH   6   7
ENDBRANCH   5   6
ENDBRANCH   4   5
ENDBRANCH   3   4
ENDBRANCH   1   3
BRANCH   1  12
HETATM   12  C   UNL     1     -40.741 -51.490  11.720  1.00  0.00     0.156 A 
HETATM   13  N   UNL     1     -41.903 -50.838  11.832  1.00  0.00    -0.343 N 
HETATM   14  C   UNL     1     -41.844 -49.493  11.869  1.00  0.00     0.092 A 
ATOM     15  HN  UNL     1     -42.792 -51.335  11.885  1.00  0.00     0.167 HD
HETATM   16  C   UNL     1     -40.676 -48.778  11.786  1.00  0.00     0.034 A 
HETATM   17  C   UNL     1     -39.539 -49.539  11.657  1.00  0.00     0.092 A 
HETATM   18  N   UNL     1     -39.548 -50.882  11.623  1.00  0.00    -0.343 N 
ATOM     19  HN  UNL     1     -38.685 -51.417  11.528  1.00  0.00     0.167 HD
ENDBRANCH   1  12
TORSDOF 6
ENDMDL
MODEL 3
REMARK VINA RESULT:      -5.0      2.113      2.476
REMARK  6 active torsions:
REMARK  status: ('A' for Active; 'I' for Inactive)
REMARK    1  A    between atoms: C_1  and  C_2 
REMARK    2  A    between atoms: C_1  and  N_10 
REMARK    3  A    between atoms: C_2  and  O_3 
REMARK    4  A    between atoms: O_3  and  C_4 
REMARK    5  A    between atoms: C_4  and  C_5 
REMARK    6  A    between atoms: N_10  and  C_11 
ROOT
HETATM    1  N   UNL     1     -40.544 -49.747  10.513  1.00  0.00    -0.262 NA
HETATM    2  H   UNL     1     -40.198 -49.742   9.556  1.00  0.00     0.130 HD
ENDROOT
BRANCH   1   3
HETATM    3  C   UNL     1     -39.541 -49.915  11.547  1.00  0.00     0.121 C 
BRANCH   3   4
HETATM    4  C   UNL     1     -40.063 -50.803  12.682  1.00  0.00     0.182 C 
BRANCH   4   5
HETATM    5  O   UNL     1     -39.726 -52.186  12.502  1.00  0.00    -0.390 OA
BRANCH   5   6
HETATM    6  C   UNL     1     -40.877 -53.024  12.395  1.00  0.00     0.174 C 
BRANCH   6   7
HETATM    7  C   UNL     1     -40.761 -54.196  13.353  1.00  0.00     0.035 C 
HETATM    8  C   UNL     1     -41.621 -54.089  14.596  1.00  0.00     0.035 C 
HETATM    9  C   UNL     1     -40.802 -54.786  15.670  1.00  0.00     0.168 C 
HETATM   10  O   UNL     1     -39.504 -55.066  15.129  1.00  0.00    -0.391 OA
HETATM   11  C   UNL     1     -39.364 -54.315  13.924  1.00  0.00     0.174 C 
ENDBRANCH   6   7
ENDBRANCH   5   6
ENDBRANCH   4   5
ENDBRANCH   3   4
ENDBRANCH   1   3
BRANCH   1  12
HETATM   12  C   UNL     1     -41.313 -48.596  10.639  1.00  0.00     0.156 A 
HETATM   13  N   UNL     1     -40.642 -47.442  10.567  1.00  0.00    -0.343 N 
HETATM   14  C   UNL     1     -41.369 -46.311  10.647  1.00  0.00     0.092 A 
ATOM     15  HN  UNL     1     -39.628 -47.419  10.457  1.00  0.00     0.167 HD
HETATM   16  C   UNL     1     -42.731 -46.289  10.810  1.00  0.00     0.034 A 
HETATM   17  C   UNL     1     -43.324 -47.527  10.889  1.00  0.00     0.092 A 
HETATM   18  N   UNL     1     -42.642 -48.681  10.806  1.00  0.00    -0.343 N 
ATOM     19  HN  UNL     1     -43.114 -49.583  10.867  1.00  0.00     0.167 HD
ENDBRANCH   1  12
TORSDOF 6
ENDMDL
MODEL 4
REMARK VINA RESULT:      -4.9      1.167      1.967
REMARK  6 active torsions:
REMARK  status: ('A' for Active; 'I' for Inactive)
REMARK    1  A    between atoms: C_1  and  C_2 
REMARK    2  A    between atoms: C_1  and  N_10 
REMARK    3  A    between atoms: C_2  and  O_3 
REMARK    4  A    between atoms: O_3  and  C_4 
REMARK    5  A    between atoms: C_4  and  C_5 
REMARK    6  A    between atoms: N_10  and  C_11 
ROOT
HETATM    1  N   UNL     1     -40.584 -49.787  10.608  1.00  0.00    -0.262 NA
HETATM    2  H   UNL     1     -40.185 -49.825   9.673  1.00  0.00     0.130 HD
ENDROOT
BRANCH   1   3
HETATM    3  C   UNL     1     -39.651 -49.988  11.701  1.00  0.00     0.121 C 
BRANCH   3   4
HETATM    4  C   UNL     1     -40.225 -50.951  12.745  1.00  0.00     0.182 C 
BRANCH   4   5
HETATM    5  O   UNL     1     -39.865 -52.317  12.494  1.00  0.00    -0.390 OA
BRANCH   5   6
HETATM    6  C   UNL     1     -40.979 -53.117  12.098  1.00  0.00     0.174 C 
BRANCH   6   7
HETATM    7  C   UNL     1     -42.052 -53.088  13.172  1.00  0.00     0.035 C 
HETATM    8  C   UNL     1     -42.173 -54.361  13.984  1.00  0.00     0.035 C 
HETATM    9  C   UNL     1     -43.654 -54.447  14.313  1.00  0.00     0.168 C 
HETATM   10  O   UNL     1     -44.337 -53.431  13.567  1.00  0.00    -0.391 OA
HETATM   11  C   UNL     1     -43.436 -52.942  12.574  1.00  0.00     0.174 C 
ENDBRANCH   6   7
ENDBRANCH   5   6
ENDBRANCH   4   5
ENDBRANCH   3   4
ENDBRANCH   1   3
BRANCH   1  12
HETATM   12  C   UNL     1     -41.289 -48.592  10.666  1.00  0.00     0.156 A 
HETATM   13  N   UNL     1     -42.600 -48.704  10.902  1.00  0.00    -0.343 N 
HETATM   14  C   UNL     1     -43.300 -47.558  11.003  1.00  0.00     0.092 A 
ATOM     15  HN  UNL     1     -43.048 -49.615  11.000  1.00  0.00     0.167 HD
HETATM   16  C   UNL     1     -42.746 -46.311  10.864  1.00  0.00     0.034 A 
HETATM   17  C   UNL     1     -41.396 -46.303  10.607  1.00  0.00     0.092 A 
HETATM   18  N   UNL     1     -40.654 -47.419  10.506  1.00  0.00    -0.343 N 
ATOM     19  HN  UNL     1     -39.653 -47.377  10.316  1.00  0.00     0.167 HD
ENDBRANCH   1  12
TORSDOF 6
ENDMDL
MODEL 5
REMARK VINA RESULT:      -4.9      2.763      6.497
REMARK  6 active torsions:
REMARK  status: ('A' for Active; 'I' for Inactive)
REMARK    1  A    between atoms: C_1  and  C_2 
REMARK    2  A    between atoms: C_1  and  N_10 
REMARK    3  A    between atoms: C_2  and  O_3 
REMARK    4  A    between atoms: O_3  and  C_4 
REMARK    5  A    between atoms: C_4  and  C_5 
REMARK    6  A    between atoms: N_10  and  C_11 
ROOT
HETATM    1  N   UNL     1     -40.759 -51.713  11.358  1.00  0.00    -0.262 NA
HETATM    2  H   UNL     1     -41.282 -51.347  10.566  1.00  0.00     0.130 HD
ENDROOT
BRANCH   1   3
HETATM    3  C   UNL     1     -40.098 -50.724  12.190  1.00  0.00     0.121 C 
BRANCH   3   4
HETATM    4  C   UNL     1     -40.158 -49.335  11.546  1.00  0.00     0.182 C 
BRANCH   4   5
HETATM    5  O   UNL     1     -41.368 -49.120  10.806  1.00  0.00    -0.390 OA
BRANCH   5   6
HETATM    6  C   UNL     1     -42.432 -48.628  11.620  1.00  0.00     0.174 C 
BRANCH   6   7
HETATM    7  C   UNL     1     -43.011 -47.361  11.017  1.00  0.00     0.035 C 
HETATM    8  C   UNL     1     -44.106 -47.587   9.993  1.00  0.00     0.035 C 
HETATM    9  C   UNL     1     -43.928 -46.444   9.008  1.00  0.00     0.168 C 
HETATM   10  O   UNL     1     -42.708 -45.764   9.329  1.00  0.00    -0.391 OA
HETATM   11  C   UNL     1     -41.972 -46.592  10.229  1.00  0.00     0.174 C 
ENDBRANCH   6   7
ENDBRANCH   5   6
ENDBRANCH   4   5
ENDBRANCH   3   4
ENDBRANCH   1   3
BRANCH   1  12
HETATM   12  C   UNL     1     -41.642 -52.540  12.041  1.00  0.00     0.156 A 
HETATM   13  N   UNL     1     -41.095 -53.326  12.973  1.00  0.00    -0.343 N 
HETATM   14  C   UNL     1     -41.934 -54.109  13.677  1.00  0.00     0.092 A 
ATOM     15  HN  UNL     1     -40.089 -53.333  13.143  1.00  0.00     0.167 HD
HETATM   16  C   UNL     1     -43.290 -54.148  13.477  1.00  0.00     0.034 A 
HETATM   17  C   UNL     1     -43.753 -53.315  12.486  1.00  0.00     0.092 A 
HETATM   18  N   UNL     1     -42.956 -52.510  11.763  1.00  0.00    -0.343 N 
ATOM     19  HN  UNL     1     -43.332 -51.903  11.036  1.00  0.00     0.167 HD
ENDBRANCH   1  12
TORSDOF 6
ENDMDL
MODEL 6
REMARK VINA RESULT:      -4.5      3.720      5.664
REMARK  6 active torsions:
REMARK  status: ('A' for Active; 'I' for Inactive)
REMARK    1  A    between atoms: C_1  and  C_2 
REMARK    2  A    between atoms: C_1  and  N_10 
REMARK    3  A    between atoms: C_2  and  O_3 
REMARK    4  A    between atoms: O_3  and  C_4 
REMARK    5  A    between atoms: C_4  and  C_5 
REMARK    6  A    between atoms: N_10  and  C_11 
ROOT
HETATM    1  N   UNL     1     -43.477 -52.998  11.961  1.00  0.00    -0.262 NA
HETATM    2  H   UNL     1     -43.888 -52.756  11.063  1.00  0.00     0.130 HD
ENDROOT
BRANCH   1   3
HETATM    3  C   UNL     1     -42.532 -52.040  12.502  1.00  0.00     0.121 C 
BRANCH   3   4
HETATM    4  C   UNL     1     -41.159 -52.186  11.837  1.00  0.00     0.182 C 
BRANCH   4   5
HETATM    5  O   UNL     1     -40.255 -52.994  12.604  1.00  0.00    -0.390 OA
BRANCH   5   6
HETATM    6  C   UNL     1     -40.582 -53.019  13.993  1.00  0.00     0.174 C 
BRANCH   6   7
HETATM    7  C   UNL     1     -40.398 -54.420  14.549  1.00  0.00     0.035 C 
HETATM    8  C   UNL     1     -40.769 -54.578  16.009  1.00  0.00     0.035 C 
HETATM    9  C   UNL     1     -39.803 -55.634  16.521  1.00  0.00     0.168 C 
HETATM   10  O   UNL     1     -38.833 -55.886  15.496  1.00  0.00    -0.391 OA
HETATM   11  C   UNL     1     -38.944 -54.843  14.527  1.00  0.00     0.174 C 
ENDBRANCH   6   7
ENDBRANCH   5   6
ENDBRANCH   4   5
ENDBRANCH   3   4
ENDBRANCH   1   3
BRANCH   1  12
HETATM   12  C   UNL     1     -44.548 -53.285  12.799  1.00  0.00     0.156 A 
HETATM   13  N   UNL     1     -44.646 -54.557  13.197  1.00  0.00    -0.343 N 
HETATM   14  C   UNL     1     -45.652 -54.854  14.041  1.00  0.00     0.092 A 
ATOM     15  HN  UNL     1     -43.990 -55.270  12.876  1.00  0.00     0.167 HD
HETATM   16  C   UNL     1     -46.568 -53.936  14.489  1.00  0.00     0.034 A 
HETATM   17  C   UNL     1     -46.391 -52.660  14.010  1.00  0.00     0.092 A 
HETATM   18  N   UNL     1     -45.398 -52.315  13.173  1.00  0.00    -0.343 N 
ATOM     19  HN  UNL     1     -45.294 -51.358  12.837  1.00  0.00     0.167 HD
ENDBRANCH   1  12
TORSDOF 6
ENDMDL
MODEL 7
REMARK VINA RESULT:      -4.5      3.683      5.996
REMARK  6 active torsions:
REMARK  status: ('A' for Active; 'I' for Inactive)
REMARK    1  A    between atoms: C_1  and  C_2 
REMARK    2  A    between atoms: C_1  and  N_10 
REMARK    3  A    between atoms: C_2  and  O_3 
REMARK    4  A    between atoms: O_3  and  C_4 
REMARK    5  A    between atoms: C_4  and  C_5 
REMARK    6  A    between atoms: N_10  and  C_11 
ROOT
HETATM    1  N   UNL     1     -43.427 -53.476  12.267  1.00  0.00    -0.262 NA
HETATM    2  H   UNL     1     -43.725 -53.749  11.333  1.00  0.00     0.130 HD
ENDROOT
BRANCH   1   3
HETATM    3  C   UNL     1     -42.175 -52.748  12.344  1.00  0.00     0.121 C 
BRANCH   3   4
HETATM    4  C   UNL     1     -41.010 -53.690  12.670  1.00  0.00     0.182 C 
BRANCH   4   5
HETATM    5  O   UNL     1     -39.853 -52.992  13.153  1.00  0.00    -0.390 OA
BRANCH   5   6
HETATM    6  C   UNL     1     -40.176 -51.736  13.749  1.00  0.00     0.174 C 
BRANCH   6   7
HETATM    7  C   UNL     1     -39.169 -50.681  13.328  1.00  0.00     0.035 C 
HETATM    8  C   UNL     1     -39.435 -50.052  11.976  1.00  0.00     0.035 C 
HETATM    9  C   UNL     1     -38.048 -49.755  11.431  1.00  0.00     0.168 C 
HETATM   10  O   UNL     1     -37.086 -50.363  12.303  1.00  0.00    -0.391 OA
HETATM   11  C   UNL     1     -37.784 -51.270  13.155  1.00  0.00     0.174 C 
ENDBRANCH   6   7
ENDBRANCH   5   6
ENDBRANCH   4   5
ENDBRANCH   3   4
ENDBRANCH   1   3
BRANCH   1  12
HETATM   12  C   UNL     1     -44.512 -52.814  12.828  1.00  0.00     0.156 A 
HETATM   13  N   UNL     1     -44.446 -52.610  14.147  1.00  0.00    -0.343 N 
HETATM   14  C   UNL     1     -45.467 -51.935  14.710  1.00  0.00     0.092 A 
ATOM     15  HN  UNL     1     -43.660 -52.950  14.702  1.00  0.00     0.167 HD
HETATM   16  C   UNL     1     -46.552 -51.471  14.010  1.00  0.00     0.034 A 
HETATM   17  C   UNL     1     -46.534 -51.746  12.664  1.00  0.00     0.092 A 
HETATM   18  N   UNL     1     -45.534 -52.407  12.057  1.00  0.00    -0.343 N 
ATOM     19  HN  UNL     1     -45.551 -52.593  11.055  1.00  0.00     0.167 HD
ENDBRANCH   1  12
TORSDOF 6
ENDMDL
MODEL 8
REMARK VINA RESULT:      -4.5      4.390      7.232
REMARK  6 active torsions:
REMARK  status: ('A' for Active; 'I' for Inactive)
REMARK    1  A    between atoms: C_1  and  C_2 
REMARK    2  A    between atoms: C_1  and  N_10 
REMARK    3  A    between atoms: C_2  and  O_3 
REMARK    4  A    between atoms: O_3  and  C_4 
REMARK    5  A    between atoms: C_4  and  C_5 
REMARK    6  A    between atoms: N_10  and  C_11 
ROOT
HETATM    1  N   UNL     1     -40.750 -49.424  10.609  1.00  0.00    -0.262 NA
HETATM    2  H   UNL     1     -40.971 -50.124   9.904  1.00  0.00     0.130 HD
ENDROOT
BRANCH   1   3
HETATM    3  C   UNL     1     -41.862 -48.975  11.425  1.00  0.00     0.121 C 
BRANCH   3   4
HETATM    4  C   UNL     1     -42.454 -47.671  10.878  1.00  0.00     0.182 C 
BRANCH   4   5
HETATM    5  O   UNL     1     -41.943 -46.509  11.547  1.00  0.00    -0.390 OA
BRANCH   5   6
HETATM    6  C   UNL     1     -40.973 -45.808  10.769  1.00  0.00     0.174 C 
BRANCH   6   7
HETATM    7  C   UNL     1     -39.744 -45.510  11.610  1.00  0.00     0.035 C 
HETATM    8  C   UNL     1     -39.623 -46.338  12.873  1.00  0.00     0.035 C 
HETATM    9  C   UNL     1     -38.946 -45.402  13.861  1.00  0.00     0.168 C 
HETATM   10  O   UNL     1     -38.893 -44.095  13.273  1.00  0.00    -0.391 OA
HETATM   11  C   UNL     1     -39.763 -44.092  12.142  1.00  0.00     0.174 C 
ENDBRANCH   6   7
ENDBRANCH   5   6
ENDBRANCH   4   5
ENDBRANCH   3   4
ENDBRANCH   1   3
BRANCH   1  12
HETATM   12  C   UNL     1     -39.681 -49.943  11.329  1.00  0.00     0.156 A 
HETATM   13  N   UNL     1     -38.471 -49.733  10.800  1.00  0.00    -0.343 N 
HETATM   14  C   UNL     1     -37.415 -50.191  11.499  1.00  0.00     0.092 A 
ATOM     15  HN  UNL     1     -38.354 -49.249   9.910  1.00  0.00     0.167 HD
HETATM   16  C   UNL     1     -37.521 -50.860  12.692  1.00  0.00     0.034 A 
HETATM   17  C   UNL     1     -38.807 -51.039  13.143  1.00  0.00     0.092 A 
HETATM   18  N   UNL     1     -39.891 -50.593  12.485  1.00  0.00    -0.343 N 
ATOM     19  HN  UNL     1     -40.832 -50.742  12.848  1.00  0.00     0.167 HD
ENDBRANCH   1  12
TORSDOF 6
ENDMDL
MODEL 9
REMARK VINA RESULT:      -4.5      3.220      4.733
REMARK  6 active torsions:
REMARK  status: ('A' for Active; 'I' for Inactive)
REMARK    1  A    between atoms: C_1  and  C_2 
REMARK    2  A    between atoms: C_1  and  N_10 
REMARK    3  A    between atoms: C_2  and  O_3 
REMARK    4  A    between atoms: O_3  and  C_4 
REMARK    5  A    between atoms: C_4  and  C_5 
REMARK    6  A    between atoms: N_10  and  C_11 
ROOT
HETATM    1  N   UNL     1     -42.479 -46.715  11.144  1.00  0.00    -0.262 NA
HETATM    2  H   UNL     1     -42.234 -47.570  11.636  1.00  0.00     0.130 HD
ENDROOT
BRANCH   1   3
HETATM    3  C   UNL     1     -41.365 -45.882  10.731  1.00  0.00     0.121 C 
BRANCH   3   4
HETATM    4  C   UNL     1     -40.026 -46.535  11.091  1.00  0.00     0.182 C 
BRANCH   4   5
HETATM    5  O   UNL     1     -40.179 -47.669  11.956  1.00  0.00    -0.390 OA
BRANCH   5   6
HETATM    6  C   UNL     1     -39.014 -48.493  11.996  1.00  0.00     0.174 C 
BRANCH   6   7
HETATM    7  C   UNL     1     -39.372 -49.923  11.635  1.00  0.00     0.035 C 
HETATM    8  C   UNL     1     -40.858 -50.210  11.572  1.00  0.00     0.035 C 
HETATM    9  C   UNL     1     -40.973 -51.654  12.031  1.00  0.00     0.168 C 
HETATM   10  O   UNL     1     -39.691 -52.070  12.519  1.00  0.00    -0.391 OA
HETATM   11  C   UNL     1     -38.889 -50.902  12.685  1.00  0.00     0.174 C 
ENDBRANCH   6   7
ENDBRANCH   5   6
ENDBRANCH   4   5
ENDBRANCH   3   4
ENDBRANCH   1   3
BRANCH   1  12
HETATM   12  C   UNL     1     -43.320 -47.105  10.109  1.00  0.00     0.156 A 
HETATM   13  N   UNL     1     -42.717 -47.399   8.953  1.00  0.00    -0.343 N 
HETATM   14  C   UNL     1     -43.505 -47.819   7.946  1.00  0.00     0.092 A 
ATOM     15  HN  UNL     1     -41.707 -47.310   8.840  1.00  0.00     0.167 HD
HETATM   16  C   UNL     1     -44.868 -47.941   8.044  1.00  0.00     0.034 A 
HETATM   17  C   UNL     1     -45.394 -47.600   9.267  1.00  0.00     0.092 A 
HETATM   18  N   UNL     1     -44.646 -47.185  10.304  1.00  0.00    -0.343 N 
ATOM     19  HN  UNL     1     -45.068 -46.940  11.199  1.00  0.00     0.167 HD
ENDBRANCH   1  12
TORSDOF 6
ENDMDL
