MODEL 1
REMARK VINA RESULT:      -7.5      0.000      0.000
REMARK  4 active torsions:
REMARK  status: ('A' for Active; 'I' for Inactive)
REMARK    1  A    between atoms: C_2  and  C_3 
REMARK    2  A    between atoms: C_2  and  C_19 
REMARK    3  A    between atoms: C_3  and  N_4 
REMARK       I    between atoms: N_4  and  C_5 
REMARK       I    between atoms: C_5  and  N_7 
REMARK    4  A    between atoms: N_7  and  C_8 
ROOT
HETATM    1  N   UNL     1     -42.107 -49.441  11.162  1.00  0.00    -0.342 N 
HETATM    2  C   UNL     1     -41.732 -50.139  12.292  1.00  0.00     0.316 C 
HETATM    3  O   UNL     1     -40.925 -49.736  13.113  1.00  0.00    -0.247 OA
HETATM    4  N   UNL     1     -42.357 -51.358  12.365  1.00  0.00    -0.338 N 
HETATM    5  H   UNL     1     -42.373 -50.023  10.381  1.00  0.00     0.164 HD
HETATM    6  H   UNL     1     -43.185 -51.461  11.795  1.00  0.00     0.164 HD
ENDROOT
BRANCH   1   7
HETATM    7  C   UNL     1     -41.374 -48.223  10.835  1.00  0.00     0.133 C 
BRANCH   7   8
HETATM    8  C   UNL     1     -42.252 -47.020  10.397  1.00  0.00     0.032 C 
HETATM    9  C   UNL     1     -42.669 -46.186  11.617  1.00  0.00     0.017 C 
BRANCH   8  10
HETATM   10  C   UNL     1     -43.393 -47.408   9.459  1.00  0.00    -0.050 A 
HETATM   11  C   UNL     1     -43.192 -47.858   8.148  1.00  0.00     0.024 A 
HETATM   12  C   UNL     1     -44.290 -48.220   7.377  1.00  0.00     0.088 A 
HETATM   13  N   UNL     1     -45.565 -48.165   7.810  1.00  0.00    -0.375 N 
HETATM   14  C   UNL     1     -45.748 -47.751   9.078  1.00  0.00     0.088 A 
ATOM     15  HN  UNL     1     -46.348 -48.422   7.209  1.00  0.00     0.164 HD
HETATM   16  C   UNL     1     -44.715 -47.378   9.927  1.00  0.00     0.024 A 
ENDBRANCH   8  10
ENDBRANCH   7   8
ENDBRANCH   1   7
BRANCH   4  17
HETATM   17  C   UNL     1     -42.108 -52.327  13.432  1.00  0.00     0.091 C 
HETATM   18  C   UNL     1     -42.467 -53.735  12.966  1.00  0.00     0.051 C 
HETATM   19  C   UNL     1     -43.973 -53.960  12.974  1.00  0.00     0.171 C 
HETATM   20  O   UNL     1     -44.577 -53.629  14.211  1.00  0.00    -0.380 OA
HETATM   21  C   UNL     1     -44.326 -52.322  14.751  1.00  0.00     0.062 C 
HETATM   22  C   UNL     1     -44.909 -52.393  16.187  1.00  0.00     0.038 C 
HETATM   23  C   UNL     1     -45.068 -51.193  14.007  1.00  0.00     0.038 C 
HETATM   24  C   UNL     1     -42.811 -52.041  14.776  1.00  0.00     0.063 C 
HETATM   25  C   UNL     1     -46.435 -52.592  16.180  1.00  0.00     0.003 C 
HETATM   26  C   UNL     1     -47.155 -51.518  15.371  1.00  0.00     0.000 C 
HETATM   27  C   UNL     1     -46.577 -51.382  13.971  1.00  0.00     0.003 C 
ENDBRANCH   4  17
TORSDOF 4
ENDMDL
MODEL 2
REMARK VINA RESULT:      -6.8      1.793      3.002
REMARK  4 active torsions:
REMARK  status: ('A' for Active; 'I' for Inactive)
REMARK    1  A    between atoms: C_2  and  C_3 
REMARK    2  A    between atoms: C_2  and  C_19 
REMARK    3  A    between atoms: C_3  and  N_4 
REMARK       I    between atoms: N_4  and  C_5 
REMARK       I    between atoms: C_5  and  N_7 
REMARK    4  A    between atoms: N_7  and  C_8 
ROOT
HETATM    1  N   UNL     1     -42.332 -49.385  11.303  1.00  0.00    -0.342 N 
HETATM    2  C   UNL     1     -41.923 -50.124  12.394  1.00  0.00     0.316 C 
HETATM    3  O   UNL     1     -41.095 -49.747  13.207  1.00  0.00    -0.247 OA
HETATM    4  N   UNL     1     -42.538 -51.349  12.437  1.00  0.00    -0.338 N 
HETATM    5  H   UNL     1     -42.617 -49.938  10.507  1.00  0.00     0.164 HD
HETATM    6  H   UNL     1     -43.381 -51.435  11.887  1.00  0.00     0.164 HD
ENDROOT
BRANCH   1   7
HETATM    7  C   UNL     1     -41.615 -48.151  11.002  1.00  0.00     0.133 C 
BRANCH   7   8
HETATM    8  C   UNL     1     -42.511 -46.945  10.610  1.00  0.00     0.032 C 
HETATM    9  C   UNL     1     -43.211 -47.207   9.269  1.00  0.00     0.017 C 
BRANCH   8  10
HETATM   10  C   UNL     1     -41.799 -45.598  10.716  1.00  0.00    -0.050 A 
HETATM   11  C   UNL     1     -42.435 -44.422  11.132  1.00  0.00     0.024 A 
HETATM   12  C   UNL     1     -41.699 -43.248  11.229  1.00  0.00     0.088 A 
HETATM   13  N   UNL     1     -40.385 -43.157  10.942  1.00  0.00    -0.375 N 
HETATM   14  C   UNL     1     -39.776 -44.296  10.562  1.00  0.00     0.088 A 
ATOM     15  HN  UNL     1     -39.880 -42.273  11.008  1.00  0.00     0.164 HD
HETATM   16  C   UNL     1     -40.425 -45.518  10.445  1.00  0.00     0.024 A 
ENDBRANCH   8  10
ENDBRANCH   7   8
ENDBRANCH   1   7
BRANCH   4  17
HETATM   17  C   UNL     1     -42.255 -52.356  13.458  1.00  0.00     0.091 C 
HETATM   18  C   UNL     1     -42.651 -53.743  12.962  1.00  0.00     0.051 C 
HETATM   19  C   UNL     1     -44.158 -53.952  13.029  1.00  0.00     0.171 C 
HETATM   20  O   UNL     1     -44.703 -53.657  14.302  1.00  0.00    -0.380 OA
HETATM   21  C   UNL     1     -44.412 -52.373  14.874  1.00  0.00     0.062 C 
HETATM   22  C   UNL     1     -44.933 -52.487  16.331  1.00  0.00     0.038 C 
HETATM   23  C   UNL     1     -45.173 -51.211  14.202  1.00  0.00     0.038 C 
HETATM   24  C   UNL     1     -42.894 -52.109  14.842  1.00  0.00     0.063 C 
HETATM   25  C   UNL     1     -46.460 -52.669  16.385  1.00  0.00     0.003 C 
HETATM   26  C   UNL     1     -47.202 -51.560  15.645  1.00  0.00     0.000 C 
HETATM   27  C   UNL     1     -46.684 -51.382  14.226  1.00  0.00     0.003 C 
ENDBRANCH   4  17
TORSDOF 4
ENDMDL
MODEL 3
REMARK VINA RESULT:      -6.4      2.700      7.333
REMARK  4 active torsions:
REMARK  status: ('A' for Active; 'I' for Inactive)
REMARK    1  A    between atoms: C_2  and  C_3 
REMARK    2  A    between atoms: C_2  and  C_19 
REMARK    3  A    between atoms: C_3  and  N_4 
REMARK       I    between atoms: N_4  and  C_5 
REMARK       I    between atoms: C_5  and  N_7 
REMARK    4  A    between atoms: N_7  and  C_8 
ROOT
HETATM    1  N   UNL     1     -44.328 -51.781  12.500  1.00  0.00    -0.342 N 
HETATM    2  C   UNL     1     -43.957 -50.687  13.255  1.00  0.00     0.316 C 
HETATM    3  O   UNL     1     -44.141 -50.587  14.457  1.00  0.00    -0.247 OA
HETATM    4  N   UNL     1     -43.381 -49.710  12.484  1.00  0.00    -0.338 N 
HETATM    5  H   UNL     1     -44.556 -51.567  11.540  1.00  0.00     0.164 HD
HETATM    6  H   UNL     1     -43.040 -50.009  11.581  1.00  0.00     0.164 HD
ENDROOT
BRANCH   1   7
HETATM    7  C   UNL     1     -45.140 -52.811  13.138  1.00  0.00     0.133 C 
BRANCH   7   8
HETATM    8  C   UNL     1     -44.483 -54.215  13.220  1.00  0.00     0.032 C 
HETATM    9  C   UNL     1     -45.467 -55.237  13.806  1.00  0.00     0.017 C 
BRANCH   8  10
HETATM   10  C   UNL     1     -43.100 -54.204  13.867  1.00  0.00    -0.050 A 
HETATM   11  C   UNL     1     -41.909 -54.124  13.136  1.00  0.00     0.024 A 
HETATM   12  C   UNL     1     -40.696 -54.087  13.813  1.00  0.00     0.088 A 
HETATM   13  N   UNL     1     -40.582 -54.127  15.155  1.00  0.00    -0.375 N 
HETATM   14  C   UNL     1     -41.733 -54.183  15.852  1.00  0.00     0.088 A 
ATOM     15  HN  UNL     1     -39.673 -54.115  15.618  1.00  0.00     0.164 HD
HETATM   16  C   UNL     1     -42.990 -54.215  15.266  1.00  0.00     0.024 A 
ENDBRANCH   8  10
ENDBRANCH   7   8
ENDBRANCH   1   7
BRANCH   4  17
HETATM   17  C   UNL     1     -42.939 -48.422  13.015  1.00  0.00     0.091 C 
HETATM   18  C   UNL     1     -42.651 -47.447  11.878  1.00  0.00     0.051 C 
HETATM   19  C   UNL     1     -41.316 -47.745  11.210  1.00  0.00     0.171 C 
HETATM   20  O   UNL     1     -40.243 -47.834  12.131  1.00  0.00    -0.380 OA
HETATM   21  C   UNL     1     -40.388 -48.730  13.243  1.00  0.00     0.062 C 
HETATM   22  C   UNL     1     -39.179 -48.391  14.155  1.00  0.00     0.038 C 
HETATM   23  C   UNL     1     -40.270 -50.219  12.857  1.00  0.00     0.038 C 
HETATM   24  C   UNL     1     -41.724 -48.468  13.965  1.00  0.00     0.063 C 
HETATM   25  C   UNL     1     -37.837 -48.724  13.480  1.00  0.00     0.003 C 
HETATM   26  C   UNL     1     -37.762 -50.178  13.024  1.00  0.00     0.000 C 
HETATM   27  C   UNL     1     -38.958 -50.564  12.168  1.00  0.00     0.003 C 
ENDBRANCH   4  17
TORSDOF 4
ENDMDL
MODEL 4
REMARK VINA RESULT:      -6.3      4.029      6.947
REMARK  4 active torsions:
REMARK  status: ('A' for Active; 'I' for Inactive)
REMARK    1  A    between atoms: C_2  and  C_3 
REMARK    2  A    between atoms: C_2  and  C_19 
REMARK    3  A    between atoms: C_3  and  N_4 
REMARK       I    between atoms: N_4  and  C_5 
REMARK       I    between atoms: C_5  and  N_7 
REMARK    4  A    between atoms: N_7  and  C_8 
ROOT
HETATM    1  N   UNL     1     -44.462 -53.334  14.712  1.00  0.00    -0.342 N 
HETATM    2  C   UNL     1     -43.683 -53.548  13.593  1.00  0.00     0.316 C 
HETATM    3  O   UNL     1     -44.126 -53.775  12.480  1.00  0.00    -0.247 OA
HETATM    4  N   UNL     1     -42.345 -53.503  13.891  1.00  0.00    -0.338 N 
HETATM    5  H   UNL     1     -44.034 -53.623  15.580  1.00  0.00     0.164 HD
HETATM    6  H   UNL     1     -42.105 -53.047  14.760  1.00  0.00     0.164 HD
ENDROOT
BRANCH   1   7
HETATM    7  C   UNL     1     -45.899 -53.559  14.599  1.00  0.00     0.133 C 
BRANCH   7   8
HETATM    8  C   UNL     1     -46.768 -52.273  14.563  1.00  0.00     0.032 C 
HETATM    9  C   UNL     1     -46.528 -51.498  13.259  1.00  0.00     0.017 C 
BRANCH   8  10
HETATM   10  C   UNL     1     -46.676 -51.439  15.838  1.00  0.00    -0.050 A 
HETATM   11  C   UNL     1     -45.533 -50.719  16.206  1.00  0.00     0.024 A 
HETATM   12  C   UNL     1     -45.552 -49.960  17.370  1.00  0.00     0.088 A 
HETATM   13  N   UNL     1     -46.616 -49.869  18.192  1.00  0.00    -0.375 N 
HETATM   14  C   UNL     1     -47.718 -50.548  17.821  1.00  0.00     0.088 A 
ATOM     15  HN  UNL     1     -46.588 -49.316  19.049  1.00  0.00     0.164 HD
HETATM   16  C   UNL     1     -47.798 -51.324  16.673  1.00  0.00     0.024 A 
ENDBRANCH   8  10
ENDBRANCH   7   8
ENDBRANCH   1   7
BRANCH   4  17
HETATM   17  C   UNL     1     -41.292 -53.745  12.905  1.00  0.00     0.091 C 
HETATM   18  C   UNL     1     -40.086 -54.406  13.565  1.00  0.00     0.051 C 
HETATM   19  C   UNL     1     -39.258 -53.400  14.353  1.00  0.00     0.171 C 
HETATM   20  O   UNL     1     -38.901 -52.259  13.594  1.00  0.00    -0.380 OA
HETATM   21  C   UNL     1     -39.953 -51.540  12.932  1.00  0.00     0.062 C 
HETATM   22  C   UNL     1     -39.200 -50.540  12.014  1.00  0.00     0.038 C 
HETATM   23  C   UNL     1     -40.833 -50.712  13.890  1.00  0.00     0.038 C 
HETATM   24  C   UNL     1     -40.822 -52.509  12.108  1.00  0.00     0.063 C 
HETATM   25  C   UNL     1     -38.390 -49.512  12.823  1.00  0.00     0.003 C 
HETATM   26  C   UNL     1     -39.254 -48.757  13.828  1.00  0.00     0.000 C 
HETATM   27  C   UNL     1     -40.048 -49.703  14.715  1.00  0.00     0.003 C 
ENDBRANCH   4  17
TORSDOF 4
ENDMDL
MODEL 5
REMARK VINA RESULT:      -6.3      3.984      5.155
REMARK  4 active torsions:
REMARK  status: ('A' for Active; 'I' for Inactive)
REMARK    1  A    between atoms: C_2  and  C_3 
REMARK    2  A    between atoms: C_2  and  C_19 
REMARK    3  A    between atoms: C_3  and  N_4 
REMARK       I    between atoms: N_4  and  C_5 
REMARK       I    between atoms: C_5  and  N_7 
REMARK    4  A    between atoms: N_7  and  C_8 
ROOT
HETATM    1  N   UNL     1     -39.528 -51.431  15.868  1.00  0.00    -0.342 N 
HETATM    2  C   UNL     1     -39.859 -52.700  15.439  1.00  0.00     0.316 C 
HETATM    3  O   UNL     1     -39.061 -53.614  15.314  1.00  0.00    -0.247 OA
HETATM    4  N   UNL     1     -41.194 -52.802  15.140  1.00  0.00    -0.338 N 
HETATM    5  H   UNL     1     -40.113 -50.698  15.495  1.00  0.00     0.164 HD
HETATM    6  H   UNL     1     -41.787 -52.086  15.535  1.00  0.00     0.164 HD
ENDROOT
BRANCH   1   7
HETATM    7  C   UNL     1     -38.114 -51.107  16.022  1.00  0.00     0.133 C 
BRANCH   7   8
HETATM    8  C   UNL     1     -37.654 -49.805  15.313  1.00  0.00     0.032 C 
HETATM    9  C   UNL     1     -38.183 -48.571  16.057  1.00  0.00     0.017 C 
BRANCH   8  10
HETATM   10  C   UNL     1     -37.906 -49.810  13.807  1.00  0.00    -0.050 A 
HETATM   11  C   UNL     1     -38.775 -48.917  13.169  1.00  0.00     0.024 A 
HETATM   12  C   UNL     1     -38.918 -48.975  11.788  1.00  0.00     0.088 A 
HETATM   13  N   UNL     1     -38.266 -49.853  11.000  1.00  0.00    -0.375 N 
HETATM   14  C   UNL     1     -37.416 -50.695  11.618  1.00  0.00     0.088 A 
ATOM     15  HN  UNL     1     -38.409 -49.878   9.990  1.00  0.00     0.164 HD
HETATM   16  C   UNL     1     -37.200 -50.706  12.990  1.00  0.00     0.024 A 
ENDBRANCH   8  10
ENDBRANCH   7   8
ENDBRANCH   1   7
BRANCH   4  17
HETATM   17  C   UNL     1     -41.811 -54.020  14.616  1.00  0.00     0.091 C 
HETATM   18  C   UNL     1     -41.906 -53.955  13.094  1.00  0.00     0.051 C 
HETATM   19  C   UNL     1     -43.052 -53.059  12.643  1.00  0.00     0.171 C 
HETATM   20  O   UNL     1     -44.288 -53.391  13.250  1.00  0.00    -0.380 OA
HETATM   21  C   UNL     1     -44.331 -53.472  14.682  1.00  0.00     0.062 C 
HETATM   22  C   UNL     1     -45.723 -54.091  14.979  1.00  0.00     0.038 C 
HETATM   23  C   UNL     1     -44.280 -52.097  15.380  1.00  0.00     0.038 C 
HETATM   24  C   UNL     1     -43.195 -54.377  15.198  1.00  0.00     0.063 C 
HETATM   25  C   UNL     1     -46.871 -53.162  14.545  1.00  0.00     0.003 C 
HETATM   26  C   UNL     1     -46.765 -51.777  15.174  1.00  0.00     0.000 C 
HETATM   27  C   UNL     1     -45.395 -51.156  14.948  1.00  0.00     0.003 C 
ENDBRANCH   4  17
TORSDOF 4
ENDMDL
MODEL 6
REMARK VINA RESULT:      -6.3      2.325      6.975
REMARK  4 active torsions:
REMARK  status: ('A' for Active; 'I' for Inactive)
REMARK    1  A    between atoms: C_2  and  C_3 
REMARK    2  A    between atoms: C_2  and  C_19 
REMARK    3  A    between atoms: C_3  and  N_4 
REMARK       I    between atoms: N_4  and  C_5 
REMARK       I    between atoms: C_5  and  N_7 
REMARK    4  A    between atoms: N_7  and  C_8 
ROOT
HETATM    1  N   UNL     1     -43.801 -52.706  12.039  1.00  0.00    -0.342 N 
HETATM    2  C   UNL     1     -42.549 -52.423  12.547  1.00  0.00     0.316 C 
HETATM    3  O   UNL     1     -42.042 -53.009  13.489  1.00  0.00    -0.247 OA
HETATM    4  N   UNL     1     -41.955 -51.383  11.880  1.00  0.00    -0.338 N 
HETATM    5  H   UNL     1     -44.273 -51.913  11.628  1.00  0.00     0.164 HD
HETATM    6  H   UNL     1     -42.339 -51.169  10.971  1.00  0.00     0.164 HD
ENDROOT
BRANCH   1   7
HETATM    7  C   UNL     1     -44.643 -53.643  12.774  1.00  0.00     0.133 C 
BRANCH   7   8
HETATM    8  C   UNL     1     -46.067 -53.126  13.113  1.00  0.00     0.032 C 
HETATM    9  C   UNL     1     -46.503 -52.050  12.108  1.00  0.00     0.017 C 
BRANCH   8  10
HETATM   10  C   UNL     1     -46.245 -52.750  14.582  1.00  0.00    -0.050 A 
HETATM   11  C   UNL     1     -46.877 -51.574  15.005  1.00  0.00     0.024 A 
HETATM   12  C   UNL     1     -47.022 -51.330  16.365  1.00  0.00     0.088 A 
HETATM   13  N   UNL     1     -46.583 -52.162  17.330  1.00  0.00    -0.375 N 
HETATM   14  C   UNL     1     -45.994 -53.300  16.916  1.00  0.00     0.088 A 
ATOM     15  HN  UNL     1     -46.691 -51.942  18.320  1.00  0.00     0.164 HD
HETATM   16  C   UNL     1     -45.813 -53.635  15.581  1.00  0.00     0.024 A 
ENDBRANCH   8  10
ENDBRANCH   7   8
ENDBRANCH   1   7
BRANCH   4  17
HETATM   17  C   UNL     1     -40.646 -50.840  12.240  1.00  0.00     0.091 C 
HETATM   18  C   UNL     1     -40.617 -50.451  13.715  1.00  0.00     0.051 C 
HETATM   19  C   UNL     1     -41.343 -49.135  13.960  1.00  0.00     0.171 C 
HETATM   20  O   UNL     1     -40.896 -48.089  13.116  1.00  0.00    -0.380 OA
HETATM   21  C   UNL     1     -40.888 -48.329  11.700  1.00  0.00     0.062 C 
HETATM   22  C   UNL     1     -40.122 -47.110  11.120  1.00  0.00     0.038 C 
HETATM   23  C   UNL     1     -42.294 -48.334  11.066  1.00  0.00     0.038 C 
HETATM   24  C   UNL     1     -40.155 -49.648  11.390  1.00  0.00     0.063 C 
HETATM   25  C   UNL     1     -40.880 -45.791  11.350  1.00  0.00     0.003 C 
HETATM   26  C   UNL     1     -42.299 -45.834  10.793  1.00  0.00     0.000 C 
HETATM   27  C   UNL     1     -43.068 -47.045  11.299  1.00  0.00     0.003 C 
ENDBRANCH   4  17
TORSDOF 4
ENDMDL
MODEL 7
REMARK VINA RESULT:      -6.2      3.191      7.203
REMARK  4 active torsions:
REMARK  status: ('A' for Active; 'I' for Inactive)
REMARK    1  A    between atoms: C_2  and  C_3 
REMARK    2  A    between atoms: C_2  and  C_19 
REMARK    3  A    between atoms: C_3  and  N_4 
REMARK       I    between atoms: N_4  and  C_5 
REMARK       I    between atoms: C_5  and  N_7 
REMARK    4  A    between atoms: N_7  and  C_8 
ROOT
HETATM    1  N   UNL     1     -40.758 -52.922  14.416  1.00  0.00    -0.342 N 
HETATM    2  C   UNL     1     -40.331 -52.467  13.185  1.00  0.00     0.316 C 
HETATM    3  O   UNL     1     -40.457 -53.087  12.142  1.00  0.00    -0.247 OA
HETATM    4  N   UNL     1     -39.720 -51.243  13.281  1.00  0.00    -0.338 N 
HETATM    5  H   UNL     1     -40.213 -52.586  15.197  1.00  0.00     0.164 HD
HETATM    6  H   UNL     1     -39.917 -50.720  14.122  1.00  0.00     0.164 HD
ENDROOT
BRANCH   1   7
HETATM    7  C   UNL     1     -41.236 -54.297  14.510  1.00  0.00     0.133 C 
BRANCH   7   8
HETATM    8  C   UNL     1     -42.404 -54.523  15.509  1.00  0.00     0.032 C 
HETATM    9  C   UNL     1     -42.229 -55.857  16.248  1.00  0.00     0.017 C 
BRANCH   8  10
HETATM   10  C   UNL     1     -43.784 -54.300  14.894  1.00  0.00    -0.050 A 
HETATM   11  C   UNL     1     -44.948 -54.140  15.653  1.00  0.00     0.024 A 
HETATM   12  C   UNL     1     -46.157 -53.909  15.007  1.00  0.00     0.088 A 
HETATM   13  N   UNL     1     -46.291 -53.831  13.668  1.00  0.00    -0.375 N 
HETATM   14  C   UNL     1     -45.163 -53.966  12.945  1.00  0.00     0.088 A 
ATOM     15  HN  UNL     1     -47.198 -53.678  13.227  1.00  0.00     0.164 HD
HETATM   16  C   UNL     1     -43.910 -54.190  13.501  1.00  0.00     0.024 A 
ENDBRANCH   8  10
ENDBRANCH   7   8
ENDBRANCH   1   7
BRANCH   4  17
HETATM   17  C   UNL     1     -39.128 -50.547  12.139  1.00  0.00     0.091 C 
HETATM   18  C   UNL     1     -37.990 -49.641  12.599  1.00  0.00     0.051 C 
HETATM   19  C   UNL     1     -38.516 -48.362  13.234  1.00  0.00     0.171 C 
HETATM   20  O   UNL     1     -39.454 -47.682  12.419  1.00  0.00    -0.380 OA
HETATM   21  C   UNL     1     -40.581 -48.426  11.931  1.00  0.00     0.062 C 
HETATM   22  C   UNL     1     -41.236 -47.473  10.896  1.00  0.00     0.038 C 
HETATM   23  C   UNL     1     -41.637 -48.727  13.014  1.00  0.00     0.038 C 
HETATM   24  C   UNL     1     -40.107 -49.732  11.267  1.00  0.00     0.063 C 
HETATM   25  C   UNL     1     -41.789 -46.197  11.556  1.00  0.00     0.003 C 
HETATM   26  C   UNL     1     -42.769 -46.507  12.683  1.00  0.00     0.000 C 
HETATM   27  C   UNL     1     -42.181 -47.479  13.693  1.00  0.00     0.003 C 
ENDBRANCH   4  17
TORSDOF 4
ENDMDL
MODEL 8
REMARK VINA RESULT:      -6.0      3.425      6.939
REMARK  4 active torsions:
REMARK  status: ('A' for Active; 'I' for Inactive)
REMARK    1  A    between atoms: C_2  and  C_3 
REMARK    2  A    between atoms: C_2  and  C_19 
REMARK    3  A    between atoms: C_3  and  N_4 
REMARK       I    between atoms: N_4  and  C_5 
REMARK       I    between atoms: C_5  and  N_7 
REMARK    4  A    between atoms: N_7  and  C_8 
ROOT
HETATM    1  N   UNL     1     -43.653 -52.444  12.589  1.00  0.00    -0.342 N 
HETATM    2  C   UNL     1     -42.408 -52.951  12.901  1.00  0.00     0.316 C 
HETATM    3  O   UNL     1     -42.154 -54.141  12.997  1.00  0.00    -0.247 OA
HETATM    4  N   UNL     1     -41.494 -51.952  13.120  1.00  0.00    -0.338 N 
HETATM    5  H   UNL     1     -43.845 -51.536  12.987  1.00  0.00     0.164 HD
HETATM    6  H   UNL     1     -41.740 -51.045  12.751  1.00  0.00     0.164 HD
ENDROOT
BRANCH   1   7
HETATM    7  C   UNL     1     -44.777 -53.373  12.536  1.00  0.00     0.133 C 
BRANCH   7   8
HETATM    8  C   UNL     1     -46.145 -52.778  12.965  1.00  0.00     0.032 C 
HETATM    9  C   UNL     1     -46.465 -51.519  12.147  1.00  0.00     0.017 C 
BRANCH   8  10
HETATM   10  C   UNL     1     -46.296 -52.623  14.477  1.00  0.00    -0.050 A 
HETATM   11  C   UNL     1     -45.822 -53.565  15.398  1.00  0.00     0.024 A 
HETATM   12  C   UNL     1     -45.975 -53.324  16.758  1.00  0.00     0.088 A 
HETATM   13  N   UNL     1     -46.564 -52.223  17.265  1.00  0.00    -0.375 N 
HETATM   14  C   UNL     1     -46.999 -51.312  16.374  1.00  0.00     0.088 A 
ATOM     15  HN  UNL     1     -46.675 -52.088  18.270  1.00  0.00     0.164 HD
HETATM   16  C   UNL     1     -46.882 -51.460  14.998  1.00  0.00     0.024 A 
ENDBRANCH   8  10
ENDBRANCH   7   8
ENDBRANCH   1   7
BRANCH   4  17
HETATM   17  C   UNL     1     -40.108 -52.201  13.515  1.00  0.00     0.091 C 
HETATM   18  C   UNL     1     -40.002 -52.329  15.032  1.00  0.00     0.051 C 
HETATM   19  C   UNL     1     -40.059 -50.968  15.713  1.00  0.00     0.171 C 
HETATM   20  O   UNL     1     -39.128 -50.042  15.181  1.00  0.00    -0.380 OA
HETATM   21  C   UNL     1     -39.137 -49.824  13.762  1.00  0.00     0.062 C 
HETATM   22  C   UNL     1     -37.861 -48.978  13.508  1.00  0.00     0.038 C 
HETATM   23  C   UNL     1     -40.343 -48.998  13.272  1.00  0.00     0.038 C 
HETATM   24  C   UNL     1     -39.072 -51.171  13.018  1.00  0.00     0.063 C 
HETATM   25  C   UNL     1     -37.944 -47.595  14.177  1.00  0.00     0.003 C 
HETATM   26  C   UNL     1     -39.185 -46.818  13.751  1.00  0.00     0.000 C 
HETATM   27  C   UNL     1     -40.455 -47.634  13.938  1.00  0.00     0.003 C 
ENDBRANCH   4  17
TORSDOF 4
ENDMDL
MODEL 9
REMARK VINA RESULT:      -6.0      3.500      5.622
REMARK  4 active torsions:
REMARK  status: ('A' for Active; 'I' for Inactive)
REMARK    1  A    between atoms: C_2  and  C_3 
REMARK    2  A    between atoms: C_2  and  C_19 
REMARK    3  A    between atoms: C_3  and  N_4 
REMARK       I    between atoms: N_4  and  C_5 
REMARK       I    between atoms: C_5  and  N_7 
REMARK    4  A    between atoms: N_7  and  C_8 
ROOT
HETATM    1  N   UNL     1     -40.490 -49.957  12.741  1.00  0.00    -0.342 N 
HETATM    2  C   UNL     1     -40.792 -50.625  13.909  1.00  0.00     0.316 C 
HETATM    3  O   UNL     1     -40.594 -50.178  15.027  1.00  0.00    -0.247 OA
HETATM    4  N   UNL     1     -41.318 -51.868  13.662  1.00  0.00    -0.338 N 
HETATM    5  H   UNL     1     -40.258 -50.559  11.964  1.00  0.00     0.164 HD
HETATM    6  H   UNL     1     -41.682 -52.012  12.732  1.00  0.00     0.164 HD
ENDROOT
BRANCH   1   7
HETATM    7  C   UNL     1     -39.733 -48.714  12.837  1.00  0.00     0.133 C 
BRANCH   7   8
HETATM    8  C   UNL     1     -38.193 -48.867  12.708  1.00  0.00     0.032 C 
HETATM    9  C   UNL     1     -37.845 -50.004  11.736  1.00  0.00     0.017 C 
BRANCH   8  10
HETATM   10  C   UNL     1     -37.471 -48.921  14.052  1.00  0.00    -0.050 A 
HETATM   11  C   UNL     1     -37.155 -50.117  14.709  1.00  0.00     0.024 A 
HETATM   12  C   UNL     1     -36.467 -50.070  15.915  1.00  0.00     0.088 A 
HETATM   13  N   UNL     1     -36.075 -48.928  16.514  1.00  0.00    -0.375 N 
HETATM   14  C   UNL     1     -36.365 -47.783  15.867  1.00  0.00     0.088 A 
ATOM     15  HN  UNL     1     -35.587 -48.931  17.410  1.00  0.00     0.164 HD
HETATM   16  C   UNL     1     -37.039 -47.730  14.655  1.00  0.00     0.024 A 
ENDBRANCH   8  10
ENDBRANCH   7   8
ENDBRANCH   1   7
BRANCH   4  17
HETATM   17  C   UNL     1     -41.682 -52.812  14.718  1.00  0.00     0.091 C 
HETATM   18  C   UNL     1     -41.957 -54.191  14.127  1.00  0.00     0.051 C 
HETATM   19  C   UNL     1     -43.325 -54.251  13.461  1.00  0.00     0.171 C 
HETATM   20  O   UNL     1     -44.373 -53.804  14.303  1.00  0.00    -0.380 OA
HETATM   21  C   UNL     1     -44.237 -52.511  14.912  1.00  0.00     0.062 C 
HETATM   22  C   UNL     1     -45.401 -52.458  15.937  1.00  0.00     0.038 C 
HETATM   23  C   UNL     1     -44.437 -51.341  13.927  1.00  0.00     0.038 C 
HETATM   24  C   UNL     1     -42.869 -52.395  15.612  1.00  0.00     0.063 C 
HETATM   25  C   UNL     1     -46.777 -52.490  15.249  1.00  0.00     0.003 C 
HETATM   26  C   UNL     1     -46.934 -51.380  14.216  1.00  0.00     0.000 C 
HETATM   27  C   UNL     1     -45.783 -51.366  13.221  1.00  0.00     0.003 C 
ENDBRANCH   4  17
TORSDOF 4
ENDMDL
