MODEL 1
REMARK VINA RESULT:      -5.9      0.000      0.000
REMARK  5 active torsions:
REMARK  status: ('A' for Active; 'I' for Inactive)
REMARK    1  A    between atoms: C_2  and  N_3 
REMARK    2  A    between atoms: C_6  and  C_7 
REMARK    3  A    between atoms: C_7  and  N_8 
REMARK       I    between atoms: N_8  and  C_9 
REMARK       I    between atoms: C_9  and  N_11 
REMARK    4  A    between atoms: N_11  and  C_12 
REMARK    5  A    between atoms: N_16  and  C_17 
ROOT
HETATM    1  N   UNL     1     -39.732 -47.503  11.394  1.00  0.00    -0.342 N 
HETATM    2  C   UNL     1     -40.851 -47.027  10.761  1.00  0.00     0.320 C 
HETATM    3  O   UNL     1     -41.068 -45.820  10.753  1.00  0.00    -0.247 OA
HETATM    4  N   UNL     1     -41.623 -47.991  10.171  1.00  0.00    -0.306 N 
HETATM    5  H   UNL     1     -39.143 -46.774  11.777  1.00  0.00     0.164 HD
HETATM    6  H   UNL     1     -41.224 -48.905  10.047  1.00  0.00     0.171 HD
ENDROOT
BRANCH   1   7
HETATM    7  C   UNL     1     -39.405 -48.900  11.609  1.00  0.00     0.130 C 
BRANCH   7   8
HETATM    8  C   UNL     1     -37.962 -49.149  12.044  1.00  0.00     0.033 C 
HETATM    9  C   UNL     1     -37.598 -50.633  12.019  1.00  0.00     0.038 C 
HETATM   10  C   UNL     1     -37.887 -51.142  13.430  1.00  0.00     0.273 C 
HETATM   11  N   UNL     1     -38.363 -49.976  14.186  1.00  0.00     0.088 N 
HETATM   12  C   UNL     1     -37.797 -48.796  13.523  1.00  0.00     0.278 C 
BRANCH  11  13
HETATM   13  C   UNL     1     -38.043 -50.084  15.609  1.00  0.00     0.268 C 
HETATM   14  C   UNL     1     -36.546 -50.008  15.893  1.00  0.00     0.037 C 
ENDBRANCH  11  13
ENDBRANCH   7   8
ENDBRANCH   1   7
BRANCH   4  15
HETATM   15  C   UNL     1     -42.781 -47.754   9.471  1.00  0.00     0.070 A 
HETATM   16  C   UNL     1     -43.083 -47.794   8.096  1.00  0.00     0.138 A 
HETATM   17  N   UNL     1     -44.378 -47.544   7.860  1.00  0.00    -0.308 N 
HETATM   18  N   UNL     1     -44.893 -47.372   9.091  1.00  0.00    -0.302 N 
ATOM     19  HN  UNL     1     -44.858 -47.496   6.962  1.00  0.00     0.186 HD
HETATM   20  C   UNL     1     -43.962 -47.420  10.085  1.00  0.00     0.141 A 
BRANCH  18  21
HETATM   21  C   UNL     1     -46.324 -47.248   9.275  1.00  0.00     0.143 C 
HETATM   22  C   UNL     1     -47.043 -48.541   8.923  1.00  0.00     0.028 C 
ENDBRANCH  18  21
ENDBRANCH   4  15
TORSDOF 5
ENDMDL
MODEL 2
REMARK VINA RESULT:      -5.9      3.933      5.124
REMARK  5 active torsions:
REMARK  status: ('A' for Active; 'I' for Inactive)
REMARK    1  A    between atoms: C_2  and  N_3 
REMARK    2  A    between atoms: C_6  and  C_7 
REMARK    3  A    between atoms: C_7  and  N_8 
REMARK       I    between atoms: N_8  and  C_9 
REMARK       I    between atoms: C_9  and  N_11 
REMARK    4  A    between atoms: N_11  and  C_12 
REMARK    5  A    between atoms: N_16  and  C_17 
ROOT
HETATM    1  N   UNL     1     -40.442 -51.388  11.829  1.00  0.00    -0.342 N 
HETATM    2  C   UNL     1     -40.427 -50.049  11.535  1.00  0.00     0.320 C 
HETATM    3  O   UNL     1     -39.397 -49.407  11.714  1.00  0.00    -0.247 OA
HETATM    4  N   UNL     1     -41.607 -49.564  11.038  1.00  0.00    -0.306 N 
HETATM    5  H   UNL     1     -39.547 -51.743  12.142  1.00  0.00     0.164 HD
HETATM    6  H   UNL     1     -42.293 -50.225  10.722  1.00  0.00     0.171 HD
ENDROOT
BRANCH   1   7
HETATM    7  C   UNL     1     -41.606 -52.253  11.803  1.00  0.00     0.130 C 
BRANCH   7   8
HETATM    8  C   UNL     1     -42.247 -52.489  13.170  1.00  0.00     0.033 C 
HETATM    9  C   UNL     1     -42.589 -53.960  13.402  1.00  0.00     0.038 C 
HETATM   10  C   UNL     1     -44.035 -54.116  12.934  1.00  0.00     0.273 C 
HETATM   11  N   UNL     1     -44.457 -52.780  12.492  1.00  0.00     0.088 N 
HETATM   12  C   UNL     1     -43.622 -51.821  13.221  1.00  0.00     0.278 C 
BRANCH  11  13
HETATM   13  C   UNL     1     -45.897 -52.583  12.662  1.00  0.00     0.268 C 
HETATM   14  C   UNL     1     -46.236 -51.496  13.677  1.00  0.00     0.037 C 
ENDBRANCH  11  13
ENDBRANCH   7   8
ENDBRANCH   1   7
BRANCH   4  15
HETATM   15  C   UNL     1     -41.827 -48.261  10.661  1.00  0.00     0.070 A 
HETATM   16  C   UNL     1     -41.001 -47.121  10.663  1.00  0.00     0.138 A 
HETATM   17  N   UNL     1     -41.621 -46.052  10.147  1.00  0.00    -0.308 N 
HETATM   18  N   UNL     1     -42.830 -46.529   9.797  1.00  0.00    -0.302 N 
ATOM     19  HN  UNL     1     -41.263 -45.103  10.044  1.00  0.00     0.186 HD
HETATM   20  C   UNL     1     -43.025 -47.831  10.149  1.00  0.00     0.141 A 
BRANCH  18  21
HETATM   21  C   UNL     1     -43.748 -45.708   9.037  1.00  0.00     0.143 C 
HETATM   22  C   UNL     1     -45.103 -46.382   8.889  1.00  0.00     0.028 C 
ENDBRANCH  18  21
ENDBRANCH   4  15
TORSDOF 5
ENDMDL
MODEL 3
REMARK VINA RESULT:      -5.4      4.773      6.824
REMARK  5 active torsions:
REMARK  status: ('A' for Active; 'I' for Inactive)
REMARK    1  A    between atoms: C_2  and  N_3 
REMARK    2  A    between atoms: C_6  and  C_7 
REMARK    3  A    between atoms: C_7  and  N_8 
REMARK       I    between atoms: N_8  and  C_9 
REMARK       I    between atoms: C_9  and  N_11 
REMARK    4  A    between atoms: N_11  and  C_12 
REMARK    5  A    between atoms: N_16  and  C_17 
ROOT
HETATM    1  N   UNL     1     -40.703 -53.766  13.419  1.00  0.00    -0.342 N 
HETATM    2  C   UNL     1     -40.090 -52.573  13.137  1.00  0.00     0.320 C 
HETATM    3  O   UNL     1     -38.949 -52.374  13.541  1.00  0.00    -0.247 OA
HETATM    4  N   UNL     1     -40.845 -51.710  12.390  1.00  0.00    -0.306 N 
HETATM    5  H   UNL     1     -40.112 -54.415  13.924  1.00  0.00     0.164 HD
HETATM    6  H   UNL     1     -41.660 -52.073  11.928  1.00  0.00     0.171 HD
ENDROOT
BRANCH   1   7
HETATM    7  C   UNL     1     -42.086 -54.102  13.134  1.00  0.00     0.130 C 
BRANCH   7   8
HETATM    8  C   UNL     1     -43.055 -53.806  14.277  1.00  0.00     0.033 C 
HETATM    9  C   UNL     1     -44.115 -54.895  14.433  1.00  0.00     0.038 C 
HETATM   10  C   UNL     1     -45.300 -54.428  13.589  1.00  0.00     0.273 C 
HETATM   11  N   UNL     1     -44.901 -53.131  13.025  1.00  0.00     0.088 N 
HETATM   12  C   UNL     1     -43.897 -52.576  13.938  1.00  0.00     0.278 C 
BRANCH  11  13
HETATM   13  C   UNL     1     -46.055 -52.263  12.791  1.00  0.00     0.268 C 
HETATM   14  C   UNL     1     -46.617 -51.657  14.073  1.00  0.00     0.037 C 
ENDBRANCH  11  13
ENDBRANCH   7   8
ENDBRANCH   1   7
BRANCH   4  15
HETATM   15  C   UNL     1     -40.439 -50.465  11.974  1.00  0.00     0.070 A 
HETATM   16  C   UNL     1     -39.192 -49.966  11.553  1.00  0.00     0.138 A 
HETATM   17  N   UNL     1     -39.267 -48.682  11.178  1.00  0.00    -0.308 N 
HETATM   18  N   UNL     1     -40.569 -48.383  11.340  1.00  0.00    -0.302 N 
ATOM     19  HN  UNL     1     -38.516 -48.076  10.847  1.00  0.00     0.186 HD
HETATM   20  C   UNL     1     -41.299 -49.399  11.881  1.00  0.00     0.141 A 
BRANCH  18  21
HETATM   21  C   UNL     1     -41.093 -47.116  10.874  1.00  0.00     0.143 C 
HETATM   22  C   UNL     1     -40.006 -46.055  10.810  1.00  0.00     0.028 C 
ENDBRANCH  18  21
ENDBRANCH   4  15
TORSDOF 5
ENDMDL
MODEL 4
REMARK VINA RESULT:      -5.2      3.170      3.854
REMARK  5 active torsions:
REMARK  status: ('A' for Active; 'I' for Inactive)
REMARK    1  A    between atoms: C_2  and  N_3 
REMARK    2  A    between atoms: C_6  and  C_7 
REMARK    3  A    between atoms: C_7  and  N_8 
REMARK       I    between atoms: N_8  and  C_9 
REMARK       I    between atoms: C_9  and  N_11 
REMARK    4  A    between atoms: N_11  and  C_12 
REMARK    5  A    between atoms: N_16  and  C_17 
ROOT
HETATM    1  N   UNL     1     -40.335 -51.415  11.772  1.00  0.00    -0.342 N 
HETATM    2  C   UNL     1     -40.324 -50.100  11.386  1.00  0.00     0.320 C 
HETATM    3  O   UNL     1     -39.252 -49.513  11.287  1.00  0.00    -0.247 OA
HETATM    4  N   UNL     1     -41.561 -49.574  11.128  1.00  0.00    -0.306 N 
HETATM    5  H   UNL     1     -39.410 -51.805  11.906  1.00  0.00     0.164 HD
HETATM    6  H   UNL     1     -42.331 -50.210  11.020  1.00  0.00     0.171 HD
ENDROOT
BRANCH   1   7
HETATM    7  C   UNL     1     -41.514 -52.207  12.067  1.00  0.00     0.130 C 
BRANCH   7   8
HETATM    8  C   UNL     1     -41.221 -53.553  12.726  1.00  0.00     0.033 C 
HETATM    9  C   UNL     1     -42.438 -54.117  13.458  1.00  0.00     0.038 C 
HETATM   10  C   UNL     1     -42.307 -53.622  14.898  1.00  0.00     0.273 C 
HETATM   11  N   UNL     1     -41.060 -52.847  14.941  1.00  0.00     0.088 N 
HETATM   12  C   UNL     1     -40.213 -53.366  13.862  1.00  0.00     0.278 C 
BRANCH  11  13
HETATM   13  C   UNL     1     -40.442 -52.886  16.268  1.00  0.00     0.268 C 
HETATM   14  C   UNL     1     -38.919 -52.832  16.220  1.00  0.00     0.037 C 
ENDBRANCH  11  13
ENDBRANCH   7   8
ENDBRANCH   1   7
BRANCH   4  15
HETATM   15  C   UNL     1     -41.799 -48.286  10.716  1.00  0.00     0.070 A 
HETATM   16  C   UNL     1     -41.008 -47.121  10.737  1.00  0.00     0.138 A 
HETATM   17  N   UNL     1     -41.632 -46.080  10.170  1.00  0.00    -0.308 N 
HETATM   18  N   UNL     1     -42.807 -46.600   9.769  1.00  0.00    -0.302 N 
ATOM     19  HN  UNL     1     -41.296 -45.123  10.067  1.00  0.00     0.186 HD
HETATM   20  C   UNL     1     -42.982 -47.901  10.136  1.00  0.00     0.141 A 
BRANCH  18  21
HETATM   21  C   UNL     1     -43.709 -45.820   8.948  1.00  0.00     0.143 C 
HETATM   22  C   UNL     1     -45.105 -46.423   8.931  1.00  0.00     0.028 C 
ENDBRANCH  18  21
ENDBRANCH   4  15
TORSDOF 5
ENDMDL
MODEL 5
REMARK VINA RESULT:      -5.2      4.863      6.131
REMARK  5 active torsions:
REMARK  status: ('A' for Active; 'I' for Inactive)
REMARK    1  A    between atoms: C_2  and  N_3 
REMARK    2  A    between atoms: C_6  and  C_7 
REMARK    3  A    between atoms: C_7  and  N_8 
REMARK       I    between atoms: N_8  and  C_9 
REMARK       I    between atoms: C_9  and  N_11 
REMARK    4  A    between atoms: N_11  and  C_12 
REMARK    5  A    between atoms: N_16  and  C_17 
ROOT
HETATM    1  N   UNL     1     -40.383 -51.010  11.388  1.00  0.00    -0.342 N 
HETATM    2  C   UNL     1     -41.214 -51.974  11.897  1.00  0.00     0.320 C 
HETATM    3  O   UNL     1     -40.779 -53.105  12.083  1.00  0.00    -0.247 OA
HETATM    4  N   UNL     1     -42.485 -51.541  12.167  1.00  0.00    -0.306 N 
HETATM    5  H   UNL     1     -39.433 -51.330  11.247  1.00  0.00     0.164 HD
HETATM    6  H   UNL     1     -42.651 -50.551  12.192  1.00  0.00     0.171 HD
ENDROOT
BRANCH   1   7
HETATM    7  C   UNL     1     -40.774 -49.673  10.986  1.00  0.00     0.130 C 
BRANCH   7   8
HETATM    8  C   UNL     1     -40.478 -48.591  12.023  1.00  0.00     0.033 C 
HETATM    9  C   UNL     1     -41.746 -48.087  12.712  1.00  0.00     0.038 C 
HETATM   10  C   UNL     1     -42.199 -46.880  11.892  1.00  0.00     0.273 C 
HETATM   11  N   UNL     1     -41.202 -46.728  10.823  1.00  0.00     0.088 N 
HETATM   12  C   UNL     1     -39.963 -47.331  11.326  1.00  0.00     0.278 C 
BRANCH  11  13
HETATM   13  C   UNL     1     -41.070 -45.334  10.399  1.00  0.00     0.268 C 
HETATM   14  C   UNL     1     -39.654 -44.791  10.563  1.00  0.00     0.037 C 
ENDBRANCH  11  13
ENDBRANCH   7   8
ENDBRANCH   1   7
BRANCH   4  15
HETATM   15  C   UNL     1     -43.488 -52.320  12.691  1.00  0.00     0.070 A 
HETATM   16  C   UNL     1     -43.927 -53.625  12.398  1.00  0.00     0.138 A 
HETATM   17  N   UNL     1     -44.918 -54.015  13.210  1.00  0.00    -0.308 N 
HETATM   18  N   UNL     1     -45.083 -52.962  14.032  1.00  0.00    -0.302 N 
ATOM     19  HN  UNL     1     -45.426 -54.899  13.207  1.00  0.00     0.186 HD
HETATM   20  C   UNL     1     -44.296 -51.895  13.716  1.00  0.00     0.141 A 
BRANCH  18  21
HETATM   21  C   UNL     1     -45.961 -53.059  15.179  1.00  0.00     0.143 C 
HETATM   22  C   UNL     1     -46.910 -51.874  15.253  1.00  0.00     0.028 C 
ENDBRANCH  18  21
ENDBRANCH   4  15
TORSDOF 5
ENDMDL
MODEL 6
REMARK VINA RESULT:      -5.2      4.313      5.769
REMARK  5 active torsions:
REMARK  status: ('A' for Active; 'I' for Inactive)
REMARK    1  A    between atoms: C_2  and  N_3 
REMARK    2  A    between atoms: C_6  and  C_7 
REMARK    3  A    between atoms: C_7  and  N_8 
REMARK       I    between atoms: N_8  and  C_9 
REMARK       I    between atoms: C_9  and  N_11 
REMARK    4  A    between atoms: N_11  and  C_12 
REMARK    5  A    between atoms: N_16  and  C_17 
ROOT
HETATM    1  N   UNL     1     -41.152 -51.680  12.840  1.00  0.00    -0.342 N 
HETATM    2  C   UNL     1     -41.224 -50.317  12.710  1.00  0.00     0.320 C 
HETATM    3  O   UNL     1     -40.521 -49.608  13.422  1.00  0.00    -0.247 OA
HETATM    4  N   UNL     1     -42.096 -49.885  11.748  1.00  0.00    -0.306 N 
HETATM    5  H   UNL     1     -40.462 -51.985  13.516  1.00  0.00     0.164 HD
HETATM    6  H   UNL     1     -42.434 -50.556  11.081  1.00  0.00     0.171 HD
ENDROOT
BRANCH   1   7
HETATM    7  C   UNL     1     -42.006 -52.646  12.176  1.00  0.00     0.130 C 
BRANCH   7   8
HETATM    8  C   UNL     1     -42.856 -53.491  13.123  1.00  0.00     0.033 C 
HETATM    9  C   UNL     1     -44.198 -53.881  12.505  1.00  0.00     0.038 C 
HETATM   10  C   UNL     1     -45.175 -52.790  12.942  1.00  0.00     0.273 C 
HETATM   11  N   UNL     1     -44.395 -51.869  13.780  1.00  0.00     0.088 N 
HETATM   12  C   UNL     1     -43.282 -52.651  14.328  1.00  0.00     0.278 C 
BRANCH  11  13
HETATM   13  C   UNL     1     -45.229 -51.212  14.787  1.00  0.00     0.268 C 
HETATM   14  C   UNL     1     -46.722 -51.402  14.542  1.00  0.00     0.037 C 
ENDBRANCH  11  13
ENDBRANCH   7   8
ENDBRANCH   1   7
BRANCH   4  15
HETATM   15  C   UNL     1     -42.328 -48.569  11.428  1.00  0.00     0.070 A 
HETATM   16  C   UNL     1     -43.401 -47.700  11.704  1.00  0.00     0.138 A 
HETATM   17  N   UNL     1     -43.178 -46.464  11.240  1.00  0.00    -0.308 N 
HETATM   18  N   UNL     1     -41.951 -46.551  10.694  1.00  0.00    -0.302 N 
ATOM     19  HN  UNL     1     -43.791 -45.651  11.289  1.00  0.00     0.186 HD
HETATM   20  C   UNL     1     -41.429 -47.810  10.720  1.00  0.00     0.141 A 
BRANCH  18  21
HETATM   21  C   UNL     1     -41.271 -45.361  10.228  1.00  0.00     0.143 C 
HETATM   22  C   UNL     1     -39.783 -45.416  10.533  1.00  0.00     0.028 C 
ENDBRANCH  18  21
ENDBRANCH   4  15
TORSDOF 5
ENDMDL
MODEL 7
REMARK VINA RESULT:      -4.9      3.880      6.672
REMARK  5 active torsions:
REMARK  status: ('A' for Active; 'I' for Inactive)
REMARK    1  A    between atoms: C_2  and  N_3 
REMARK    2  A    between atoms: C_6  and  C_7 
REMARK    3  A    between atoms: C_7  and  N_8 
REMARK       I    between atoms: N_8  and  C_9 
REMARK       I    between atoms: C_9  and  N_11 
REMARK    4  A    between atoms: N_11  and  C_12 
REMARK    5  A    between atoms: N_16  and  C_17 
ROOT
HETATM    1  N   UNL     1     -39.932 -48.605  12.936  1.00  0.00    -0.342 N 
HETATM    2  C   UNL     1     -40.201 -49.891  13.324  1.00  0.00     0.320 C 
HETATM    3  O   UNL     1     -39.743 -50.306  14.384  1.00  0.00    -0.247 OA
HETATM    4  N   UNL     1     -40.998 -50.591  12.458  1.00  0.00    -0.306 N 
HETATM    5  H   UNL     1     -39.389 -48.083  13.612  1.00  0.00     0.164 HD
HETATM    6  H   UNL     1     -41.494 -50.076  11.753  1.00  0.00     0.171 HD
ENDROOT
BRANCH   1   7
HETATM    7  C   UNL     1     -40.281 -48.009  11.659  1.00  0.00     0.130 C 
BRANCH   7   8
HETATM    8  C   UNL     1     -41.330 -46.902  11.746  1.00  0.00     0.033 C 
HETATM    9  C   UNL     1     -42.654 -47.403  12.322  1.00  0.00     0.038 C 
HETATM   10  C   UNL     1     -43.491 -47.811  11.111  1.00  0.00     0.273 C 
HETATM   11  N   UNL     1     -42.661 -47.519   9.935  1.00  0.00     0.088 N 
HETATM   12  C   UNL     1     -41.732 -46.458  10.339  1.00  0.00     0.278 C 
BRANCH  11  13
HETATM   13  C   UNL     1     -43.475 -47.197   8.762  1.00  0.00     0.268 C 
HETATM   14  C   UNL     1     -44.232 -45.881   8.902  1.00  0.00     0.037 C 
ENDBRANCH  11  13
ENDBRANCH   7   8
ENDBRANCH   1   7
BRANCH   4  15
HETATM   15  C   UNL     1     -41.411 -51.888  12.641  1.00  0.00     0.070 A 
HETATM   16  C   UNL     1     -40.830 -53.125  12.302  1.00  0.00     0.138 A 
HETATM   17  N   UNL     1     -41.568 -54.159  12.729  1.00  0.00    -0.308 N 
HETATM   18  N   UNL     1     -42.600 -53.568  13.359  1.00  0.00    -0.302 N 
ATOM     19  HN  UNL     1     -41.389 -55.155  12.606  1.00  0.00     0.186 HD
HETATM   20  C   UNL     1     -42.587 -52.208  13.273  1.00  0.00     0.141 A 
BRANCH  18  21
HETATM   21  C   UNL     1     -43.545 -54.361  14.116  1.00  0.00     0.143 C 
HETATM   22  C   UNL     1     -44.873 -54.489  13.387  1.00  0.00     0.028 C 
ENDBRANCH  18  21
ENDBRANCH   4  15
TORSDOF 5
ENDMDL
MODEL 8
REMARK VINA RESULT:      -4.9      5.145      8.103
REMARK  5 active torsions:
REMARK  status: ('A' for Active; 'I' for Inactive)
REMARK    1  A    between atoms: C_2  and  N_3 
REMARK    2  A    between atoms: C_6  and  C_7 
REMARK    3  A    between atoms: C_7  and  N_8 
REMARK       I    between atoms: N_8  and  C_9 
REMARK       I    between atoms: C_9  and  N_11 
REMARK    4  A    between atoms: N_11  and  C_12 
REMARK    5  A    between atoms: N_16  and  C_17 
ROOT
HETATM    1  N   UNL     1     -41.584 -54.681  14.452  1.00  0.00    -0.342 N 
HETATM    2  C   UNL     1     -40.565 -53.860  14.045  1.00  0.00     0.320 C 
HETATM    3  O   UNL     1     -39.705 -54.299  13.289  1.00  0.00    -0.247 OA
HETATM    4  N   UNL     1     -40.635 -52.584  14.536  1.00  0.00    -0.306 N 
HETATM    5  H   UNL     1     -41.550 -55.604  14.037  1.00  0.00     0.164 HD
HETATM    6  H   UNL     1     -41.500 -52.283  14.949  1.00  0.00     0.171 HD
ENDROOT
BRANCH   1   7
HETATM    7  C   UNL     1     -42.595 -54.359  15.441  1.00  0.00     0.130 C 
BRANCH   7   8
HETATM    8  C   UNL     1     -44.032 -54.505  14.945  1.00  0.00     0.033 C 
HETATM    9  C   UNL     1     -44.125 -54.463  13.420  1.00  0.00     0.038 C 
HETATM   10  C   UNL     1     -44.378 -52.996  13.072  1.00  0.00     0.273 C 
HETATM   11  N   UNL     1     -44.442 -52.287  14.357  1.00  0.00     0.088 N 
HETATM   12  C   UNL     1     -44.850 -53.279  15.356  1.00  0.00     0.278 C 
BRANCH  11  13
HETATM   13  C   UNL     1     -45.306 -51.108  14.283  1.00  0.00     0.268 C 
HETATM   14  C   UNL     1     -46.769 -51.421  14.579  1.00  0.00     0.037 C 
ENDBRANCH  11  13
ENDBRANCH   7   8
ENDBRANCH   1   7
BRANCH   4  15
HETATM   15  C   UNL     1     -39.736 -51.582  14.258  1.00  0.00     0.070 A 
HETATM   16  C   UNL     1     -38.613 -51.096  14.953  1.00  0.00     0.138 A 
HETATM   17  N   UNL     1     -37.983 -50.129  14.274  1.00  0.00    -0.308 N 
HETATM   18  N   UNL     1     -38.698 -50.026  13.138  1.00  0.00    -0.302 N 
ATOM     19  HN  UNL     1     -37.158 -49.597  14.551  1.00  0.00     0.186 HD
HETATM   20  C   UNL     1     -39.799 -50.828  13.112  1.00  0.00     0.141 A 
BRANCH  18  21
HETATM   21  C   UNL     1     -38.229 -49.193  12.051  1.00  0.00     0.143 C 
HETATM   22  C   UNL     1     -37.334 -49.973  11.100  1.00  0.00     0.028 C 
ENDBRANCH  18  21
ENDBRANCH   4  15
TORSDOF 5
ENDMDL
MODEL 9
REMARK VINA RESULT:      -4.9      5.571      7.274
REMARK  5 active torsions:
REMARK  status: ('A' for Active; 'I' for Inactive)
REMARK    1  A    between atoms: C_2  and  N_3 
REMARK    2  A    between atoms: C_6  and  C_7 
REMARK    3  A    between atoms: C_7  and  N_8 
REMARK       I    between atoms: N_8  and  C_9 
REMARK       I    between atoms: C_9  and  N_11 
REMARK    4  A    between atoms: N_11  and  C_12 
REMARK    5  A    between atoms: N_16  and  C_17 
ROOT
HETATM    1  N   UNL     1     -44.483 -51.078  13.579  1.00  0.00    -0.342 N 
HETATM    2  C   UNL     1     -43.422 -50.276  13.247  1.00  0.00     0.320 C 
HETATM    3  O   UNL     1     -43.319 -49.170  13.767  1.00  0.00    -0.247 OA
HETATM    4  N   UNL     1     -42.551 -50.832  12.349  1.00  0.00    -0.306 N 
HETATM    5  H   UNL     1     -45.087 -50.676  14.286  1.00  0.00     0.164 HD
HETATM    6  H   UNL     1     -42.615 -51.819  12.178  1.00  0.00     0.171 HD
ENDROOT
BRANCH   1   7
HETATM    7  C   UNL     1     -44.820 -52.345  12.959  1.00  0.00     0.130 C 
BRANCH   7   8
HETATM    8  C   UNL     1     -44.357 -53.572  13.742  1.00  0.00     0.033 C 
HETATM    9  C   UNL     1     -45.356 -54.725  13.655  1.00  0.00     0.038 C 
HETATM   10  C   UNL     1     -46.270 -54.559  14.868  1.00  0.00     0.273 C 
HETATM   11  N   UNL     1     -45.767 -53.381  15.588  1.00  0.00     0.088 N 
HETATM   12  C   UNL     1     -44.348 -53.260  15.239  1.00  0.00     0.278 C 
BRANCH  11  13
HETATM   13  C   UNL     1     -46.034 -53.468  17.025  1.00  0.00     0.268 C 
HETATM   14  C   UNL     1     -44.912 -54.151  17.800  1.00  0.00     0.037 C 
ENDBRANCH  11  13
ENDBRANCH   7   8
ENDBRANCH   1   7
BRANCH   4  15
HETATM   15  C   UNL     1     -41.411 -50.225  11.878  1.00  0.00     0.070 A 
HETATM   16  C   UNL     1     -41.186 -48.982  11.257  1.00  0.00     0.138 A 
HETATM   17  N   UNL     1     -39.886 -48.772  11.012  1.00  0.00    -0.308 N 
HETATM   18  N   UNL     1     -39.292 -49.876  11.504  1.00  0.00    -0.302 N 
ATOM     19  HN  UNL     1     -39.450 -47.969  10.561  1.00  0.00     0.186 HD
HETATM   20  C   UNL     1     -40.171 -50.807  11.971  1.00  0.00     0.141 A 
BRANCH  18  21
HETATM   21  C   UNL     1     -37.849 -49.956  11.585  1.00  0.00     0.143 C 
HETATM   22  C   UNL     1     -37.406 -50.878  12.709  1.00  0.00     0.028 C 
ENDBRANCH  18  21
ENDBRANCH   4  15
TORSDOF 5
ENDMDL
