MODEL 1
REMARK VINA RESULT:      -6.2      0.000      0.000
REMARK  3 active torsions:
REMARK  status: ('A' for Active; 'I' for Inactive)
REMARK    1  A    between atoms: O_1  and  C_2 
REMARK    2  A    between atoms: C_7  and  N_8 
REMARK       I    between atoms: N_8  and  C_9 
REMARK       I    between atoms: C_9  and  N_11 
REMARK    3  A    between atoms: N_11  and  C_12 
ROOT
HETATM    1  N   UNL     1     -42.017 -50.919  11.648  1.00  0.00    -0.336 N 
HETATM    2  C   UNL     1     -41.556 -49.632  11.833  1.00  0.00     0.322 C 
HETATM    3  O   UNL     1     -41.031 -49.266  12.875  1.00  0.00    -0.247 OA
HETATM    4  N   UNL     1     -41.833 -48.837  10.747  1.00  0.00    -0.295 N 
HETATM    5  H   UNL     1     -41.822 -51.304  10.732  1.00  0.00     0.164 HD
HETATM    6  H   UNL     1     -42.715 -49.043  10.301  1.00  0.00     0.172 HD
ENDROOT
BRANCH   1   7
HETATM    7  C   UNL     1     -41.919 -51.865  12.756  1.00  0.00     0.114 C 
HETATM    8  C   UNL     1     -40.624 -52.705  12.700  1.00  0.00     0.140 C 
HETATM    9  C   UNL     1     -40.555 -53.658  13.897  1.00  0.00     0.034 C 
HETATM   10  C   UNL     1     -41.804 -54.535  14.009  1.00  0.00     0.003 C 
HETATM   11  C   UNL     1     -43.089 -53.707  14.009  1.00  0.00     0.002 C 
HETATM   12  C   UNL     1     -43.158 -52.764  12.809  1.00  0.00     0.028 C 
BRANCH   8  13
HETATM   13  O   UNL     1     -40.593 -53.460  11.482  1.00  0.00    -0.394 OA
HETATM   14  H   UNL     1     -40.216 -54.331  11.699  1.00  0.00     0.210 HD
ENDBRANCH   8  13
ENDBRANCH   1   7
BRANCH   4  15
HETATM   15  C   UNL     1     -41.565 -47.463  10.783  1.00  0.00     0.108 A 
HETATM   16  C   UNL     1     -42.589 -46.525  10.851  1.00  0.00     0.049 A 
HETATM   17  C   UNL     1     -42.265 -45.174  10.779  1.00  0.00     0.005 A 
HETATM   18  C   UNL     1     -40.934 -44.807  10.630  1.00  0.00     0.017 A 
HETATM   19  C   UNL     1     -39.978 -45.810  10.610  1.00  0.00     0.089 A 
HETATM   20  N   UNL     1     -40.261 -47.128  10.721  1.00  0.00    -0.352 N 
ATOM     21  HN  UNL     1     -39.524 -47.833  10.757  1.00  0.00     0.166 HD
ENDBRANCH   4  15
TORSDOF 3
ENDMDL
MODEL 2
REMARK VINA RESULT:      -6.1      2.908      6.693
REMARK  3 active torsions:
REMARK  status: ('A' for Active; 'I' for Inactive)
REMARK    1  A    between atoms: O_1  and  C_2 
REMARK    2  A    between atoms: C_7  and  N_8 
REMARK       I    between atoms: N_8  and  C_9 
REMARK       I    between atoms: C_9  and  N_11 
REMARK    3  A    between atoms: N_11  and  C_12 
ROOT
HETATM    1  N   UNL     1     -42.138 -51.117  11.974  1.00  0.00    -0.336 N 
HETATM    2  C   UNL     1     -42.928 -51.682  12.954  1.00  0.00     0.322 C 
HETATM    3  O   UNL     1     -42.668 -51.584  14.145  1.00  0.00    -0.247 OA
HETATM    4  N   UNL     1     -43.963 -52.405  12.411  1.00  0.00    -0.295 N 
HETATM    5  H   UNL     1     -42.656 -50.687  11.218  1.00  0.00     0.164 HD
HETATM    6  H   UNL     1     -43.725 -52.886  11.557  1.00  0.00     0.172 HD
ENDROOT
BRANCH   1   7
HETATM    7  C   UNL     1     -40.918 -50.419  12.372  1.00  0.00     0.114 C 
HETATM    8  C   UNL     1     -40.534 -49.295  11.383  1.00  0.00     0.140 C 
HETATM    9  C   UNL     1     -39.269 -48.577  11.859  1.00  0.00     0.034 C 
HETATM   10  C   UNL     1     -38.112 -49.547  12.104  1.00  0.00     0.003 C 
HETATM   11  C   UNL     1     -38.507 -50.690  13.039  1.00  0.00     0.002 C 
HETATM   12  C   UNL     1     -39.765 -51.410  12.555  1.00  0.00     0.028 C 
BRANCH   8  13
HETATM   13  O   UNL     1     -40.309 -49.856  10.083  1.00  0.00    -0.394 OA
HETATM   14  H   UNL     1     -40.172 -50.812  10.208  1.00  0.00     0.210 HD
ENDBRANCH   8  13
ENDBRANCH   1   7
BRANCH   4  15
HETATM   15  C   UNL     1     -44.807 -53.165  13.230  1.00  0.00     0.108 A 
HETATM   16  C   UNL     1     -44.754 -54.554  13.237  1.00  0.00     0.049 A 
HETATM   17  C   UNL     1     -45.687 -55.256  13.992  1.00  0.00     0.005 A 
HETATM   18  C   UNL     1     -46.647 -54.549  14.705  1.00  0.00     0.017 A 
HETATM   19  C   UNL     1     -46.598 -53.165  14.670  1.00  0.00     0.089 A 
HETATM   20  N   UNL     1     -45.677 -52.457  13.978  1.00  0.00    -0.352 N 
ATOM     21  HN  UNL     1     -45.640 -51.438  14.021  1.00  0.00     0.166 HD
ENDBRANCH   4  15
TORSDOF 3
ENDMDL
MODEL 3
REMARK VINA RESULT:      -6.0      2.959      4.197
REMARK  3 active torsions:
REMARK  status: ('A' for Active; 'I' for Inactive)
REMARK    1  A    between atoms: O_1  and  C_2 
REMARK    2  A    between atoms: C_7  and  N_8 
REMARK       I    between atoms: N_8  and  C_9 
REMARK       I    between atoms: C_9  and  N_11 
REMARK    3  A    between atoms: N_11  and  C_12 
ROOT
HETATM    1  N   UNL     1     -43.727 -51.750  12.571  1.00  0.00    -0.336 N 
HETATM    2  C   UNL     1     -42.430 -51.388  12.868  1.00  0.00     0.322 C 
HETATM    3  O   UNL     1     -41.956 -51.503  13.990  1.00  0.00    -0.247 OA
HETATM    4  N   UNL     1     -41.802 -50.829  11.781  1.00  0.00    -0.295 N 
HETATM    5  H   UNL     1     -43.835 -52.223  11.682  1.00  0.00     0.164 HD
HETATM    6  H   UNL     1     -42.407 -50.268  11.200  1.00  0.00     0.172 HD
ENDROOT
BRANCH   1   7
HETATM    7  C   UNL     1     -44.582 -52.244  13.648  1.00  0.00     0.114 C 
HETATM    8  C   UNL     1     -45.376 -53.505  13.238  1.00  0.00     0.140 C 
HETATM    9  C   UNL     1     -46.232 -53.999  14.407  1.00  0.00     0.034 C 
HETATM   10  C   UNL     1     -47.143 -52.901  14.960  1.00  0.00     0.003 C 
HETATM   11  C   UNL     1     -46.366 -51.633  15.314  1.00  0.00     0.002 C 
HETATM   12  C   UNL     1     -45.520 -51.138  14.142  1.00  0.00     0.028 C 
BRANCH   8  13
HETATM   13  O   UNL     1     -46.220 -53.199  12.120  1.00  0.00    -0.394 OA
HETATM   14  H   UNL     1     -46.081 -53.903  11.461  1.00  0.00     0.210 HD
ENDBRANCH   8  13
ENDBRANCH   1   7
BRANCH   4  15
HETATM   15  C   UNL     1     -40.522 -50.275  11.904  1.00  0.00     0.108 A 
HETATM   16  C   UNL     1     -40.309 -48.906  11.789  1.00  0.00     0.049 A 
HETATM   17  C   UNL     1     -39.004 -48.427  11.818  1.00  0.00     0.005 A 
HETATM   18  C   UNL     1     -37.957 -49.330  11.949  1.00  0.00     0.017 A 
HETATM   19  C   UNL     1     -38.267 -50.672  12.097  1.00  0.00     0.089 A 
HETATM   20  N   UNL     1     -39.528 -51.161  12.115  1.00  0.00    -0.352 N 
ATOM     21  HN  UNL     1     -39.717 -52.149  12.281  1.00  0.00     0.166 HD
ENDBRANCH   4  15
TORSDOF 3
ENDMDL
MODEL 4
REMARK VINA RESULT:      -5.9      1.990      6.955
REMARK  3 active torsions:
REMARK  status: ('A' for Active; 'I' for Inactive)
REMARK    1  A    between atoms: O_1  and  C_2 
REMARK    2  A    between atoms: C_7  and  N_8 
REMARK       I    between atoms: N_8  and  C_9 
REMARK       I    between atoms: C_9  and  N_11 
REMARK    3  A    between atoms: N_11  and  C_12 
ROOT
HETATM    1  N   UNL     1     -41.668 -50.617  11.465  1.00  0.00    -0.336 N 
HETATM    2  C   UNL     1     -42.370 -51.342  12.405  1.00  0.00     0.322 C 
HETATM    3  O   UNL     1     -42.722 -50.865  13.475  1.00  0.00    -0.247 OA
HETATM    4  N   UNL     1     -42.538 -52.648  12.010  1.00  0.00    -0.295 N 
HETATM    5  H   UNL     1     -41.963 -50.776  10.510  1.00  0.00     0.164 HD
HETATM    6  H   UNL     1     -41.754 -53.028  11.501  1.00  0.00     0.172 HD
ENDROOT
BRANCH   1   7
HETATM    7  C   UNL     1     -41.288 -49.242  11.781  1.00  0.00     0.114 C 
HETATM    8  C   UNL     1     -42.033 -48.210  10.904  1.00  0.00     0.140 C 
HETATM    9  C   UNL     1     -41.624 -46.787  11.292  1.00  0.00     0.034 C 
HETATM   10  C   UNL     1     -40.107 -46.590  11.249  1.00  0.00     0.003 C 
HETATM   11  C   UNL     1     -39.367 -47.644  12.072  1.00  0.00     0.002 C 
HETATM   12  C   UNL     1     -39.771 -49.063  11.674  1.00  0.00     0.028 C 
BRANCH   8  13
HETATM   13  O   UNL     1     -41.722 -48.440   9.523  1.00  0.00    -0.394 OA
HETATM   14  H   UNL     1     -41.053 -47.780   9.271  1.00  0.00     0.210 HD
ENDBRANCH   8  13
ENDBRANCH   1   7
BRANCH   4  15
HETATM   15  C   UNL     1     -43.112 -53.586  12.877  1.00  0.00     0.108 A 
HETATM   16  C   UNL     1     -44.434 -53.994  12.735  1.00  0.00     0.049 A 
HETATM   17  C   UNL     1     -44.977 -54.848  13.688  1.00  0.00     0.005 A 
HETATM   18  C   UNL     1     -44.188 -55.257  14.755  1.00  0.00     0.017 A 
HETATM   19  C   UNL     1     -42.870 -54.831  14.793  1.00  0.00     0.089 A 
HETATM   20  N   UNL     1     -42.303 -54.036  13.857  1.00  0.00    -0.352 N 
ATOM     21  HN  UNL     1     -41.315 -53.788  13.892  1.00  0.00     0.166 HD
ENDBRANCH   4  15
TORSDOF 3
ENDMDL
MODEL 5
REMARK VINA RESULT:      -5.6      1.431      7.058
REMARK  3 active torsions:
REMARK  status: ('A' for Active; 'I' for Inactive)
REMARK    1  A    between atoms: O_1  and  C_2 
REMARK    2  A    between atoms: C_7  and  N_8 
REMARK       I    between atoms: N_8  and  C_9 
REMARK       I    between atoms: C_9  and  N_11 
REMARK    3  A    between atoms: N_11  and  C_12 
ROOT
HETATM    1  N   UNL     1     -40.826 -48.438  10.888  1.00  0.00    -0.336 N 
HETATM    2  C   UNL     1     -41.378 -49.418  11.687  1.00  0.00     0.322 C 
HETATM    3  O   UNL     1     -42.003 -49.160  12.706  1.00  0.00    -0.247 OA
HETATM    4  N   UNL     1     -41.067 -50.675  11.228  1.00  0.00    -0.295 N 
HETATM    5  H   UNL     1     -40.926 -48.604   9.895  1.00  0.00     0.164 HD
HETATM    6  H   UNL     1     -40.143 -50.751  10.831  1.00  0.00     0.172 HD
ENDROOT
BRANCH   1   7
HETATM    7  C   UNL     1     -40.951 -47.042  11.303  1.00  0.00     0.114 C 
HETATM    8  C   UNL     1     -42.191 -46.355  10.688  1.00  0.00     0.140 C 
HETATM    9  C   UNL     1     -42.292 -44.907  11.175  1.00  0.00     0.034 C 
HETATM   10  C   UNL     1     -41.008 -44.118  10.913  1.00  0.00     0.003 C 
HETATM   11  C   UNL     1     -39.774 -44.825  11.473  1.00  0.00     0.002 C 
HETATM   12  C   UNL     1     -39.671 -46.267  10.977  1.00  0.00     0.028 C 
BRANCH   8  13
HETATM   13  O   UNL     1     -42.091 -46.375   9.258  1.00  0.00    -0.394 OA
HETATM   14  H   UNL     1     -41.147 -46.281   9.039  1.00  0.00     0.210 HD
ENDBRANCH   8  13
ENDBRANCH   1   7
BRANCH   4  15
HETATM   15  C   UNL     1     -41.421 -51.811  11.967  1.00  0.00     0.108 A 
HETATM   16  C   UNL     1     -40.457 -52.643  12.526  1.00  0.00     0.049 A 
HETATM   17  C   UNL     1     -40.867 -53.811  13.160  1.00  0.00     0.005 A 
HETATM   18  C   UNL     1     -42.222 -54.114  13.203  1.00  0.00     0.017 A 
HETATM   19  C   UNL     1     -43.112 -53.207  12.653  1.00  0.00     0.089 A 
HETATM   20  N   UNL     1     -42.745 -52.043  12.069  1.00  0.00    -0.352 N 
ATOM     21  HN  UNL     1     -43.434 -51.376  11.724  1.00  0.00     0.166 HD
ENDBRANCH   4  15
TORSDOF 3
ENDMDL
MODEL 6
REMARK VINA RESULT:      -5.1      3.275      7.616
REMARK  3 active torsions:
REMARK  status: ('A' for Active; 'I' for Inactive)
REMARK    1  A    between atoms: O_1  and  C_2 
REMARK    2  A    between atoms: C_7  and  N_8 
REMARK       I    between atoms: N_8  and  C_9 
REMARK       I    between atoms: C_9  and  N_11 
REMARK    3  A    between atoms: N_11  and  C_12 
ROOT
HETATM    1  N   UNL     1     -40.603 -46.018  11.133  1.00  0.00    -0.336 N 
HETATM    2  C   UNL     1     -40.118 -46.993  11.980  1.00  0.00     0.322 C 
HETATM    3  O   UNL     1     -40.026 -46.828  13.188  1.00  0.00    -0.247 OA
HETATM    4  N   UNL     1     -39.700 -48.101  11.282  1.00  0.00    -0.295 N 
HETATM    5  H   UNL     1     -41.216 -46.364  10.406  1.00  0.00     0.164 HD
HETATM    6  H   UNL     1     -39.275 -47.890  10.392  1.00  0.00     0.172 HD
ENDROOT
BRANCH   1   7
HETATM    7  C   UNL     1     -40.974 -44.721  11.696  1.00  0.00     0.114 C 
HETATM    8  C   UNL     1     -42.501 -44.490  11.684  1.00  0.00     0.140 C 
HETATM    9  C   UNL     1     -42.839 -43.134  12.309  1.00  0.00     0.034 C 
HETATM   10  C   UNL     1     -42.078 -41.985  11.644  1.00  0.00     0.003 C 
HETATM   11  C   UNL     1     -40.571 -42.239  11.606  1.00  0.00     0.002 C 
HETATM   12  C   UNL     1     -40.238 -43.589  10.973  1.00  0.00     0.028 C 
BRANCH   8  13
HETATM   13  O   UNL     1     -42.982 -44.530  10.334  1.00  0.00    -0.394 OA
HETATM   14  H   UNL     1     -43.077 -43.606  10.041  1.00  0.00     0.210 HD
ENDBRANCH   8  13
ENDBRANCH   1   7
BRANCH   4  15
HETATM   15  C   UNL     1     -39.054 -49.155  11.941  1.00  0.00     0.108 A 
HETATM   16  C   UNL     1     -37.827 -49.641  11.505  1.00  0.00     0.049 A 
HETATM   17  C   UNL     1     -37.286 -50.756  12.136  1.00  0.00     0.005 A 
HETATM   18  C   UNL     1     -37.992 -51.353  13.172  1.00  0.00     0.017 A 
HETATM   19  C   UNL     1     -39.188 -50.775  13.564  1.00  0.00     0.089 A 
HETATM   20  N   UNL     1     -39.717 -49.667  12.997  1.00  0.00    -0.352 N 
ATOM     21  HN  UNL     1     -40.573 -49.240  13.350  1.00  0.00     0.166 HD
ENDBRANCH   4  15
TORSDOF 3
ENDMDL
MODEL 7
REMARK VINA RESULT:      -5.0      1.777      6.819
REMARK  3 active torsions:
REMARK  status: ('A' for Active; 'I' for Inactive)
REMARK    1  A    between atoms: O_1  and  C_2 
REMARK    2  A    between atoms: C_7  and  N_8 
REMARK       I    between atoms: N_8  and  C_9 
REMARK       I    between atoms: C_9  and  N_11 
REMARK    3  A    between atoms: N_11  and  C_12 
ROOT
HETATM    1  N   UNL     1     -43.107 -48.896  11.853  1.00  0.00    -0.336 N 
HETATM    2  C   UNL     1     -42.075 -49.795  12.016  1.00  0.00     0.322 C 
HETATM    3  O   UNL     1     -41.038 -49.731  11.370  1.00  0.00    -0.247 OA
HETATM    4  N   UNL     1     -42.402 -50.779  12.919  1.00  0.00    -0.295 N 
HETATM    5  H   UNL     1     -43.545 -48.602  12.717  1.00  0.00     0.164 HD
HETATM    6  H   UNL     1     -43.371 -51.059  12.887  1.00  0.00     0.172 HD
ENDROOT
BRANCH   1   7
HETATM    7  C   UNL     1     -42.977 -47.856  10.834  1.00  0.00     0.114 C 
HETATM    8  C   UNL     1     -42.445 -46.527  11.415  1.00  0.00     0.140 C 
HETATM    9  C   UNL     1     -42.300 -45.482  10.306  1.00  0.00     0.034 C 
HETATM   10  C   UNL     1     -43.599 -45.287   9.522  1.00  0.00     0.003 C 
HETATM   11  C   UNL     1     -44.155 -46.610   8.993  1.00  0.00     0.002 C 
HETATM   12  C   UNL     1     -44.308 -47.646  10.105  1.00  0.00     0.028 C 
BRANCH   8  13
HETATM   13  O   UNL     1     -43.351 -46.043  12.416  1.00  0.00    -0.394 OA
HETATM   14  H   UNL     1     -43.759 -46.825  12.829  1.00  0.00     0.210 HD
ENDBRANCH   8  13
ENDBRANCH   1   7
BRANCH   4  15
HETATM   15  C   UNL     1     -41.543 -51.864  13.133  1.00  0.00     0.108 A 
HETATM   16  C   UNL     1     -41.913 -53.161  12.793  1.00  0.00     0.049 A 
HETATM   17  C   UNL     1     -41.060 -54.208  13.125  1.00  0.00     0.005 A 
HETATM   18  C   UNL     1     -39.876 -53.928  13.793  1.00  0.00     0.017 A 
HETATM   19  C   UNL     1     -39.573 -52.602  14.056  1.00  0.00     0.089 A 
HETATM   20  N   UNL     1     -40.362 -51.560  13.707  1.00  0.00    -0.352 N 
ATOM     21  HN  UNL     1     -40.078 -50.594  13.869  1.00  0.00     0.166 HD
ENDBRANCH   4  15
TORSDOF 3
ENDMDL
MODEL 8
REMARK VINA RESULT:      -5.0      3.085      4.765
REMARK  3 active torsions:
REMARK  status: ('A' for Active; 'I' for Inactive)
REMARK    1  A    between atoms: O_1  and  C_2 
REMARK    2  A    between atoms: C_7  and  N_8 
REMARK       I    between atoms: N_8  and  C_9 
REMARK       I    between atoms: C_9  and  N_11 
REMARK    3  A    between atoms: N_11  and  C_12 
ROOT
HETATM    1  N   UNL     1     -42.638 -52.529  14.580  1.00  0.00    -0.336 N 
HETATM    2  C   UNL     1     -41.873 -51.897  13.623  1.00  0.00     0.322 C 
HETATM    3  O   UNL     1     -42.254 -51.747  12.470  1.00  0.00    -0.247 OA
HETATM    4  N   UNL     1     -40.639 -51.546  14.116  1.00  0.00    -0.295 N 
HETATM    5  H   UNL     1     -42.614 -52.089  15.491  1.00  0.00     0.164 HD
HETATM    6  H   UNL     1     -40.255 -52.210  14.773  1.00  0.00     0.172 HD
ENDROOT
BRANCH   1   7
HETATM    7  C   UNL     1     -43.932 -53.084  14.190  1.00  0.00     0.114 C 
HETATM    8  C   UNL     1     -45.104 -52.448  14.971  1.00  0.00     0.140 C 
HETATM    9  C   UNL     1     -46.437 -53.040  14.505  1.00  0.00     0.034 C 
HETATM   10  C   UNL     1     -46.451 -54.568  14.590  1.00  0.00     0.003 C 
HETATM   11  C   UNL     1     -45.261 -55.195  13.864  1.00  0.00     0.002 C 
HETATM   12  C   UNL     1     -43.933 -54.608  14.338  1.00  0.00     0.028 C 
BRANCH   8  13
HETATM   13  O   UNL     1     -44.934 -52.691  16.374  1.00  0.00    -0.394 OA
HETATM   14  H   UNL     1     -44.609 -51.861  16.765  1.00  0.00     0.210 HD
ENDBRANCH   8  13
ENDBRANCH   1   7
BRANCH   4  15
HETATM   15  C   UNL     1     -39.660 -51.010  13.271  1.00  0.00     0.108 A 
HETATM   16  C   UNL     1     -38.354 -51.487  13.277  1.00  0.00     0.049 A 
HETATM   17  C   UNL     1     -37.403 -50.846  12.492  1.00  0.00     0.005 A 
HETATM   18  C   UNL     1     -37.784 -49.744  11.736  1.00  0.00     0.017 A 
HETATM   19  C   UNL     1     -39.116 -49.364  11.763  1.00  0.00     0.089 A 
HETATM   20  N   UNL     1     -40.070 -49.995  12.484  1.00  0.00    -0.352 N 
ATOM     21  HN  UNL     1     -41.050 -49.719  12.435  1.00  0.00     0.166 HD
ENDBRANCH   4  15
TORSDOF 3
ENDMDL
MODEL 9
REMARK VINA RESULT:      -4.9      5.341      8.078
REMARK  3 active torsions:
REMARK  status: ('A' for Active; 'I' for Inactive)
REMARK    1  A    between atoms: O_1  and  C_2 
REMARK    2  A    between atoms: C_7  and  N_8 
REMARK       I    between atoms: N_8  and  C_9 
REMARK       I    between atoms: C_9  and  N_11 
REMARK    3  A    between atoms: N_11  and  C_12 
ROOT
HETATM    1  N   UNL     1     -43.086 -52.585  15.190  1.00  0.00    -0.336 N 
HETATM    2  C   UNL     1     -42.432 -53.780  15.405  1.00  0.00     0.322 C 
HETATM    3  O   UNL     1     -42.895 -54.855  15.051  1.00  0.00    -0.247 OA
HETATM    4  N   UNL     1     -41.270 -53.597  16.116  1.00  0.00    -0.295 N 
HETATM    5  H   UNL     1     -42.483 -51.826  14.900  1.00  0.00     0.164 HD
HETATM    6  H   UNL     1     -41.326 -52.871  16.814  1.00  0.00     0.172 HD
ENDROOT
BRANCH   1   7
HETATM    7  C   UNL     1     -44.404 -52.610  14.560  1.00  0.00     0.114 C 
HETATM    8  C   UNL     1     -44.318 -52.678  13.019  1.00  0.00     0.140 C 
HETATM    9  C   UNL     1     -45.721 -52.731  12.409  1.00  0.00     0.034 C 
HETATM   10  C   UNL     1     -46.602 -51.575  12.885  1.00  0.00     0.003 C 
HETATM   11  C   UNL     1     -46.644 -51.473  14.410  1.00  0.00     0.002 C 
HETATM   12  C   UNL     1     -45.241 -51.410  15.013  1.00  0.00     0.028 C 
BRANCH   8  13
HETATM   13  O   UNL     1     -43.623 -51.525  12.525  1.00  0.00    -0.394 OA
HETATM   14  H   UNL     1     -44.301 -50.888  12.239  1.00  0.00     0.210 HD
ENDBRANCH   8  13
ENDBRANCH   1   7
BRANCH   4  15
HETATM   15  C   UNL     1     -40.521 -54.697  16.552  1.00  0.00     0.108 A 
HETATM   16  C   UNL     1     -39.183 -54.848  16.205  1.00  0.00     0.049 A 
HETATM   17  C   UNL     1     -38.522 -56.012  16.581  1.00  0.00     0.005 A 
HETATM   18  C   UNL     1     -39.220 -56.988  17.279  1.00  0.00     0.017 A 
HETATM   19  C   UNL     1     -40.539 -56.733  17.615  1.00  0.00     0.089 A 
HETATM   20  N   UNL     1     -41.195 -55.593  17.300  1.00  0.00    -0.352 N 
ATOM     21  HN  UNL     1     -42.150 -55.420  17.612  1.00  0.00     0.166 HD
ENDBRANCH   4  15
TORSDOF 3
ENDMDL
