MODEL 1
REMARK VINA RESULT:      -5.8      0.000      0.000
REMARK  5 active torsions:
REMARK  status: ('A' for Active; 'I' for Inactive)
REMARK    1  A    between atoms: C_2  and  C_3 
REMARK       I    between atoms: C_2  and  N_17 
REMARK    2  A    between atoms: C_3  and  N_4 
REMARK    3  A    between atoms: N_11  and  C_12 
REMARK    4  A    between atoms: N_17  and  C_18 
REMARK    5  A    between atoms: C_18  and  C_19 
ROOT
HETATM    1  N   UNL     1     -43.741 -54.648  13.943  1.00  0.00    -0.256 N 
HETATM    2  C   UNL     1     -42.829 -55.047  14.907  1.00  0.00     0.274 A 
HETATM    3  O   UNL     1     -43.127 -55.788  15.844  1.00  0.00    -0.266 OA
HETATM    4  C   UNL     1     -41.452 -54.523  14.772  1.00  0.00     0.128 A 
HETATM    5  C   UNL     1     -40.438 -54.933  15.677  1.00  0.00     0.106 C 
HETATM    6  N   UNL     1     -39.564 -55.235  16.377  1.00  0.00    -0.191 NA
HETATM    7  C   UNL     1     -41.203 -53.642  13.798  1.00  0.00     0.124 A 
HETATM    8  N   UNL     1     -42.164 -53.234  12.900  1.00  0.00    -0.303 N 
HETATM    9  C   UNL     1     -43.476 -53.720  12.931  1.00  0.00     0.332 A 
HETATM   10  O   UNL     1     -44.331 -53.362  12.122  1.00  0.00    -0.246 OA
ENDROOT
BRANCH   1  11
HETATM   11  C   UNL     1     -45.094 -55.177  14.038  1.00  0.00     0.239 C 
BRANCH  11  12
HETATM   12  C   UNL     1     -45.919 -54.337  15.016  1.00  0.00     0.236 C 
HETATM   13  O   UNL     1     -46.124 -54.687  16.175  1.00  0.00    -0.272 OA
HETATM   14  N   UNL     1     -46.469 -53.195  14.472  1.00  0.00    -0.359 N 
HETATM   15  H   UNL     1     -46.349 -53.015  13.479  1.00  0.00     0.162 HD
BRANCH  14  16
HETATM   16  C   UNL     1     -47.237 -52.252  15.261  1.00  0.00     0.127 C 
BRANCH  16  17
HETATM   17  C   UNL     1     -46.350 -51.048  15.513  1.00  0.00     0.003 C 
HETATM   18  C   UNL     1     -45.063 -50.981  14.645  1.00  0.00     0.006 C 
HETATM   19  C   UNL     1     -44.345 -50.394  15.876  1.00  0.00     0.001 C 
HETATM   20  C   UNL     1     -45.406 -51.101  16.746  1.00  0.00     0.006 C 
ENDBRANCH  16  17
ENDBRANCH  14  16
ENDBRANCH  11  12
ENDBRANCH   1  11
BRANCH   8  21
HETATM   21  C   UNL     1     -41.814 -52.170  11.982  1.00  0.00     0.094 A 
HETATM   22  C   UNL     1     -40.586 -51.313  12.162  1.00  0.00     0.028 A 
HETATM   23  C   UNL     1     -41.943 -50.707  12.340  1.00  0.00     0.028 A 
ENDBRANCH   8  21
TORSDOF 5
ENDMDL
MODEL 2
REMARK VINA RESULT:      -5.8      1.687      5.762
REMARK  5 active torsions:
REMARK  status: ('A' for Active; 'I' for Inactive)
REMARK    1  A    between atoms: C_2  and  C_3 
REMARK       I    between atoms: C_2  and  N_17 
REMARK    2  A    between atoms: C_3  and  N_4 
REMARK    3  A    between atoms: N_11  and  C_12 
REMARK    4  A    between atoms: N_17  and  C_18 
REMARK    5  A    between atoms: C_18  and  C_19 
ROOT
HETATM    1  N   UNL     1     -44.925 -54.093  14.456  1.00  0.00    -0.256 N 
HETATM    2  C   UNL     1     -45.291 -53.513  13.251  1.00  0.00     0.274 A 
HETATM    3  O   UNL     1     -44.760 -53.806  12.180  1.00  0.00    -0.266 OA
HETATM    4  C   UNL     1     -46.360 -52.493  13.307  1.00  0.00     0.128 A 
HETATM    5  C   UNL     1     -46.843 -51.897  12.112  1.00  0.00     0.106 C 
HETATM    6  N   UNL     1     -47.286 -51.379  11.173  1.00  0.00    -0.191 NA
HETATM    7  C   UNL     1     -46.833 -52.137  14.504  1.00  0.00     0.124 A 
HETATM    8  N   UNL     1     -46.392 -52.705  15.678  1.00  0.00    -0.303 N 
HETATM    9  C   UNL     1     -45.419 -53.710  15.707  1.00  0.00     0.332 A 
HETATM   10  O   UNL     1     -45.031 -54.224  16.755  1.00  0.00    -0.246 OA
ENDROOT
BRANCH   1  11
HETATM   11  C   UNL     1     -43.896 -55.123  14.421  1.00  0.00     0.239 C 
BRANCH  11  12
HETATM   12  C   UNL     1     -42.508 -54.478  14.384  1.00  0.00     0.236 C 
HETATM   13  O   UNL     1     -41.896 -54.173  15.403  1.00  0.00    -0.272 OA
HETATM   14  N   UNL     1     -42.034 -54.206  13.117  1.00  0.00    -0.359 N 
HETATM   15  H   UNL     1     -42.635 -54.387  12.316  1.00  0.00     0.162 HD
BRANCH  14  16
HETATM   16  C   UNL     1     -40.718 -53.645  12.885  1.00  0.00     0.127 C 
BRANCH  16  17
HETATM   17  C   UNL     1     -40.903 -52.401  12.038  1.00  0.00     0.003 C 
HETATM   18  C   UNL     1     -39.965 -51.214  12.390  1.00  0.00     0.006 C 
HETATM   19  C   UNL     1     -41.146 -50.275  12.075  1.00  0.00     0.001 C 
HETATM   20  C   UNL     1     -42.083 -51.457  12.400  1.00  0.00     0.006 C 
ENDBRANCH  16  17
ENDBRANCH  14  16
ENDBRANCH  11  12
ENDBRANCH   1  11
BRANCH   8  21
HETATM   21  C   UNL     1     -46.874 -52.137  16.920  1.00  0.00     0.094 A 
HETATM   22  C   UNL     1     -47.934 -51.065  16.966  1.00  0.00     0.028 A 
HETATM   23  C   UNL     1     -46.529 -50.734  17.364  1.00  0.00     0.028 A 
ENDBRANCH   8  21
TORSDOF 5
ENDMDL
MODEL 3
REMARK VINA RESULT:      -5.6      2.813      5.566
REMARK  5 active torsions:
REMARK  status: ('A' for Active; 'I' for Inactive)
REMARK    1  A    between atoms: C_2  and  C_3 
REMARK       I    between atoms: C_2  and  N_17 
REMARK    2  A    between atoms: C_3  and  N_4 
REMARK    3  A    between atoms: N_11  and  C_12 
REMARK    4  A    between atoms: N_17  and  C_18 
REMARK    5  A    between atoms: C_18  and  C_19 
ROOT
HETATM    1  N   UNL     1     -42.309 -52.459  12.983  1.00  0.00    -0.256 N 
HETATM    2  C   UNL     1     -42.126 -53.705  13.563  1.00  0.00     0.274 A 
HETATM    3  O   UNL     1     -41.284 -54.511  13.164  1.00  0.00    -0.266 OA
HETATM    4  C   UNL     1     -43.013 -54.043  14.697  1.00  0.00     0.128 A 
HETATM    5  C   UNL     1     -42.850 -55.271  15.392  1.00  0.00     0.106 C 
HETATM    6  N   UNL     1     -42.763 -56.251  16.005  1.00  0.00    -0.191 NA
HETATM    7  C   UNL     1     -43.977 -53.178  15.026  1.00  0.00     0.124 A 
HETATM    8  N   UNL     1     -44.152 -51.976  14.377  1.00  0.00    -0.303 N 
HETATM    9  C   UNL     1     -43.324 -51.562  13.328  1.00  0.00     0.332 A 
HETATM   10  O   UNL     1     -43.476 -50.484  12.755  1.00  0.00    -0.246 OA
ENDROOT
BRANCH   1  11
HETATM   11  C   UNL     1     -41.425 -52.092  11.886  1.00  0.00     0.239 C 
BRANCH  11  12
HETATM   12  C   UNL     1     -40.226 -51.304  12.417  1.00  0.00     0.236 C 
HETATM   13  O   UNL     1     -39.207 -51.852  12.827  1.00  0.00    -0.272 OA
HETATM   14  N   UNL     1     -40.410 -49.937  12.463  1.00  0.00    -0.359 N 
HETATM   15  H   UNL     1     -41.316 -49.553  12.207  1.00  0.00     0.162 HD
BRANCH  14  16
HETATM   16  C   UNL     1     -39.365 -49.028  12.889  1.00  0.00     0.127 C 
BRANCH  16  17
HETATM   17  C   UNL     1     -39.429 -47.813  11.983  1.00  0.00     0.003 C 
HETATM   18  C   UNL     1     -39.730 -46.468  12.700  1.00  0.00     0.006 C 
HETATM   19  C   UNL     1     -40.560 -46.073  11.463  1.00  0.00     0.001 C 
HETATM   20  C   UNL     1     -40.745 -47.581  11.191  1.00  0.00     0.006 C 
ENDBRANCH  16  17
ENDBRANCH  14  16
ENDBRANCH  11  12
ENDBRANCH   1  11
BRANCH   8  21
HETATM   21  C   UNL     1     -45.317 -51.190  14.726  1.00  0.00     0.094 A 
HETATM   22  C   UNL     1     -46.465 -51.751  15.528  1.00  0.00     0.028 A 
HETATM   23  C   UNL     1     -46.669 -51.405  14.086  1.00  0.00     0.028 A 
ENDBRANCH   8  21
TORSDOF 5
ENDMDL
MODEL 4
REMARK VINA RESULT:      -5.6      2.751      5.502
REMARK  5 active torsions:
REMARK  status: ('A' for Active; 'I' for Inactive)
REMARK    1  A    between atoms: C_2  and  C_3 
REMARK       I    between atoms: C_2  and  N_17 
REMARK    2  A    between atoms: C_3  and  N_4 
REMARK    3  A    between atoms: N_11  and  C_12 
REMARK    4  A    between atoms: N_17  and  C_18 
REMARK    5  A    between atoms: C_18  and  C_19 
ROOT
HETATM    1  N   UNL     1     -41.506 -53.110  12.823  1.00  0.00    -0.256 N 
HETATM    2  C   UNL     1     -42.857 -53.378  12.980  1.00  0.00     0.274 A 
HETATM    3  O   UNL     1     -43.729 -52.842  12.296  1.00  0.00    -0.266 OA
HETATM    4  C   UNL     1     -43.220 -54.348  14.037  1.00  0.00     0.128 A 
HETATM    5  C   UNL     1     -44.574 -54.731  14.221  1.00  0.00     0.106 C 
HETATM    6  N   UNL     1     -45.659 -55.091  14.417  1.00  0.00    -0.191 NA
HETATM    7  C   UNL     1     -42.247 -54.825  14.819  1.00  0.00     0.124 A 
HETATM    8  N   UNL     1     -40.924 -54.480  14.656  1.00  0.00    -0.303 N 
HETATM    9  C   UNL     1     -40.494 -53.608  13.649  1.00  0.00     0.332 A 
HETATM   10  O   UNL     1     -39.310 -53.306  13.499  1.00  0.00    -0.246 OA
ENDROOT
BRANCH   1  11
HETATM   11  C   UNL     1     -41.123 -52.183  11.767  1.00  0.00     0.239 C 
BRANCH  11  12
HETATM   12  C   UNL     1     -41.278 -50.740  12.253  1.00  0.00     0.236 C 
HETATM   13  O   UNL     1     -40.502 -50.228  13.055  1.00  0.00    -0.272 OA
HETATM   14  N   UNL     1     -42.394 -50.088  11.772  1.00  0.00    -0.359 N 
HETATM   15  H   UNL     1     -43.054 -50.602  11.193  1.00  0.00     0.162 HD
BRANCH  14  16
HETATM   16  C   UNL     1     -42.676 -48.701  12.083  1.00  0.00     0.127 C 
BRANCH  16  17
HETATM   17  C   UNL     1     -42.585 -47.921  10.786  1.00  0.00     0.003 C 
HETATM   18  C   UNL     1     -42.308 -46.400  10.946  1.00  0.00     0.006 C 
HETATM   19  C   UNL     1     -43.244 -46.174   9.742  1.00  0.00     0.001 C 
HETATM   20  C   UNL     1     -43.918 -47.514  10.100  1.00  0.00     0.006 C 
ENDBRANCH  16  17
ENDBRANCH  14  16
ENDBRANCH  11  12
ENDBRANCH   1  11
BRANCH   8  21
HETATM   21  C   UNL     1     -39.982 -54.946  15.652  1.00  0.00     0.094 A 
HETATM   22  C   UNL     1     -40.419 -55.578  16.951  1.00  0.00     0.028 A 
HETATM   23  C   UNL     1     -39.763 -54.233  16.966  1.00  0.00     0.028 A 
ENDBRANCH   8  21
TORSDOF 5
ENDMDL
MODEL 5
REMARK VINA RESULT:      -5.5      2.592      5.840
REMARK  5 active torsions:
REMARK  status: ('A' for Active; 'I' for Inactive)
REMARK    1  A    between atoms: C_2  and  C_3 
REMARK       I    between atoms: C_2  and  N_17 
REMARK    2  A    between atoms: C_3  and  N_4 
REMARK    3  A    between atoms: N_11  and  C_12 
REMARK    4  A    between atoms: N_17  and  C_18 
REMARK    5  A    between atoms: C_18  and  C_19 
ROOT
HETATM    1  N   UNL     1     -41.578 -53.324  12.756  1.00  0.00    -0.256 N 
HETATM    2  C   UNL     1     -42.927 -53.553  12.980  1.00  0.00     0.274 A 
HETATM    3  O   UNL     1     -43.810 -53.133  12.231  1.00  0.00    -0.266 OA
HETATM    4  C   UNL     1     -43.273 -54.327  14.192  1.00  0.00     0.128 A 
HETATM    5  C   UNL     1     -44.626 -54.665  14.463  1.00  0.00     0.106 C 
HETATM    6  N   UNL     1     -45.708 -54.979  14.736  1.00  0.00    -0.191 NA
HETATM    7  C   UNL     1     -42.288 -54.672  15.026  1.00  0.00     0.124 A 
HETATM    8  N   UNL     1     -40.967 -54.369  14.783  1.00  0.00    -0.303 N 
HETATM    9  C   UNL     1     -40.553 -53.682  13.636  1.00  0.00     0.332 A 
HETATM   10  O   UNL     1     -39.371 -53.418  13.416  1.00  0.00    -0.246 OA
ENDROOT
BRANCH   1  11
HETATM   11  C   UNL     1     -41.212 -52.591  11.552  1.00  0.00     0.239 C 
BRANCH  11  12
HETATM   12  C   UNL     1     -40.999 -51.112  11.882  1.00  0.00     0.236 C 
HETATM   13  O   UNL     1     -41.896 -50.401  12.327  1.00  0.00    -0.272 OA
HETATM   14  N   UNL     1     -39.744 -50.629  11.574  1.00  0.00    -0.359 N 
HETATM   15  H   UNL     1     -39.080 -51.242  11.110  1.00  0.00     0.162 HD
BRANCH  14  16
HETATM   16  C   UNL     1     -39.346 -49.266  11.864  1.00  0.00     0.127 C 
BRANCH  16  17
HETATM   17  C   UNL     1     -38.228 -49.331  12.887  1.00  0.00     0.003 C 
HETATM   18  C   UNL     1     -37.416 -50.656  12.896  1.00  0.00     0.006 C 
HETATM   19  C   UNL     1     -37.331 -50.513  14.428  1.00  0.00     0.001 C 
HETATM   20  C   UNL     1     -38.619 -49.667  14.353  1.00  0.00     0.006 C 
ENDBRANCH  16  17
ENDBRANCH  14  16
ENDBRANCH  11  12
ENDBRANCH   1  11
BRANCH   8  21
HETATM   21  C   UNL     1     -40.008 -54.667  15.827  1.00  0.00     0.094 A 
HETATM   22  C   UNL     1     -40.416 -54.920  17.257  1.00  0.00     0.028 A 
HETATM   23  C   UNL     1     -39.652 -53.680  16.915  1.00  0.00     0.028 A 
ENDBRANCH   8  21
TORSDOF 5
ENDMDL
MODEL 6
REMARK VINA RESULT:      -5.5      4.015      6.236
REMARK  5 active torsions:
REMARK  status: ('A' for Active; 'I' for Inactive)
REMARK    1  A    between atoms: C_2  and  C_3 
REMARK       I    between atoms: C_2  and  N_17 
REMARK    2  A    between atoms: C_3  and  N_4 
REMARK    3  A    between atoms: N_11  and  C_12 
REMARK    4  A    between atoms: N_17  and  C_18 
REMARK    5  A    between atoms: C_18  and  C_19 
ROOT
HETATM    1  N   UNL     1     -38.610 -50.835  13.370  1.00  0.00    -0.256 N 
HETATM    2  C   UNL     1     -37.675 -50.980  12.357  1.00  0.00     0.274 A 
HETATM    3  O   UNL     1     -36.796 -51.842  12.376  1.00  0.00    -0.266 OA
HETATM    4  C   UNL     1     -37.769 -50.027  11.230  1.00  0.00     0.128 A 
HETATM    5  C   UNL     1     -36.895 -50.145  10.117  1.00  0.00     0.106 C 
HETATM    6  N   UNL     1     -36.217 -50.193   9.178  1.00  0.00    -0.191 NA
HETATM    7  C   UNL     1     -38.675 -49.047  11.304  1.00  0.00     0.124 A 
HETATM    8  N   UNL     1     -39.543 -48.914  12.365  1.00  0.00    -0.303 N 
HETATM    9  C   UNL     1     -39.550 -49.804  13.445  1.00  0.00     0.332 A 
HETATM   10  O   UNL     1     -40.332 -49.689  14.388  1.00  0.00    -0.246 OA
ENDROOT
BRANCH   1  11
HETATM   11  C   UNL     1     -38.556 -51.784  14.474  1.00  0.00     0.239 C 
BRANCH  11  12
HETATM   12  C   UNL     1     -39.375 -53.031  14.136  1.00  0.00     0.236 C 
HETATM   13  O   UNL     1     -38.865 -54.049  13.676  1.00  0.00    -0.272 OA
HETATM   14  N   UNL     1     -40.735 -52.895  14.323  1.00  0.00    -0.359 N 
HETATM   15  H   UNL     1     -41.106 -51.992  14.607  1.00  0.00     0.162 HD
BRANCH  14  16
HETATM   16  C   UNL     1     -41.661 -53.988  14.104  1.00  0.00     0.127 C 
BRANCH  16  17
HETATM   17  C   UNL     1     -43.036 -53.379  13.902  1.00  0.00     0.003 C 
HETATM   18  C   UNL     1     -44.089 -54.322  13.258  1.00  0.00     0.006 C 
HETATM   19  C   UNL     1     -44.637 -53.088  12.513  1.00  0.00     0.001 C 
HETATM   20  C   UNL     1     -43.236 -52.460  12.665  1.00  0.00     0.006 C 
ENDBRANCH  16  17
ENDBRANCH  14  16
ENDBRANCH  11  12
ENDBRANCH   1  11
BRANCH   8  21
HETATM   21  C   UNL     1     -40.380 -47.733  12.402  1.00  0.00     0.094 A 
HETATM   22  C   UNL     1     -40.170 -46.559  11.478  1.00  0.00     0.028 A 
HETATM   23  C   UNL     1     -39.895 -46.406  12.941  1.00  0.00     0.028 A 
ENDBRANCH   8  21
TORSDOF 5
ENDMDL
MODEL 7
REMARK VINA RESULT:      -5.5      0.974      3.183
REMARK  5 active torsions:
REMARK  status: ('A' for Active; 'I' for Inactive)
REMARK    1  A    between atoms: C_2  and  C_3 
REMARK       I    between atoms: C_2  and  N_17 
REMARK    2  A    between atoms: C_3  and  N_4 
REMARK    3  A    between atoms: N_11  and  C_12 
REMARK    4  A    between atoms: N_17  and  C_18 
REMARK    5  A    between atoms: C_18  and  C_19 
ROOT
HETATM    1  N   UNL     1     -43.500 -54.520  14.069  1.00  0.00    -0.256 N 
HETATM    2  C   UNL     1     -43.168 -53.560  13.126  1.00  0.00     0.274 A 
HETATM    3  O   UNL     1     -43.941 -53.199  12.238  1.00  0.00    -0.266 OA
HETATM    4  C   UNL     1     -41.810 -52.981  13.222  1.00  0.00     0.128 A 
HETATM    5  C   UNL     1     -41.410 -51.944  12.339  1.00  0.00     0.106 C 
HETATM    6  N   UNL     1     -41.026 -51.090  11.654  1.00  0.00    -0.191 NA
HETATM    7  C   UNL     1     -40.974 -53.478  14.138  1.00  0.00     0.124 A 
HETATM    8  N   UNL     1     -41.338 -54.476  15.015  1.00  0.00    -0.303 N 
HETATM    9  C   UNL     1     -42.618 -55.040  15.021  1.00  0.00     0.332 A 
HETATM   10  O   UNL     1     -42.945 -55.926  15.810  1.00  0.00    -0.246 OA
ENDROOT
BRANCH   1  11
HETATM   11  C   UNL     1     -44.844 -55.080  14.013  1.00  0.00     0.239 C 
BRANCH  11  12
HETATM   12  C   UNL     1     -45.770 -54.319  14.964  1.00  0.00     0.236 C 
HETATM   13  O   UNL     1     -46.016 -54.712  16.100  1.00  0.00    -0.272 OA
HETATM   14  N   UNL     1     -46.359 -53.196  14.418  1.00  0.00    -0.359 N 
HETATM   15  H   UNL     1     -46.196 -52.982  13.437  1.00  0.00     0.162 HD
BRANCH  14  16
HETATM   16  C   UNL     1     -47.225 -52.324  15.185  1.00  0.00     0.127 C 
BRANCH  16  17
HETATM   17  C   UNL     1     -46.422 -51.083  15.530  1.00  0.00     0.003 C 
HETATM   18  C   UNL     1     -45.059 -50.951  14.796  1.00  0.00     0.006 C 
HETATM   19  C   UNL     1     -44.496 -50.344  16.096  1.00  0.00     0.001 C 
HETATM   20  C   UNL     1     -45.606 -51.104  16.852  1.00  0.00     0.006 C 
ENDBRANCH  16  17
ENDBRANCH  14  16
ENDBRANCH  11  12
ENDBRANCH   1  11
BRANCH   8  21
HETATM   21  C   UNL     1     -40.304 -55.032  15.864  1.00  0.00     0.094 A 
HETATM   22  C   UNL     1     -39.148 -54.211  16.380  1.00  0.00     0.028 A 
HETATM   23  C   UNL     1     -38.898 -55.292  15.374  1.00  0.00     0.028 A 
ENDBRANCH   8  21
TORSDOF 5
ENDMDL
MODEL 8
REMARK VINA RESULT:      -5.4      3.270      4.686
REMARK  5 active torsions:
REMARK  status: ('A' for Active; 'I' for Inactive)
REMARK    1  A    between atoms: C_2  and  C_3 
REMARK       I    between atoms: C_2  and  N_17 
REMARK    2  A    between atoms: C_3  and  N_4 
REMARK    3  A    between atoms: N_11  and  C_12 
REMARK    4  A    between atoms: N_17  and  C_18 
REMARK    5  A    between atoms: C_18  and  C_19 
ROOT
HETATM    1  N   UNL     1     -40.321 -51.147  12.657  1.00  0.00    -0.256 N 
HETATM    2  C   UNL     1     -39.196 -51.308  13.451  1.00  0.00     0.274 A 
HETATM    3  O   UNL     1     -38.635 -52.393  13.604  1.00  0.00    -0.266 OA
HETATM    4  C   UNL     1     -38.693 -50.098  14.137  1.00  0.00     0.128 A 
HETATM    5  C   UNL     1     -37.508 -50.157  14.916  1.00  0.00     0.106 C 
HETATM    6  N   UNL     1     -36.543 -50.138  15.559  1.00  0.00    -0.191 NA
HETATM    7  C   UNL     1     -39.395 -48.967  14.022  1.00  0.00     0.124 A 
HETATM    8  N   UNL     1     -40.542 -48.876  13.264  1.00  0.00    -0.303 N 
HETATM    9  C   UNL     1     -41.055 -49.962  12.547  1.00  0.00     0.332 A 
HETATM   10  O   UNL     1     -42.075 -49.878  11.863  1.00  0.00    -0.246 OA
ENDROOT
BRANCH   1  11
HETATM   11  C   UNL     1     -40.815 -52.318  11.947  1.00  0.00     0.239 C 
BRANCH  11  12
HETATM   12  C   UNL     1     -42.027 -52.903  12.677  1.00  0.00     0.236 C 
HETATM   13  O   UNL     1     -41.931 -53.474  13.760  1.00  0.00    -0.272 OA
HETATM   14  N   UNL     1     -43.218 -52.798  11.990  1.00  0.00    -0.359 N 
HETATM   15  H   UNL     1     -43.213 -52.407  11.051  1.00  0.00     0.162 HD
BRANCH  14  16
HETATM   16  C   UNL     1     -44.478 -53.249  12.547  1.00  0.00     0.127 C 
BRANCH  16  17
HETATM   17  C   UNL     1     -45.077 -52.082  13.309  1.00  0.00     0.003 C 
HETATM   18  C   UNL     1     -45.666 -52.434  14.703  1.00  0.00     0.006 C 
HETATM   19  C   UNL     1     -46.774 -51.401  14.419  1.00  0.00     0.001 C 
HETATM   20  C   UNL     1     -46.512 -51.633  12.917  1.00  0.00     0.006 C 
ENDBRANCH  16  17
ENDBRANCH  14  16
ENDBRANCH  11  12
ENDBRANCH   1  11
BRANCH   8  21
HETATM   21  C   UNL     1     -41.294 -47.640  13.332  1.00  0.00     0.094 A 
HETATM   22  C   UNL     1     -41.084 -46.620  14.423  1.00  0.00     0.028 A 
HETATM   23  C   UNL     1     -42.365 -47.392  14.369  1.00  0.00     0.028 A 
ENDBRANCH   8  21
TORSDOF 5
ENDMDL
MODEL 9
REMARK VINA RESULT:      -5.3      3.430      5.310
REMARK  5 active torsions:
REMARK  status: ('A' for Active; 'I' for Inactive)
REMARK    1  A    between atoms: C_2  and  C_3 
REMARK       I    between atoms: C_2  and  N_17 
REMARK    2  A    between atoms: C_3  and  N_4 
REMARK    3  A    between atoms: N_11  and  C_12 
REMARK    4  A    between atoms: N_17  and  C_18 
REMARK    5  A    between atoms: C_18  and  C_19 
ROOT
HETATM    1  N   UNL     1     -40.319 -51.531  13.064  1.00  0.00    -0.256 N 
HETATM    2  C   UNL     1     -40.829 -50.295  12.698  1.00  0.00     0.274 A 
HETATM    3  O   UNL     1     -41.577 -50.140  11.732  1.00  0.00    -0.266 OA
HETATM    4  C   UNL     1     -40.418 -49.140  13.525  1.00  0.00     0.128 A 
HETATM    5  C   UNL     1     -40.945 -47.848  13.262  1.00  0.00     0.106 C 
HETATM    6  N   UNL     1     -41.345 -46.771  13.105  1.00  0.00    -0.191 NA
HETATM    7  C   UNL     1     -39.525 -49.344  14.498  1.00  0.00     0.124 A 
HETATM    8  N   UNL     1     -39.006 -50.587  14.783  1.00  0.00    -0.303 N 
HETATM    9  C   UNL     1     -39.381 -51.737  14.080  1.00  0.00     0.332 A 
HETATM   10  O   UNL     1     -38.922 -52.848  14.340  1.00  0.00    -0.246 OA
ENDROOT
BRANCH   1  11
HETATM   11  C   UNL     1     -40.736 -52.688  12.283  1.00  0.00     0.239 C 
BRANCH  11  12
HETATM   12  C   UNL     1     -42.072 -53.221  12.806  1.00  0.00     0.236 C 
HETATM   13  O   UNL     1     -42.148 -53.974  13.772  1.00  0.00    -0.272 OA
HETATM   14  N   UNL     1     -43.172 -52.842  12.064  1.00  0.00    -0.359 N 
HETATM   15  H   UNL     1     -43.031 -52.303  11.213  1.00  0.00     0.162 HD
BRANCH  14  16
HETATM   16  C   UNL     1     -44.523 -53.210  12.438  1.00  0.00     0.127 C 
BRANCH  16  17
HETATM   17  C   UNL     1     -45.102 -52.052  13.228  1.00  0.00     0.003 C 
HETATM   18  C   UNL     1     -45.637 -52.416  14.641  1.00  0.00     0.006 C 
HETATM   19  C   UNL     1     -46.762 -51.389  14.404  1.00  0.00     0.001 C 
HETATM   20  C   UNL     1     -46.554 -51.611  12.892  1.00  0.00     0.006 C 
ENDBRANCH  16  17
ENDBRANCH  14  16
ENDBRANCH  11  12
ENDBRANCH   1  11
BRANCH   8  21
HETATM   21  C   UNL     1     -37.941 -50.660  15.763  1.00  0.00     0.094 A 
HETATM   22  C   UNL     1     -37.525 -49.476  16.599  1.00  0.00     0.028 A 
HETATM   23  C   UNL     1     -36.594 -50.007  15.554  1.00  0.00     0.028 A 
ENDBRANCH   8  21
TORSDOF 5
ENDMDL
