MODEL 1
REMARK VINA RESULT:      -5.9      0.000      0.000
REMARK  4 active torsions:
REMARK  status: ('A' for Active; 'I' for Inactive)
REMARK       I    between atoms: C_2  and  N_3 
REMARK       I    between atoms: C_2  and  N_12 
REMARK    1  A    between atoms: N_3  and  C_4 
REMARK    2  A    between atoms: C_4  and  C_5 
REMARK    3  A    between atoms: C_5  and  N_6 
REMARK    4  A    between atoms: N_12  and  C_13 
ROOT
HETATM    1  O   UNL     1     -40.020 -49.920  11.048  1.00  0.00    -0.247 OA
HETATM    2  C   UNL     1     -40.944 -50.474  11.645  1.00  0.00     0.321 C 
HETATM    3  N   UNL     1     -41.903 -49.796  12.327  1.00  0.00    -0.341 N 
HETATM    4  N   UNL     1     -41.039 -51.826  11.594  1.00  0.00    -0.295 N 
HETATM    5  H   UNL     1     -42.698 -50.361  12.613  1.00  0.00     0.164 HD
HETATM    6  H   UNL     1     -40.329 -52.239  11.009  1.00  0.00     0.172 HD
ENDROOT
BRANCH   3   7
HETATM    7  C   UNL     1     -42.032 -48.359  12.218  1.00  0.00     0.154 C 
BRANCH   7   8
HETATM    8  C   UNL     1     -43.017 -47.934  11.113  1.00  0.00     0.292 C 
BRANCH   8   9
HETATM    9  N   UNL     1     -42.373 -47.309   9.941  1.00  0.00     0.094 N 
HETATM   10  C   UNL     1     -41.839 -45.952  10.204  1.00  0.00     0.298 C 
HETATM   11  C   UNL     1     -42.914 -44.860  10.337  1.00  0.00     0.198 C 
HETATM   12  O   UNL     1     -43.774 -44.827   9.191  1.00  0.00    -0.388 OA
HETATM   13  C   UNL     1     -44.380 -46.108   8.974  1.00  0.00     0.198 C 
HETATM   14  C   UNL     1     -43.314 -47.204   8.801  1.00  0.00     0.298 C 
ENDBRANCH   8   9
ENDBRANCH   7   8
ENDBRANCH   3   7
BRANCH   4  15
HETATM   15  C   UNL     1     -41.964 -52.672  12.210  1.00  0.00     0.108 A 
HETATM   16  C   UNL     1     -41.515 -53.438  13.279  1.00  0.00     0.049 A 
HETATM   17  C   UNL     1     -42.410 -54.292  13.920  1.00  0.00     0.005 A 
HETATM   18  C   UNL     1     -43.732 -54.329  13.499  1.00  0.00     0.017 A 
HETATM   19  C   UNL     1     -44.098 -53.527  12.434  1.00  0.00     0.089 A 
HETATM   20  N   UNL     1     -43.240 -52.723  11.766  1.00  0.00    -0.352 N 
ATOM     21  HN  UNL     1     -43.543 -52.178  10.960  1.00  0.00     0.166 HD
ENDBRANCH   4  15
TORSDOF 4
ENDMDL
MODEL 2
REMARK VINA RESULT:      -5.7      2.444      6.567
REMARK  4 active torsions:
REMARK  status: ('A' for Active; 'I' for Inactive)
REMARK       I    between atoms: C_2  and  N_3 
REMARK       I    between atoms: C_2  and  N_12 
REMARK    1  A    between atoms: N_3  and  C_4 
REMARK    2  A    between atoms: C_4  and  C_5 
REMARK    3  A    between atoms: C_5  and  N_6 
REMARK    4  A    between atoms: N_12  and  C_13 
ROOT
HETATM    1  O   UNL     1     -41.903 -45.192   9.988  1.00  0.00    -0.247 OA
HETATM    2  C   UNL     1     -42.555 -46.200   9.719  1.00  0.00     0.321 C 
HETATM    3  N   UNL     1     -42.143 -47.458  10.026  1.00  0.00    -0.341 N 
HETATM    4  N   UNL     1     -43.764 -46.058   9.121  1.00  0.00    -0.295 N 
HETATM    5  H   UNL     1     -42.855 -48.175   9.914  1.00  0.00     0.164 HD
HETATM    6  H   UNL     1     -44.019 -45.090   8.996  1.00  0.00     0.172 HD
ENDROOT
BRANCH   3   7
HETATM    7  C   UNL     1     -41.005 -47.689  10.890  1.00  0.00     0.154 C 
BRANCH   7   8
HETATM    8  C   UNL     1     -40.799 -49.179  11.214  1.00  0.00     0.292 C 
BRANCH   8   9
HETATM    9  N   UNL     1     -40.566 -49.457  12.646  1.00  0.00     0.094 N 
HETATM   10  C   UNL     1     -39.133 -49.503  13.020  1.00  0.00     0.298 C 
HETATM   11  C   UNL     1     -38.391 -50.762  12.538  1.00  0.00     0.198 C 
HETATM   12  O   UNL     1     -39.045 -51.959  12.979  1.00  0.00    -0.388 OA
HETATM   13  C   UNL     1     -40.410 -51.981  12.544  1.00  0.00     0.198 C 
HETATM   14  C   UNL     1     -41.175 -50.746  13.051  1.00  0.00     0.298 C 
ENDBRANCH   8   9
ENDBRANCH   7   8
ENDBRANCH   3   7
BRANCH   4  15
HETATM   15  C   UNL     1     -44.660 -47.039   8.691  1.00  0.00     0.108 A 
HETATM   16  C   UNL     1     -45.858 -47.157   9.385  1.00  0.00     0.049 A 
HETATM   17  C   UNL     1     -46.778 -48.124   8.983  1.00  0.00     0.005 A 
HETATM   18  C   UNL     1     -46.490 -48.918   7.882  1.00  0.00     0.017 A 
HETATM   19  C   UNL     1     -45.279 -48.728   7.242  1.00  0.00     0.089 A 
HETATM   20  N   UNL     1     -44.351 -47.828   7.638  1.00  0.00    -0.352 N 
ATOM     21  HN  UNL     1     -43.453 -47.748   7.161  1.00  0.00     0.166 HD
ENDBRANCH   4  15
TORSDOF 4
ENDMDL
MODEL 3
REMARK VINA RESULT:      -5.7      2.162      7.106
REMARK  4 active torsions:
REMARK  status: ('A' for Active; 'I' for Inactive)
REMARK       I    between atoms: C_2  and  N_3 
REMARK       I    between atoms: C_2  and  N_12 
REMARK    1  A    between atoms: N_3  and  C_4 
REMARK    2  A    between atoms: C_4  and  C_5 
REMARK    3  A    between atoms: C_5  and  N_6 
REMARK    4  A    between atoms: N_12  and  C_13 
ROOT
HETATM    1  O   UNL     1     -40.321 -50.829  11.762  1.00  0.00    -0.247 OA
HETATM    2  C   UNL     1     -41.211 -50.008  11.542  1.00  0.00     0.321 C 
HETATM    3  N   UNL     1     -42.391 -49.990  12.214  1.00  0.00    -0.341 N 
HETATM    4  N   UNL     1     -40.997 -49.043  10.612  1.00  0.00    -0.295 N 
HETATM    5  H   UNL     1     -42.951 -49.156  12.062  1.00  0.00     0.164 HD
HETATM    6  H   UNL     1     -40.070 -49.089  10.217  1.00  0.00     0.172 HD
ENDROOT
BRANCH   3   7
HETATM    7  C   UNL     1     -42.600 -50.805  13.391  1.00  0.00     0.154 C 
BRANCH   7   8
HETATM    8  C   UNL     1     -43.768 -51.795  13.229  1.00  0.00     0.292 C 
BRANCH   8   9
HETATM    9  N   UNL     1     -43.368 -53.115  12.702  1.00  0.00     0.094 N 
HETATM   10  C   UNL     1     -44.494 -54.067  12.559  1.00  0.00     0.298 C 
HETATM   11  C   UNL     1     -45.022 -54.632  13.889  1.00  0.00     0.198 C 
HETATM   12  O   UNL     1     -43.973 -55.235  14.658  1.00  0.00    -0.388 OA
HETATM   13  C   UNL     1     -42.913 -54.299  14.892  1.00  0.00     0.198 C 
HETATM   14  C   UNL     1     -42.349 -53.755  13.568  1.00  0.00     0.298 C 
ENDBRANCH   8   9
ENDBRANCH   7   8
ENDBRANCH   3   7
BRANCH   4  15
HETATM   15  C   UNL     1     -41.856 -48.036  10.168  1.00  0.00     0.108 A 
HETATM   16  C   UNL     1     -41.826 -46.825  10.850  1.00  0.00     0.049 A 
HETATM   17  C   UNL     1     -42.668 -45.796  10.434  1.00  0.00     0.005 A 
HETATM   18  C   UNL     1     -43.487 -45.993   9.330  1.00  0.00     0.017 A 
HETATM   19  C   UNL     1     -43.447 -47.225   8.703  1.00  0.00     0.089 A 
HETATM   20  N   UNL     1     -42.673 -48.254   9.114  1.00  0.00    -0.352 N 
ATOM     21  HN  UNL     1     -42.704 -49.159   8.645  1.00  0.00     0.166 HD
ENDBRANCH   4  15
TORSDOF 4
ENDMDL
MODEL 4
REMARK VINA RESULT:      -5.7      1.942      2.664
REMARK  4 active torsions:
REMARK  status: ('A' for Active; 'I' for Inactive)
REMARK       I    between atoms: C_2  and  N_3 
REMARK       I    between atoms: C_2  and  N_12 
REMARK    1  A    between atoms: N_3  and  C_4 
REMARK    2  A    between atoms: C_4  and  C_5 
REMARK    3  A    between atoms: C_5  and  N_6 
REMARK    4  A    between atoms: N_12  and  C_13 
ROOT
HETATM    1  O   UNL     1     -40.955 -52.639  11.689  1.00  0.00    -0.247 OA
HETATM    2  C   UNL     1     -41.976 -52.053  12.048  1.00  0.00     0.321 C 
HETATM    3  N   UNL     1     -42.078 -50.699  12.105  1.00  0.00    -0.341 N 
HETATM    4  N   UNL     1     -43.072 -52.785  12.368  1.00  0.00    -0.295 N 
HETATM    5  H   UNL     1     -43.024 -50.352  12.238  1.00  0.00     0.164 HD
HETATM    6  H   UNL     1     -42.928 -53.773  12.229  1.00  0.00     0.172 HD
ENDROOT
BRANCH   3   7
HETATM    7  C   UNL     1     -41.060 -49.842  11.536  1.00  0.00     0.154 C 
BRANCH   7   8
HETATM    8  C   UNL     1     -41.642 -48.780  10.587  1.00  0.00     0.292 C 
BRANCH   8   9
HETATM    9  N   UNL     1     -42.533 -47.805  11.248  1.00  0.00     0.094 N 
HETATM   10  C   UNL     1     -43.662 -47.356  10.401  1.00  0.00     0.298 C 
HETATM   11  C   UNL     1     -43.265 -46.395   9.268  1.00  0.00     0.198 C 
HETATM   12  O   UNL     1     -42.555 -45.255   9.770  1.00  0.00    -0.388 OA
HETATM   13  C   UNL     1     -41.400 -45.664  10.514  1.00  0.00     0.198 C 
HETATM   14  C   UNL     1     -41.787 -46.597  11.675  1.00  0.00     0.298 C 
ENDBRANCH   8   9
ENDBRANCH   7   8
ENDBRANCH   3   7
BRANCH   4  15
HETATM   15  C   UNL     1     -44.318 -52.356  12.830  1.00  0.00     0.108 A 
HETATM   16  C   UNL     1     -44.395 -51.917  14.147  1.00  0.00     0.049 A 
HETATM   17  C   UNL     1     -45.622 -51.480  14.641  1.00  0.00     0.005 A 
HETATM   18  C   UNL     1     -46.725 -51.459  13.800  1.00  0.00     0.017 A 
HETATM   19  C   UNL     1     -46.559 -51.903  12.500  1.00  0.00     0.089 A 
HETATM   20  N   UNL     1     -45.392 -52.374  12.008  1.00  0.00    -0.352 N 
ATOM     21  HN  UNL     1     -45.323 -52.729  11.055  1.00  0.00     0.166 HD
ENDBRANCH   4  15
TORSDOF 4
ENDMDL
MODEL 5
REMARK VINA RESULT:      -5.7      2.872      7.257
REMARK  4 active torsions:
REMARK  status: ('A' for Active; 'I' for Inactive)
REMARK       I    between atoms: C_2  and  N_3 
REMARK       I    between atoms: C_2  and  N_12 
REMARK    1  A    between atoms: N_3  and  C_4 
REMARK    2  A    between atoms: C_4  and  C_5 
REMARK    3  A    between atoms: C_5  and  N_6 
REMARK    4  A    between atoms: N_12  and  C_13 
ROOT
HETATM    1  O   UNL     1     -40.682 -52.929  11.774  1.00  0.00    -0.247 OA
HETATM    2  C   UNL     1     -41.056 -51.762  11.895  1.00  0.00     0.321 C 
HETATM    3  N   UNL     1     -42.027 -51.376  12.762  1.00  0.00    -0.341 N 
HETATM    4  N   UNL     1     -40.447 -50.800  11.157  1.00  0.00    -0.295 N 
HETATM    5  H   UNL     1     -42.105 -50.371  12.889  1.00  0.00     0.164 HD
HETATM    6  H   UNL     1     -39.693 -51.166  10.596  1.00  0.00     0.172 HD
ENDROOT
BRANCH   3   7
HETATM    7  C   UNL     1     -42.542 -52.281  13.768  1.00  0.00     0.154 C 
BRANCH   7   8
HETATM    8  C   UNL     1     -43.846 -52.972  13.332  1.00  0.00     0.292 C 
BRANCH   8   9
HETATM    9  N   UNL     1     -43.965 -54.372  13.786  1.00  0.00     0.094 N 
HETATM   10  C   UNL     1     -45.331 -54.931  13.651  1.00  0.00     0.298 C 
HETATM   11  C   UNL     1     -46.342 -54.393  14.678  1.00  0.00     0.198 C 
HETATM   12  O   UNL     1     -45.875 -54.576  16.021  1.00  0.00    -0.388 OA
HETATM   13  C   UNL     1     -44.595 -53.958  16.203  1.00  0.00     0.198 C 
HETATM   14  C   UNL     1     -43.563 -54.515  15.206  1.00  0.00     0.298 C 
ENDBRANCH   8   9
ENDBRANCH   7   8
ENDBRANCH   3   7
BRANCH   4  15
HETATM   15  C   UNL     1     -40.715 -49.431  11.093  1.00  0.00     0.108 A 
HETATM   16  C   UNL     1     -39.844 -48.578  11.760  1.00  0.00     0.049 A 
HETATM   17  C   UNL     1     -40.079 -47.205  11.716  1.00  0.00     0.005 A 
HETATM   18  C   UNL     1     -41.153 -46.723  10.981  1.00  0.00     0.017 A 
HETATM   19  C   UNL     1     -41.964 -47.640  10.339  1.00  0.00     0.089 A 
HETATM   20  N   UNL     1     -41.785 -48.979  10.402  1.00  0.00    -0.352 N 
ATOM     21  HN  UNL     1     -42.432 -49.622   9.945  1.00  0.00     0.166 HD
ENDBRANCH   4  15
TORSDOF 4
ENDMDL
MODEL 6
REMARK VINA RESULT:      -5.6      2.844      6.662
REMARK  4 active torsions:
REMARK  status: ('A' for Active; 'I' for Inactive)
REMARK       I    between atoms: C_2  and  N_3 
REMARK       I    between atoms: C_2  and  N_12 
REMARK    1  A    between atoms: N_3  and  C_4 
REMARK    2  A    between atoms: C_4  and  C_5 
REMARK    3  A    between atoms: C_5  and  N_6 
REMARK    4  A    between atoms: N_12  and  C_13 
ROOT
HETATM    1  O   UNL     1     -40.503 -52.773  12.136  1.00  0.00    -0.247 OA
HETATM    2  C   UNL     1     -40.807 -51.584  12.234  1.00  0.00     0.321 C 
HETATM    3  N   UNL     1     -41.460 -51.068  13.307  1.00  0.00    -0.341 N 
HETATM    4  N   UNL     1     -40.441 -50.731  11.245  1.00  0.00    -0.295 N 
HETATM    5  H   UNL     1     -41.482 -50.052  13.339  1.00  0.00     0.164 HD
HETATM    6  H   UNL     1     -39.899 -51.187  10.526  1.00  0.00     0.172 HD
ENDROOT
BRANCH   3   7
HETATM    7  C   UNL     1     -41.654 -51.840  14.515  1.00  0.00     0.154 C 
BRANCH   7   8
HETATM    8  C   UNL     1     -43.137 -51.968  14.906  1.00  0.00     0.292 C 
BRANCH   8   9
HETATM    9  N   UNL     1     -43.613 -53.361  15.015  1.00  0.00     0.094 N 
HETATM   10  C   UNL     1     -43.266 -54.205  13.847  1.00  0.00     0.298 C 
HETATM   11  C   UNL     1     -44.084 -53.904  12.580  1.00  0.00     0.198 C 
HETATM   12  O   UNL     1     -45.493 -53.985  12.832  1.00  0.00    -0.388 OA
HETATM   13  C   UNL     1     -45.870 -53.102  13.896  1.00  0.00     0.198 C 
HETATM   14  C   UNL     1     -45.085 -53.416  15.183  1.00  0.00     0.298 C 
ENDBRANCH   8   9
ENDBRANCH   7   8
ENDBRANCH   3   7
BRANCH   4  15
HETATM   15  C   UNL     1     -40.697 -49.365  11.114  1.00  0.00     0.108 A 
HETATM   16  C   UNL     1     -39.763 -48.486  11.651  1.00  0.00     0.049 A 
HETATM   17  C   UNL     1     -39.985 -47.115  11.538  1.00  0.00     0.005 A 
HETATM   18  C   UNL     1     -41.110 -46.662  10.863  1.00  0.00     0.017 A 
HETATM   19  C   UNL     1     -41.983 -47.605  10.350  1.00  0.00     0.089 A 
HETATM   20  N   UNL     1     -41.815 -48.939  10.485  1.00  0.00    -0.352 N 
ATOM     21  HN  UNL     1     -42.504 -49.599  10.125  1.00  0.00     0.166 HD
ENDBRANCH   4  15
TORSDOF 4
ENDMDL
MODEL 7
REMARK VINA RESULT:      -5.6      2.718      6.721
REMARK  4 active torsions:
REMARK  status: ('A' for Active; 'I' for Inactive)
REMARK       I    between atoms: C_2  and  N_3 
REMARK       I    between atoms: C_2  and  N_12 
REMARK    1  A    between atoms: N_3  and  C_4 
REMARK    2  A    between atoms: C_4  and  C_5 
REMARK    3  A    between atoms: C_5  and  N_6 
REMARK    4  A    between atoms: N_12  and  C_13 
ROOT
HETATM    1  O   UNL     1     -40.024 -50.195  11.776  1.00  0.00    -0.247 OA
HETATM    2  C   UNL     1     -41.050 -49.624  11.406  1.00  0.00     0.321 C 
HETATM    3  N   UNL     1     -42.295 -50.000  11.798  1.00  0.00    -0.341 N 
HETATM    4  N   UNL     1     -40.941 -48.540  10.597  1.00  0.00    -0.295 N 
HETATM    5  H   UNL     1     -43.029 -49.335  11.567  1.00  0.00     0.164 HD
HETATM    6  H   UNL     1     -39.980 -48.291  10.416  1.00  0.00     0.172 HD
ENDROOT
BRANCH   3   7
HETATM    7  C   UNL     1     -42.492 -50.966  12.856  1.00  0.00     0.154 C 
BRANCH   7   8
HETATM    8  C   UNL     1     -43.882 -50.858  13.508  1.00  0.00     0.292 C 
BRANCH   8   9
HETATM    9  N   UNL     1     -44.827 -51.912  13.088  1.00  0.00     0.094 N 
HETATM   10  C   UNL     1     -46.251 -51.515  13.194  1.00  0.00     0.298 C 
HETATM   11  C   UNL     1     -46.788 -51.449  14.634  1.00  0.00     0.198 C 
HETATM   12  O   UNL     1     -46.577 -52.684  15.331  1.00  0.00    -0.388 OA
HETATM   13  C   UNL     1     -45.188 -53.040  15.325  1.00  0.00     0.198 C 
HETATM   14  C   UNL     1     -44.647 -53.147  13.889  1.00  0.00     0.298 C 
ENDBRANCH   8   9
ENDBRANCH   7   8
ENDBRANCH   3   7
BRANCH   4  15
HETATM   15  C   UNL     1     -41.946 -47.758  10.024  1.00  0.00     0.108 A 
HETATM   16  C   UNL     1     -42.174 -46.505  10.580  1.00  0.00     0.049 A 
HETATM   17  C   UNL     1     -43.168 -45.695  10.033  1.00  0.00     0.005 A 
HETATM   18  C   UNL     1     -43.879 -46.145   8.929  1.00  0.00     0.017 A 
HETATM   19  C   UNL     1     -43.581 -47.401   8.433  1.00  0.00     0.089 A 
HETATM   20  N   UNL     1     -42.654 -48.224   8.971  1.00  0.00    -0.352 N 
ATOM     21  HN  UNL     1     -42.494 -49.159   8.597  1.00  0.00     0.166 HD
ENDBRANCH   4  15
TORSDOF 4
ENDMDL
MODEL 8
REMARK VINA RESULT:      -5.4      2.330      6.651
REMARK  4 active torsions:
REMARK  status: ('A' for Active; 'I' for Inactive)
REMARK       I    between atoms: C_2  and  N_3 
REMARK       I    between atoms: C_2  and  N_12 
REMARK    1  A    between atoms: N_3  and  C_4 
REMARK    2  A    between atoms: C_4  and  C_5 
REMARK    3  A    between atoms: C_5  and  N_6 
REMARK    4  A    between atoms: N_12  and  C_13 
ROOT
HETATM    1  O   UNL     1     -41.350 -47.961  12.887  1.00  0.00    -0.247 OA
HETATM    2  C   UNL     1     -41.975 -48.363  11.905  1.00  0.00     0.321 C 
HETATM    3  N   UNL     1     -42.093 -49.677  11.584  1.00  0.00    -0.341 N 
HETATM    4  N   UNL     1     -42.613 -47.459  11.121  1.00  0.00    -0.295 N 
HETATM    5  H   UNL     1     -42.781 -49.875  10.863  1.00  0.00     0.164 HD
HETATM    6  H   UNL     1     -42.531 -46.517  11.474  1.00  0.00     0.172 HD
ENDROOT
BRANCH   3   7
HETATM    7  C   UNL     1     -41.674 -50.717  12.498  1.00  0.00     0.154 C 
BRANCH   7   8
HETATM    8  C   UNL     1     -42.599 -51.946  12.463  1.00  0.00     0.292 C 
BRANCH   8   9
HETATM    9  N   UNL     1     -43.466 -52.081  13.651  1.00  0.00     0.094 N 
HETATM   10  C   UNL     1     -43.595 -53.474  14.142  1.00  0.00     0.298 C 
HETATM   11  C   UNL     1     -44.471 -54.380  13.260  1.00  0.00     0.198 C 
HETATM   12  O   UNL     1     -45.773 -53.816  13.057  1.00  0.00    -0.388 OA
HETATM   13  C   UNL     1     -45.675 -52.503  12.491  1.00  0.00     0.198 C 
HETATM   14  C   UNL     1     -44.832 -51.574  13.382  1.00  0.00     0.298 C 
ENDBRANCH   8   9
ENDBRANCH   7   8
ENDBRANCH   3   7
BRANCH   4  15
HETATM   15  C   UNL     1     -43.346 -47.664   9.950  1.00  0.00     0.108 A 
HETATM   16  C   UNL     1     -44.732 -47.623  10.048  1.00  0.00     0.049 A 
HETATM   17  C   UNL     1     -45.495 -47.822   8.900  1.00  0.00     0.005 A 
HETATM   18  C   UNL     1     -44.855 -48.019   7.684  1.00  0.00     0.017 A 
HETATM   19  C   UNL     1     -43.472 -48.035   7.674  1.00  0.00     0.089 A 
HETATM   20  N   UNL     1     -42.708 -47.890   8.779  1.00  0.00    -0.352 N 
ATOM     21  HN  UNL     1     -41.692 -47.948   8.732  1.00  0.00     0.166 HD
ENDBRANCH   4  15
TORSDOF 4
ENDMDL
MODEL 9
REMARK VINA RESULT:      -5.2      1.086      1.684
REMARK  4 active torsions:
REMARK  status: ('A' for Active; 'I' for Inactive)
REMARK       I    between atoms: C_2  and  N_3 
REMARK       I    between atoms: C_2  and  N_12 
REMARK    1  A    between atoms: N_3  and  C_4 
REMARK    2  A    between atoms: C_4  and  C_5 
REMARK    3  A    between atoms: C_5  and  N_6 
REMARK    4  A    between atoms: N_12  and  C_13 
ROOT
HETATM    1  O   UNL     1     -38.965 -50.700  11.904  1.00  0.00    -0.247 OA
HETATM    2  C   UNL     1     -40.080 -51.028  12.311  1.00  0.00     0.321 C 
HETATM    3  N   UNL     1     -40.941 -50.162  12.906  1.00  0.00    -0.341 N 
HETATM    4  N   UNL     1     -40.495 -52.306  12.125  1.00  0.00    -0.295 N 
HETATM    5  H   UNL     1     -41.885 -50.518  13.023  1.00  0.00     0.164 HD
HETATM    6  H   UNL     1     -39.824 -52.858  11.613  1.00  0.00     0.172 HD
ENDROOT
BRANCH   3   7
HETATM    7  C   UNL     1     -40.693 -48.736  12.908  1.00  0.00     0.154 C 
BRANCH   7   8
HETATM    8  C   UNL     1     -41.225 -48.039  11.643  1.00  0.00     0.292 C 
BRANCH   8   9
HETATM    9  N   UNL     1     -42.489 -47.303  11.847  1.00  0.00     0.094 N 
HETATM   10  C   UNL     1     -43.464 -47.474  10.745  1.00  0.00     0.298 C 
HETATM   11  C   UNL     1     -43.102 -46.720   9.453  1.00  0.00     0.198 C 
HETATM   12  O   UNL     1     -42.891 -45.324   9.700  1.00  0.00    -0.388 OA
HETATM   13  C   UNL     1     -41.878 -45.132  10.697  1.00  0.00     0.198 C 
HETATM   14  C   UNL     1     -42.246 -45.850  12.008  1.00  0.00     0.298 C 
ENDBRANCH   8   9
ENDBRANCH   7   8
ENDBRANCH   3   7
BRANCH   4  15
HETATM   15  C   UNL     1     -41.686 -52.916  12.523  1.00  0.00     0.108 A 
HETATM   16  C   UNL     1     -41.637 -53.745  13.638  1.00  0.00     0.049 A 
HETATM   17  C   UNL     1     -42.807 -54.369  14.067  1.00  0.00     0.005 A 
HETATM   18  C   UNL     1     -43.995 -54.120  13.393  1.00  0.00     0.017 A 
HETATM   19  C   UNL     1     -43.957 -53.274  12.300  1.00  0.00     0.089 A 
HETATM   20  N   UNL     1     -42.829 -52.692  11.837  1.00  0.00    -0.352 N 
ATOM     21  HN  UNL     1     -42.840 -52.106  11.002  1.00  0.00     0.166 HD
ENDBRANCH   4  15
TORSDOF 4
ENDMDL
