MODEL 1
REMARK VINA RESULT:      -5.6      0.000      0.000
REMARK  3 active torsions:
REMARK  status: ('A' for Active; 'I' for Inactive)
REMARK    1  A    between atoms: C_2  and  C_3 
REMARK    2  A    between atoms: C_2  and  N_10 
REMARK    3  A    between atoms: C_3  and  N_4 
REMARK       I    between atoms: N_10  and  C_11 
REMARK       I    between atoms: C_11  and  N_13 
ROOT
HETATM    1  N   UNL     1     -41.674 -49.332  11.488  1.00  0.00    -0.337 N 
HETATM    2  C   UNL     1     -41.769 -50.517  12.154  1.00  0.00     0.319 C 
HETATM    3  O   UNL     1     -42.831 -50.899  12.637  1.00  0.00    -0.247 OA
HETATM    4  N   UNL     1     -40.604 -51.262  12.160  1.00  0.00    -0.326 N 
HETATM    5  C   UNL     1     -40.717 -52.683  12.513  1.00  0.00     0.154 C 
HETATM    6  C   UNL     1     -39.926 -53.010  13.780  1.00  0.00     0.187 C 
HETATM    7  O   UNL     1     -38.554 -52.617  13.634  1.00  0.00    -0.388 OA
HETATM    8  C   UNL     1     -38.463 -51.204  13.406  1.00  0.00     0.192 C 
HETATM    9  C   UNL     1     -39.190 -50.786  12.103  1.00  0.00     0.108 C 
HETATM   10  C   UNL     1     -38.908 -49.299  11.874  1.00  0.00     0.034 C 
HETATM   11  H   UNL     1     -41.082 -49.407  10.675  1.00  0.00     0.164 HD
ENDROOT
BRANCH   1  12
HETATM   12  C   UNL     1     -42.780 -48.377  11.352  1.00  0.00     0.102 C 
HETATM   13  C   UNL     1     -42.625 -47.348  12.475  1.00  0.00     0.034 C 
BRANCH  12  14
HETATM   14  C   UNL     1     -42.795 -47.744   9.950  1.00  0.00     0.172 C 
BRANCH  14  15
HETATM   15  N   UNL     1     -44.106 -47.309   9.516  1.00  0.00    -0.302 N 
HETATM   16  C   UNL     1     -44.425 -46.118   8.929  1.00  0.00     0.111 A 
HETATM   17  C   UNL     1     -45.788 -46.136   8.754  1.00  0.00     0.037 A 
HETATM   18  C   UNL     1     -46.199 -47.381   9.265  1.00  0.00     0.108 A 
HETATM   19  N   UNL     1     -45.177 -48.098   9.735  1.00  0.00    -0.310 N 
ATOM     20  HN  UNL     1     -45.201 -49.025  10.160  1.00  0.00     0.186 HD
ENDBRANCH  14  15
ENDBRANCH  12  14
ENDBRANCH   1  12
TORSDOF 3
ENDMDL
MODEL 2
REMARK VINA RESULT:      -5.5      2.731      4.066
REMARK  3 active torsions:
REMARK  status: ('A' for Active; 'I' for Inactive)
REMARK    1  A    between atoms: C_2  and  C_3 
REMARK    2  A    between atoms: C_2  and  N_10 
REMARK    3  A    between atoms: C_3  and  N_4 
REMARK       I    between atoms: N_10  and  C_11 
REMARK       I    between atoms: C_11  and  N_13 
ROOT
HETATM    1  N   UNL     1     -41.949 -51.358  13.022  1.00  0.00    -0.337 N 
HETATM    2  C   UNL     1     -43.260 -51.694  13.182  1.00  0.00     0.319 C 
HETATM    3  O   UNL     1     -44.137 -50.840  13.272  1.00  0.00    -0.247 OA
HETATM    4  N   UNL     1     -43.507 -53.055  13.150  1.00  0.00    -0.326 N 
HETATM    5  C   UNL     1     -44.896 -53.481  12.937  1.00  0.00     0.154 C 
HETATM    6  C   UNL     1     -45.429 -54.274  14.130  1.00  0.00     0.187 C 
HETATM    7  O   UNL     1     -44.578 -55.393  14.413  1.00  0.00    -0.388 OA
HETATM    8  C   UNL     1     -43.254 -54.944  14.734  1.00  0.00     0.192 C 
HETATM    9  C   UNL     1     -42.608 -54.177  13.553  1.00  0.00     0.108 C 
HETATM   10  C   UNL     1     -41.157 -53.875  13.937  1.00  0.00     0.034 C 
HETATM   11  H   UNL     1     -41.483 -51.973  12.372  1.00  0.00     0.164 HD
ENDROOT
BRANCH   1  12
HETATM   12  C   UNL     1     -41.451 -49.978  13.021  1.00  0.00     0.102 C 
HETATM   13  C   UNL     1     -40.299 -49.917  14.029  1.00  0.00     0.034 C 
BRANCH  12  14
HETATM   14  C   UNL     1     -41.041 -49.538  11.606  1.00  0.00     0.172 C 
BRANCH  14  15
HETATM   15  N   UNL     1     -41.993 -48.655  10.966  1.00  0.00    -0.302 N 
HETATM   16  C   UNL     1     -43.113 -48.108  11.524  1.00  0.00     0.111 A 
HETATM   17  C   UNL     1     -43.725 -47.395  10.522  1.00  0.00     0.037 A 
HETATM   18  C   UNL     1     -42.899 -47.573   9.398  1.00  0.00     0.108 A 
HETATM   19  N   UNL     1     -41.843 -48.345   9.663  1.00  0.00    -0.310 N 
ATOM     20  HN  UNL     1     -41.098 -48.632   9.028  1.00  0.00     0.186 HD
ENDBRANCH  14  15
ENDBRANCH  12  14
ENDBRANCH   1  12
TORSDOF 3
ENDMDL
MODEL 3
REMARK VINA RESULT:      -5.5      4.374      6.556
REMARK  3 active torsions:
REMARK  status: ('A' for Active; 'I' for Inactive)
REMARK    1  A    between atoms: C_2  and  C_3 
REMARK    2  A    between atoms: C_2  and  N_10 
REMARK    3  A    between atoms: C_3  and  N_4 
REMARK       I    between atoms: N_10  and  C_11 
REMARK       I    between atoms: C_11  and  N_13 
ROOT
HETATM    1  N   UNL     1     -41.091 -45.867  11.647  1.00  0.00    -0.337 N 
HETATM    2  C   UNL     1     -41.673 -44.820  10.998  1.00  0.00     0.319 C 
HETATM    3  O   UNL     1     -42.133 -44.940   9.866  1.00  0.00    -0.247 OA
HETATM    4  N   UNL     1     -41.766 -43.664  11.751  1.00  0.00    -0.326 N 
HETATM    5  C   UNL     1     -42.697 -42.629  11.282  1.00  0.00     0.154 C 
HETATM    6  C   UNL     1     -41.966 -41.331  10.938  1.00  0.00     0.187 C 
HETATM    7  O   UNL     1     -41.199 -40.872  12.059  1.00  0.00    -0.388 OA
HETATM    8  C   UNL     1     -40.216 -41.851  12.425  1.00  0.00     0.192 C 
HETATM    9  C   UNL     1     -40.872 -43.189  12.849  1.00  0.00     0.108 C 
HETATM   10  C   UNL     1     -39.760 -44.108  13.360  1.00  0.00     0.034 C 
HETATM   11  H   UNL     1     -41.336 -45.882  12.625  1.00  0.00     0.164 HD
ENDROOT
BRANCH   1  12
HETATM   12  C   UNL     1     -40.885 -47.190  11.047  1.00  0.00     0.102 C 
HETATM   13  C   UNL     1     -39.687 -47.824  11.761  1.00  0.00     0.034 C 
BRANCH  12  14
HETATM   14  C   UNL     1     -42.161 -48.042  11.136  1.00  0.00     0.172 C 
BRANCH  14  15
HETATM   15  N   UNL     1     -43.081 -47.839  10.036  1.00  0.00    -0.302 N 
HETATM   16  C   UNL     1     -44.425 -47.611  10.118  1.00  0.00     0.111 A 
HETATM   17  C   UNL     1     -44.877 -47.543   8.822  1.00  0.00     0.037 A 
HETATM   18  C   UNL     1     -43.731 -47.741   8.031  1.00  0.00     0.108 A 
HETATM   19  N   UNL     1     -42.634 -47.927   8.767  1.00  0.00    -0.310 N 
ATOM     20  HN  UNL     1     -41.681 -48.095   8.445  1.00  0.00     0.186 HD
ENDBRANCH  14  15
ENDBRANCH  12  14
ENDBRANCH   1  12
TORSDOF 3
ENDMDL
MODEL 4
REMARK VINA RESULT:      -5.5      3.332      5.226
REMARK  3 active torsions:
REMARK  status: ('A' for Active; 'I' for Inactive)
REMARK    1  A    between atoms: C_2  and  C_3 
REMARK    2  A    between atoms: C_2  and  N_10 
REMARK    3  A    between atoms: C_3  and  N_4 
REMARK       I    between atoms: N_10  and  C_11 
REMARK       I    between atoms: C_11  and  N_13 
ROOT
HETATM    1  N   UNL     1     -42.580 -52.357  12.726  1.00  0.00    -0.337 N 
HETATM    2  C   UNL     1     -41.388 -51.866  12.284  1.00  0.00     0.319 C 
HETATM    3  O   UNL     1     -40.426 -52.601  12.080  1.00  0.00    -0.247 OA
HETATM    4  N   UNL     1     -41.395 -50.509  12.017  1.00  0.00    -0.326 N 
HETATM    5  C   UNL     1     -40.298 -49.980  11.196  1.00  0.00     0.154 C 
HETATM    6  C   UNL     1     -39.461 -48.960  11.968  1.00  0.00     0.187 C 
HETATM    7  O   UNL     1     -40.292 -47.904  12.471  1.00  0.00    -0.388 OA
HETATM    8  C   UNL     1     -41.283 -48.432  13.363  1.00  0.00     0.192 C 
HETATM    9  C   UNL     1     -42.221 -49.436  12.647  1.00  0.00     0.108 C 
HETATM   10  C   UNL     1     -43.324 -49.823  13.635  1.00  0.00     0.034 C 
HETATM   11  H   UNL     1     -43.360 -51.903  12.276  1.00  0.00     0.164 HD
ENDROOT
BRANCH   1  12
HETATM   12  C   UNL     1     -42.809 -53.764  13.072  1.00  0.00     0.102 C 
HETATM   13  C   UNL     1     -42.343 -53.951  14.519  1.00  0.00     0.034 C 
BRANCH  12  14
HETATM   14  C   UNL     1     -44.280 -54.155  12.855  1.00  0.00     0.172 C 
BRANCH  14  15
HETATM   15  N   UNL     1     -45.215 -53.072  13.078  1.00  0.00    -0.302 N 
HETATM   16  C   UNL     1     -45.703 -52.639  14.278  1.00  0.00     0.111 A 
HETATM   17  C   UNL     1     -46.596 -51.638  13.984  1.00  0.00     0.037 A 
HETATM   18  C   UNL     1     -46.578 -51.540  12.581  1.00  0.00     0.108 A 
HETATM   19  N   UNL     1     -45.740 -52.416  12.023  1.00  0.00    -0.310 N 
ATOM     20  HN  UNL     1     -45.544 -52.556  11.033  1.00  0.00     0.186 HD
ENDBRANCH  14  15
ENDBRANCH  12  14
ENDBRANCH   1  12
TORSDOF 3
ENDMDL
MODEL 5
REMARK VINA RESULT:      -5.4      3.459      6.131
REMARK  3 active torsions:
REMARK  status: ('A' for Active; 'I' for Inactive)
REMARK    1  A    between atoms: C_2  and  C_3 
REMARK    2  A    between atoms: C_2  and  N_10 
REMARK    3  A    between atoms: C_3  and  N_4 
REMARK       I    between atoms: N_10  and  C_11 
REMARK       I    between atoms: C_11  and  N_13 
ROOT
HETATM    1  N   UNL     1     -42.638 -52.913  13.301  1.00  0.00    -0.337 N 
HETATM    2  C   UNL     1     -43.591 -51.970  13.542  1.00  0.00     0.319 C 
HETATM    3  O   UNL     1     -43.312 -50.776  13.617  1.00  0.00    -0.247 OA
HETATM    4  N   UNL     1     -44.880 -52.467  13.609  1.00  0.00    -0.326 N 
HETATM    5  C   UNL     1     -45.980 -51.502  13.487  1.00  0.00     0.154 C 
HETATM    6  C   UNL     1     -46.838 -51.466  14.752  1.00  0.00     0.187 C 
HETATM    7  O   UNL     1     -47.327 -52.777  15.067  1.00  0.00    -0.388 OA
HETATM    8  C   UNL     1     -46.233 -53.676  15.298  1.00  0.00     0.192 C 
HETATM    9  C   UNL     1     -45.338 -53.821  14.042  1.00  0.00     0.108 C 
HETATM   10  C   UNL     1     -44.298 -54.904  14.339  1.00  0.00     0.034 C 
HETATM   11  H   UNL     1     -42.970 -53.627  12.672  1.00  0.00     0.164 HD
ENDROOT
BRANCH   1  12
HETATM   12  C   UNL     1     -41.205 -52.619  13.189  1.00  0.00     0.102 C 
HETATM   13  C   UNL     1     -40.453 -53.879  13.628  1.00  0.00     0.034 C 
BRANCH  12  14
HETATM   14  C   UNL     1     -40.843 -52.163  11.766  1.00  0.00     0.172 C 
BRANCH  14  15
HETATM   15  N   UNL     1     -40.592 -50.742  11.649  1.00  0.00    -0.302 N 
HETATM   16  C   UNL     1     -39.423 -50.088  11.913  1.00  0.00     0.111 A 
HETATM   17  C   UNL     1     -39.684 -48.753  11.718  1.00  0.00     0.037 A 
HETATM   18  C   UNL     1     -41.038 -48.704  11.339  1.00  0.00     0.108 A 
HETATM   19  N   UNL     1     -41.597 -49.914  11.300  1.00  0.00    -0.310 N 
ATOM     20  HN  UNL     1     -42.559 -50.156  11.062  1.00  0.00     0.186 HD
ENDBRANCH  14  15
ENDBRANCH  12  14
ENDBRANCH   1  12
TORSDOF 3
ENDMDL
MODEL 6
REMARK VINA RESULT:      -5.3      1.837      2.238
REMARK  3 active torsions:
REMARK  status: ('A' for Active; 'I' for Inactive)
REMARK    1  A    between atoms: C_2  and  C_3 
REMARK    2  A    between atoms: C_2  and  N_10 
REMARK    3  A    between atoms: C_3  and  N_4 
REMARK       I    between atoms: N_10  and  C_11 
REMARK       I    between atoms: C_11  and  N_13 
ROOT
HETATM    1  N   UNL     1     -39.896 -48.870  12.487  1.00  0.00    -0.337 N 
HETATM    2  C   UNL     1     -40.712 -49.956  12.378  1.00  0.00     0.319 C 
HETATM    3  O   UNL     1     -41.923 -49.837  12.218  1.00  0.00    -0.247 OA
HETATM    4  N   UNL     1     -40.048 -51.169  12.382  1.00  0.00    -0.326 N 
HETATM    5  C   UNL     1     -40.789 -52.341  11.899  1.00  0.00     0.154 C 
HETATM    6  C   UNL     1     -40.953 -53.394  12.996  1.00  0.00     0.187 C 
HETATM    7  O   UNL     1     -39.675 -53.768  13.530  1.00  0.00    -0.388 OA
HETATM    8  C   UNL     1     -39.021 -52.627  14.103  1.00  0.00     0.192 C 
HETATM    9  C   UNL     1     -38.758 -51.527  13.044  1.00  0.00     0.108 C 
HETATM   10  C   UNL     1     -37.931 -50.428  13.716  1.00  0.00     0.034 C 
HETATM   11  H   UNL     1     -39.025 -49.007  11.997  1.00  0.00     0.164 HD
ENDROOT
BRANCH   1  12
HETATM   12  C   UNL     1     -40.375 -47.483  12.506  1.00  0.00     0.102 C 
HETATM   13  C   UNL     1     -39.545 -46.736  13.554  1.00  0.00     0.034 C 
BRANCH  12  14
HETATM   14  C   UNL     1     -40.293 -46.851  11.106  1.00  0.00     0.172 C 
BRANCH  14  15
HETATM   15  N   UNL     1     -41.543 -46.876  10.375  1.00  0.00    -0.302 N 
HETATM   16  C   UNL     1     -42.473 -45.880  10.302  1.00  0.00     0.111 A 
HETATM   17  C   UNL     1     -43.508 -46.382   9.550  1.00  0.00     0.037 A 
HETATM   18  C   UNL     1     -43.107 -47.689   9.216  1.00  0.00     0.108 A 
HETATM   19  N   UNL     1     -41.911 -47.996   9.722  1.00  0.00    -0.310 N 
ATOM     20  HN  UNL     1     -41.397 -48.873   9.634  1.00  0.00     0.186 HD
ENDBRANCH  14  15
ENDBRANCH  12  14
ENDBRANCH   1  12
TORSDOF 3
ENDMDL
MODEL 7
REMARK VINA RESULT:      -5.2      2.442      6.614
REMARK  3 active torsions:
REMARK  status: ('A' for Active; 'I' for Inactive)
REMARK    1  A    between atoms: C_2  and  C_3 
REMARK    2  A    between atoms: C_2  and  N_10 
REMARK    3  A    between atoms: C_3  and  N_4 
REMARK       I    between atoms: N_10  and  C_11 
REMARK       I    between atoms: C_11  and  N_13 
ROOT
HETATM    1  N   UNL     1     -42.337 -49.513  11.949  1.00  0.00    -0.337 N 
HETATM    2  C   UNL     1     -41.324 -48.611  12.080  1.00  0.00     0.319 C 
HETATM    3  O   UNL     1     -40.477 -48.717  12.963  1.00  0.00    -0.247 OA
HETATM    4  N   UNL     1     -41.297 -47.639  11.097  1.00  0.00    -0.326 N 
HETATM    5  C   UNL     1     -40.053 -46.873  10.942  1.00  0.00     0.154 C 
HETATM    6  C   UNL     1     -40.272 -45.385  11.216  1.00  0.00     0.187 C 
HETATM    7  O   UNL     1     -41.311 -44.865  10.375  1.00  0.00    -0.388 OA
HETATM    8  C   UNL     1     -42.546 -45.550  10.628  1.00  0.00     0.192 C 
HETATM    9  C   UNL     1     -42.435 -47.064  10.319  1.00  0.00     0.108 C 
HETATM   10  C   UNL     1     -43.832 -47.671  10.476  1.00  0.00     0.034 C 
HETATM   11  H   UNL     1     -42.526 -49.723  10.981  1.00  0.00     0.164 HD
ENDROOT
BRANCH   1  12
HETATM   12  C   UNL     1     -42.564 -50.630  12.873  1.00  0.00     0.102 C 
HETATM   13  C   UNL     1     -44.046 -50.600  13.257  1.00  0.00     0.034 C 
BRANCH  12  14
HETATM   14  C   UNL     1     -42.129 -51.965  12.244  1.00  0.00     0.172 C 
BRANCH  14  15
HETATM   15  N   UNL     1     -41.015 -52.598  12.921  1.00  0.00    -0.302 N 
HETATM   16  C   UNL     1     -40.817 -53.936  13.104  1.00  0.00     0.111 A 
HETATM   17  C   UNL     1     -39.667 -54.050  13.846  1.00  0.00     0.037 A 
HETATM   18  C   UNL     1     -39.245 -52.726  14.061  1.00  0.00     0.108 A 
HETATM   19  N   UNL     1     -40.068 -51.836  13.502  1.00  0.00    -0.310 N 
ATOM     20  HN  UNL     1     -39.995 -50.818  13.512  1.00  0.00     0.186 HD
ENDBRANCH  14  15
ENDBRANCH  12  14
ENDBRANCH   1  12
TORSDOF 3
ENDMDL
MODEL 8
REMARK VINA RESULT:      -5.1     13.117     16.147
REMARK  3 active torsions:
REMARK  status: ('A' for Active; 'I' for Inactive)
REMARK    1  A    between atoms: C_2  and  C_3 
REMARK    2  A    between atoms: C_2  and  N_10 
REMARK    3  A    between atoms: C_3  and  N_4 
REMARK       I    between atoms: N_10  and  C_11 
REMARK       I    between atoms: C_11  and  N_13 
ROOT
HETATM    1  N   UNL     1     -51.747 -51.616  -0.706  1.00  0.00    -0.337 N 
HETATM    2  C   UNL     1     -50.594 -51.213  -0.102  1.00  0.00     0.319 C 
HETATM    3  O   UNL     1     -49.703 -52.009   0.181  1.00  0.00    -0.247 OA
HETATM    4  N   UNL     1     -50.495 -49.846   0.081  1.00  0.00    -0.326 N 
HETATM    5  C   UNL     1     -49.162 -49.301   0.368  1.00  0.00     0.154 C 
HETATM    6  C   UNL     1     -49.113 -48.630   1.741  1.00  0.00     0.187 C 
HETATM    7  O   UNL     1     -50.122 -47.617   1.844  1.00  0.00    -0.388 OA
HETATM    8  C   UNL     1     -51.426 -48.194   1.678  1.00  0.00     0.192 C 
HETATM    9  C   UNL     1     -51.588 -48.848   0.283  1.00  0.00     0.108 C 
HETATM   10  C   UNL     1     -53.045 -49.296   0.150  1.00  0.00     0.034 C 
HETATM   11  H   UNL     1     -52.050 -50.957  -1.407  1.00  0.00     0.164 HD
ENDROOT
BRANCH   1  12
HETATM   12  C   UNL     1     -52.071 -53.016  -1.002  1.00  0.00     0.102 C 
HETATM   13  C   UNL     1     -53.553 -53.213  -0.668  1.00  0.00     0.034 C 
BRANCH  12  14
HETATM   14  C   UNL     1     -51.727 -53.367  -2.459  1.00  0.00     0.172 C 
BRANCH  14  15
HETATM   15  N   UNL     1     -50.751 -54.428  -2.593  1.00  0.00    -0.302 N 
HETATM   16  C   UNL     1     -50.913 -55.619  -3.240  1.00  0.00     0.111 A 
HETATM   17  C   UNL     1     -49.745 -56.317  -3.049  1.00  0.00     0.037 A 
HETATM   18  C   UNL     1     -48.940 -55.462  -2.274  1.00  0.00     0.108 A 
HETATM   19  N   UNL     1     -49.551 -54.311  -1.989  1.00  0.00    -0.310 N 
ATOM     20  HN  UNL     1     -49.194 -53.526  -1.443  1.00  0.00     0.186 HD
ENDBRANCH  14  15
ENDBRANCH  12  14
ENDBRANCH   1  12
TORSDOF 3
ENDMDL
MODEL 9
REMARK VINA RESULT:      -5.1      1.848      2.581
REMARK  3 active torsions:
REMARK  status: ('A' for Active; 'I' for Inactive)
REMARK    1  A    between atoms: C_2  and  C_3 
REMARK    2  A    between atoms: C_2  and  N_10 
REMARK    3  A    between atoms: C_3  and  N_4 
REMARK       I    between atoms: N_10  and  C_11 
REMARK       I    between atoms: C_11  and  N_13 
ROOT
HETATM    1  N   UNL     1     -41.782 -49.474  11.955  1.00  0.00    -0.337 N 
HETATM    2  C   UNL     1     -41.904 -50.760  12.388  1.00  0.00     0.319 C 
HETATM    3  O   UNL     1     -42.989 -51.224  12.728  1.00  0.00    -0.247 OA
HETATM    4  N   UNL     1     -40.734 -51.493  12.330  1.00  0.00    -0.326 N 
HETATM    5  C   UNL     1     -40.852 -52.955  12.413  1.00  0.00     0.154 C 
HETATM    6  C   UNL     1     -40.135 -53.507  13.646  1.00  0.00     0.187 C 
HETATM    7  O   UNL     1     -38.762 -53.094  13.658  1.00  0.00    -0.388 OA
HETATM    8  C   UNL     1     -38.672 -51.662  13.696  1.00  0.00     0.192 C 
HETATM    9  C   UNL     1     -39.324 -51.015  12.448  1.00  0.00     0.108 C 
HETATM   10  C   UNL     1     -39.045 -49.511  12.510  1.00  0.00     0.034 C 
HETATM   11  H   UNL     1     -41.141 -49.400  11.180  1.00  0.00     0.164 HD
ENDROOT
BRANCH   1  12
HETATM   12  C   UNL     1     -42.888 -48.510  11.926  1.00  0.00     0.102 C 
HETATM   13  C   UNL     1     -42.816 -47.704  13.226  1.00  0.00     0.034 C 
BRANCH  12  14
HETATM   14  C   UNL     1     -42.824 -47.632  10.665  1.00  0.00     0.172 C 
BRANCH  14  15
HETATM   15  N   UNL     1     -41.850 -46.563  10.743  1.00  0.00    -0.302 N 
HETATM   16  C   UNL     1     -42.094 -45.243  10.995  1.00  0.00     0.111 A 
HETATM   17  C   UNL     1     -40.878 -44.610  10.910  1.00  0.00     0.037 A 
HETATM   18  C   UNL     1     -39.962 -45.632  10.603  1.00  0.00     0.108 A 
HETATM   19  N   UNL     1     -40.551 -46.825  10.496  1.00  0.00    -0.310 N 
ATOM     20  HN  UNL     1     -40.119 -47.723  10.278  1.00  0.00     0.186 HD
ENDBRANCH  14  15
ENDBRANCH  12  14
ENDBRANCH   1  12
TORSDOF 3
ENDMDL
