MODEL 1
REMARK VINA RESULT:      -6.1      0.000      0.000
REMARK  3 active torsions:
REMARK  status: ('A' for Active; 'I' for Inactive)
REMARK    1  A    between atoms: C_2  and  N_3 
REMARK    2  A    between atoms: C_5  and  N_6 
REMARK       I    between atoms: N_6  and  C_7 
REMARK       I    between atoms: C_7  and  N_9 
REMARK    3  A    between atoms: N_9  and  C_10 
ROOT
HETATM    1  N   UNL     1     -41.937 -48.215   9.587  1.00  0.00    -0.306 N 
HETATM    2  C   UNL     1     -41.292 -48.400  10.794  1.00  0.00     0.321 C 
HETATM    3  O   UNL     1     -41.544 -47.822  11.845  1.00  0.00    -0.247 OA
HETATM    4  N   UNL     1     -40.316 -49.374  10.711  1.00  0.00    -0.338 N 
HETATM    5  H   UNL     1     -41.661 -48.784   8.804  1.00  0.00     0.171 HD
HETATM    6  H   UNL     1     -39.827 -49.403   9.828  1.00  0.00     0.164 HD
ENDROOT
BRANCH   1   7
HETATM    7  C   UNL     1     -43.038 -47.390   9.418  1.00  0.00     0.070 A 
HETATM    8  C   UNL     1     -44.359 -47.757   9.348  1.00  0.00     0.141 A 
HETATM    9  N   UNL     1     -45.068 -46.617   9.119  1.00  0.00    -0.302 N 
HETATM   10  N   UNL     1     -44.302 -45.509   9.072  1.00  0.00    -0.308 N 
HETATM   11  C   UNL     1     -43.064 -45.987   9.253  1.00  0.00     0.138 A 
ATOM     12  HN  UNL     1     -44.594 -44.541   8.932  1.00  0.00     0.186 HD
BRANCH   9  13
HETATM   13  C   UNL     1     -46.500 -46.546   8.905  1.00  0.00     0.143 C 
HETATM   14  C   UNL     1     -47.161 -47.906   9.041  1.00  0.00     0.028 C 
ENDBRANCH   9  13
ENDBRANCH   1   7
BRANCH   4  15
HETATM   15  C   UNL     1     -39.533 -49.694  11.894  1.00  0.00     0.086 C 
HETATM   16  C   UNL     1     -38.025 -49.641  11.626  1.00  0.00     0.025 C 
HETATM   17  C   UNL     1     -37.407 -50.820  12.381  1.00  0.00     0.002 C 
HETATM   18  C   UNL     1     -38.524 -51.406  13.228  1.00  0.00     0.002 C 
HETATM   19  C   UNL     1     -39.776 -51.111  12.423  1.00  0.00     0.025 C 
ENDBRANCH   4  15
TORSDOF 3
ENDMDL
MODEL 2
REMARK VINA RESULT:      -5.5      1.845      2.512
REMARK  3 active torsions:
REMARK  status: ('A' for Active; 'I' for Inactive)
REMARK    1  A    between atoms: C_2  and  N_3 
REMARK    2  A    between atoms: C_5  and  N_6 
REMARK       I    between atoms: N_6  and  C_7 
REMARK       I    between atoms: C_7  and  N_9 
REMARK    3  A    between atoms: N_9  and  C_10 
ROOT
HETATM    1  N   UNL     1     -40.986 -49.200  10.643  1.00  0.00    -0.306 N 
HETATM    2  C   UNL     1     -41.165 -49.919  11.808  1.00  0.00     0.321 C 
HETATM    3  O   UNL     1     -41.829 -49.571  12.778  1.00  0.00    -0.247 OA
HETATM    4  N   UNL     1     -40.527 -51.142  11.760  1.00  0.00    -0.338 N 
HETATM    5  H   UNL     1     -40.449 -49.616   9.901  1.00  0.00     0.171 HD
HETATM    6  H   UNL     1     -39.652 -51.139  11.257  1.00  0.00     0.164 HD
ENDROOT
BRANCH   1   7
HETATM    7  C   UNL     1     -41.618 -47.996  10.374  1.00  0.00     0.070 A 
HETATM    8  C   UNL     1     -42.779 -47.796   9.670  1.00  0.00     0.141 A 
HETATM    9  N   UNL     1     -42.975 -46.448   9.616  1.00  0.00    -0.302 N 
HETATM   10  N   UNL     1     -42.034 -45.743  10.274  1.00  0.00    -0.308 N 
HETATM   11  C   UNL     1     -41.207 -46.692  10.732  1.00  0.00     0.138 A 
ATOM     12  HN  UNL     1     -41.968 -44.732  10.394  1.00  0.00     0.186 HD
BRANCH   9  13
HETATM   13  C   UNL     1     -44.050 -45.783   8.907  1.00  0.00     0.143 C 
HETATM   14  C   UNL     1     -45.346 -46.572   8.973  1.00  0.00     0.028 C 
ENDBRANCH   9  13
ENDBRANCH   1   7
BRANCH   4  15
HETATM   15  C   UNL     1     -40.608 -52.029  12.911  1.00  0.00     0.086 C 
HETATM   16  C   UNL     1     -39.299 -52.069  13.708  1.00  0.00     0.025 C 
HETATM   17  C   UNL     1     -39.088 -53.526  14.124  1.00  0.00     0.002 C 
HETATM   18  C   UNL     1     -40.365 -54.259  13.744  1.00  0.00     0.002 C 
HETATM   19  C   UNL     1     -40.872 -53.490  12.538  1.00  0.00     0.025 C 
ENDBRANCH   4  15
TORSDOF 3
ENDMDL
MODEL 3
REMARK VINA RESULT:      -5.4      3.368      4.917
REMARK  3 active torsions:
REMARK  status: ('A' for Active; 'I' for Inactive)
REMARK    1  A    between atoms: C_2  and  N_3 
REMARK    2  A    between atoms: C_5  and  N_6 
REMARK       I    between atoms: N_6  and  C_7 
REMARK       I    between atoms: C_7  and  N_9 
REMARK    3  A    between atoms: N_9  and  C_10 
ROOT
HETATM    1  N   UNL     1     -41.527 -49.871  11.165  1.00  0.00    -0.306 N 
HETATM    2  C   UNL     1     -42.376 -50.372  12.132  1.00  0.00     0.321 C 
HETATM    3  O   UNL     1     -43.103 -49.713  12.867  1.00  0.00    -0.247 OA
HETATM    4  N   UNL     1     -42.359 -51.752  12.166  1.00  0.00    -0.338 N 
HETATM    5  H   UNL     1     -41.012 -50.522  10.596  1.00  0.00     0.171 HD
HETATM    6  H   UNL     1     -41.458 -52.165  11.973  1.00  0.00     0.164 HD
ENDROOT
BRANCH   1   7
HETATM    7  C   UNL     1     -41.442 -48.529  10.832  1.00  0.00     0.070 A 
HETATM    8  C   UNL     1     -40.519 -47.612  11.271  1.00  0.00     0.141 A 
HETATM    9  N   UNL     1     -40.869 -46.414  10.724  1.00  0.00    -0.302 N 
HETATM   10  N   UNL     1     -41.946 -46.488   9.917  1.00  0.00    -0.308 N 
HETATM   11  C   UNL     1     -42.293 -47.780   9.988  1.00  0.00     0.138 A 
ATOM     12  HN  UNL     1     -42.389 -45.741   9.381  1.00  0.00     0.186 HD
BRANCH   9  13
HETATM   13  C   UNL     1     -40.208 -45.149  10.976  1.00  0.00     0.143 C 
HETATM   14  C   UNL     1     -39.299 -44.746   9.829  1.00  0.00     0.028 C 
ENDBRANCH   9  13
ENDBRANCH   1   7
BRANCH   4  15
HETATM   15  C   UNL     1     -43.195 -52.447  13.133  1.00  0.00     0.086 C 
HETATM   16  C   UNL     1     -42.372 -53.287  14.116  1.00  0.00     0.025 C 
HETATM   17  C   UNL     1     -43.145 -54.592  14.325  1.00  0.00     0.002 C 
HETATM   18  C   UNL     1     -44.483 -54.401  13.631  1.00  0.00     0.002 C 
HETATM   19  C   UNL     1     -44.164 -53.446  12.496  1.00  0.00     0.025 C 
ENDBRANCH   4  15
TORSDOF 3
ENDMDL
MODEL 4
REMARK VINA RESULT:      -5.2      4.260      5.863
REMARK  3 active torsions:
REMARK  status: ('A' for Active; 'I' for Inactive)
REMARK    1  A    between atoms: C_2  and  N_3 
REMARK    2  A    between atoms: C_5  and  N_6 
REMARK       I    between atoms: N_6  and  C_7 
REMARK       I    between atoms: C_7  and  N_9 
REMARK    3  A    between atoms: N_9  and  C_10 
ROOT
HETATM    1  N   UNL     1     -42.661 -49.910  11.834  1.00  0.00    -0.306 N 
HETATM    2  C   UNL     1     -43.347 -50.021  13.028  1.00  0.00     0.321 C 
HETATM    3  O   UNL     1     -43.281 -49.245  13.975  1.00  0.00    -0.247 OA
HETATM    4  N   UNL     1     -44.185 -51.119  13.039  1.00  0.00    -0.338 N 
HETATM    5  H   UNL     1     -42.835 -50.593  11.116  1.00  0.00     0.171 HD
HETATM    6  H   UNL     1     -43.827 -51.924  12.544  1.00  0.00     0.164 HD
ENDROOT
BRANCH   1   7
HETATM    7  C   UNL     1     -41.850 -48.835  11.507  1.00  0.00     0.070 A 
HETATM    8  C   UNL     1     -42.239 -47.576  11.123  1.00  0.00     0.141 A 
HETATM    9  N   UNL     1     -41.098 -46.882  10.850  1.00  0.00    -0.302 N 
HETATM   10  N   UNL     1     -39.974 -47.593  11.066  1.00  0.00    -0.308 N 
HETATM   11  C   UNL     1     -40.438 -48.784  11.465  1.00  0.00     0.138 A 
ATOM     12  HN  UNL     1     -39.004 -47.295  10.953  1.00  0.00     0.186 HD
BRANCH   9  13
HETATM   13  C   UNL     1     -41.040 -45.526  10.341  1.00  0.00     0.143 C 
HETATM   14  C   UNL     1     -39.611 -45.026  10.222  1.00  0.00     0.028 C 
ENDBRANCH   9  13
ENDBRANCH   1   7
BRANCH   4  15
HETATM   15  C   UNL     1     -44.981 -51.390  14.225  1.00  0.00     0.086 C 
HETATM   16  C   UNL     1     -44.698 -52.777  14.812  1.00  0.00     0.025 C 
HETATM   17  C   UNL     1     -46.047 -53.347  15.255  1.00  0.00     0.002 C 
HETATM   18  C   UNL     1     -47.048 -52.212  15.107  1.00  0.00     0.002 C 
HETATM   19  C   UNL     1     -46.490 -51.389  13.962  1.00  0.00     0.025 C 
ENDBRANCH   4  15
TORSDOF 3
ENDMDL
MODEL 5
REMARK VINA RESULT:      -5.0      4.786      7.707
REMARK  3 active torsions:
REMARK  status: ('A' for Active; 'I' for Inactive)
REMARK    1  A    between atoms: C_2  and  N_3 
REMARK    2  A    between atoms: C_5  and  N_6 
REMARK       I    between atoms: N_6  and  C_7 
REMARK       I    between atoms: C_7  and  N_9 
REMARK    3  A    between atoms: N_9  and  C_10 
ROOT
HETATM    1  N   UNL     1     -41.913 -52.715  12.114  1.00  0.00    -0.306 N 
HETATM    2  C   UNL     1     -43.111 -52.561  12.783  1.00  0.00     0.321 C 
HETATM    3  O   UNL     1     -43.264 -52.032  13.879  1.00  0.00    -0.247 OA
HETATM    4  N   UNL     1     -44.176 -53.044  12.049  1.00  0.00    -0.338 N 
HETATM    5  H   UNL     1     -41.926 -53.131  11.198  1.00  0.00     0.171 HD
HETATM    6  H   UNL     1     -43.967 -53.865  11.498  1.00  0.00     0.164 HD
ENDROOT
BRANCH   1   7
HETATM    7  C   UNL     1     -40.705 -52.207  12.565  1.00  0.00     0.070 A 
HETATM    8  C   UNL     1     -40.059 -51.074  12.137  1.00  0.00     0.141 A 
HETATM    9  N   UNL     1     -38.884 -51.012  12.825  1.00  0.00    -0.302 N 
HETATM   10  N   UNL     1     -38.729 -52.016  13.711  1.00  0.00    -0.308 N 
HETATM   11  C   UNL     1     -39.841 -52.743  13.547  1.00  0.00     0.138 A 
ATOM     12  HN  UNL     1     -37.952 -52.181  14.352  1.00  0.00     0.186 HD
BRANCH   9  13
HETATM   13  C   UNL     1     -37.852 -50.012  12.639  1.00  0.00     0.143 C 
HETATM   14  C   UNL     1     -37.384 -49.943  11.196  1.00  0.00     0.028 C 
ENDBRANCH   9  13
ENDBRANCH   1   7
BRANCH   4  15
HETATM   15  C   UNL     1     -45.516 -52.965  12.609  1.00  0.00     0.086 C 
HETATM   16  C   UNL     1     -45.950 -51.520  12.879  1.00  0.00     0.025 C 
HETATM   17  C   UNL     1     -46.703 -51.533  14.210  1.00  0.00     0.002 C 
HETATM   18  C   UNL     1     -46.869 -52.997  14.582  1.00  0.00     0.002 C 
HETATM   19  C   UNL     1     -45.654 -53.663  13.965  1.00  0.00     0.025 C 
ENDBRANCH   4  15
TORSDOF 3
ENDMDL
MODEL 6
REMARK VINA RESULT:      -4.9      3.717      5.312
REMARK  3 active torsions:
REMARK  status: ('A' for Active; 'I' for Inactive)
REMARK    1  A    between atoms: C_2  and  N_3 
REMARK    2  A    between atoms: C_5  and  N_6 
REMARK       I    between atoms: N_6  and  C_7 
REMARK       I    between atoms: C_7  and  N_9 
REMARK    3  A    between atoms: N_9  and  C_10 
ROOT
HETATM    1  N   UNL     1     -42.914 -49.523  12.119  1.00  0.00    -0.306 N 
HETATM    2  C   UNL     1     -42.483 -50.820  12.313  1.00  0.00     0.321 C 
HETATM    3  O   UNL     1     -41.371 -51.261  12.044  1.00  0.00    -0.247 OA
HETATM    4  N   UNL     1     -43.456 -51.602  12.905  1.00  0.00    -0.338 N 
HETATM    5  H   UNL     1     -43.842 -49.276  12.421  1.00  0.00     0.171 HD
HETATM    6  H   UNL     1     -44.400 -51.384  12.620  1.00  0.00     0.164 HD
ENDROOT
BRANCH   1   7
HETATM    7  C   UNL     1     -42.101 -48.500  11.658  1.00  0.00     0.070 A 
HETATM    8  C   UNL     1     -41.328 -47.643  12.401  1.00  0.00     0.141 A 
HETATM    9  N   UNL     1     -40.755 -46.773  11.522  1.00  0.00    -0.302 N 
HETATM   10  N   UNL     1     -41.070 -47.025  10.236  1.00  0.00    -0.308 N 
HETATM   11  C   UNL     1     -41.894 -48.078  10.325  1.00  0.00     0.138 A 
ATOM     12  HN  UNL     1     -40.758 -46.533   9.399  1.00  0.00     0.186 HD
BRANCH   9  13
HETATM   13  C   UNL     1     -39.911 -45.651  11.879  1.00  0.00     0.143 C 
HETATM   14  C   UNL     1     -39.670 -44.724  10.700  1.00  0.00     0.028 C 
ENDBRANCH   9  13
ENDBRANCH   1   7
BRANCH   4  15
HETATM   15  C   UNL     1     -43.170 -53.001  13.179  1.00  0.00     0.086 C 
HETATM   16  C   UNL     1     -44.378 -53.906  12.910  1.00  0.00     0.025 C 
HETATM   17  C   UNL     1     -44.403 -54.944  14.033  1.00  0.00     0.002 C 
HETATM   18  C   UNL     1     -43.109 -54.754  14.807  1.00  0.00     0.002 C 
HETATM   19  C   UNL     1     -42.807 -53.276  14.641  1.00  0.00     0.025 C 
ENDBRANCH   4  15
TORSDOF 3
ENDMDL
MODEL 7
REMARK VINA RESULT:      -4.9      3.838      6.529
REMARK  3 active torsions:
REMARK  status: ('A' for Active; 'I' for Inactive)
REMARK    1  A    between atoms: C_2  and  N_3 
REMARK    2  A    between atoms: C_5  and  N_6 
REMARK       I    between atoms: N_6  and  C_7 
REMARK       I    between atoms: C_7  and  N_9 
REMARK    3  A    between atoms: N_9  and  C_10 
ROOT
HETATM    1  N   UNL     1     -41.913 -51.485  11.706  1.00  0.00    -0.306 N 
HETATM    2  C   UNL     1     -41.843 -50.191  12.182  1.00  0.00     0.321 C 
HETATM    3  O   UNL     1     -42.043 -49.834  13.338  1.00  0.00    -0.247 OA
HETATM    4  N   UNL     1     -41.471 -49.300  11.195  1.00  0.00    -0.338 N 
HETATM    5  H   UNL     1     -41.685 -51.654  10.741  1.00  0.00     0.171 HD
HETATM    6  H   UNL     1     -41.827 -49.519  10.276  1.00  0.00     0.164 HD
ENDROOT
BRANCH   1   7
HETATM    7  C   UNL     1     -42.142 -52.592  12.508  1.00  0.00     0.070 A 
HETATM    8  C   UNL     1     -43.351 -53.086  12.932  1.00  0.00     0.141 A 
HETATM    9  N   UNL     1     -43.076 -54.145  13.744  1.00  0.00    -0.302 N 
HETATM   10  N   UNL     1     -41.759 -54.408  13.855  1.00  0.00    -0.308 N 
HETATM   11  C   UNL     1     -41.193 -53.456  13.101  1.00  0.00     0.138 A 
ATOM     12  HN  UNL     1     -41.303 -55.151  14.385  1.00  0.00     0.186 HD
BRANCH   9  13
HETATM   13  C   UNL     1     -44.058 -54.925  14.470  1.00  0.00     0.143 C 
HETATM   14  C   UNL     1     -45.374 -55.021  13.718  1.00  0.00     0.028 C 
ENDBRANCH   9  13
ENDBRANCH   1   7
BRANCH   4  15
HETATM   15  C   UNL     1     -41.353 -47.888  11.524  1.00  0.00     0.086 C 
HETATM   16  C   UNL     1     -42.059 -46.991  10.500  1.00  0.00     0.025 C 
HETATM   17  C   UNL     1     -41.155 -45.775  10.290  1.00  0.00     0.002 C 
HETATM   18  C   UNL     1     -40.055 -45.886  11.334  1.00  0.00     0.002 C 
HETATM   19  C   UNL     1     -39.908 -47.382  11.540  1.00  0.00     0.025 C 
ENDBRANCH   4  15
TORSDOF 3
ENDMDL
MODEL 8
REMARK VINA RESULT:      -4.8      2.862      4.650
REMARK  3 active torsions:
REMARK  status: ('A' for Active; 'I' for Inactive)
REMARK    1  A    between atoms: C_2  and  N_3 
REMARK    2  A    between atoms: C_5  and  N_6 
REMARK       I    between atoms: N_6  and  C_7 
REMARK       I    between atoms: C_7  and  N_9 
REMARK    3  A    between atoms: N_9  and  C_10 
ROOT
HETATM    1  N   UNL     1     -40.492 -50.956  11.081  1.00  0.00    -0.306 N 
HETATM    2  C   UNL     1     -40.752 -51.773  12.163  1.00  0.00     0.321 C 
HETATM    3  O   UNL     1     -40.928 -51.408  13.320  1.00  0.00    -0.247 OA
HETATM    4  N   UNL     1     -40.840 -53.101  11.795  1.00  0.00    -0.338 N 
HETATM    5  H   UNL     1     -40.407 -51.378  10.171  1.00  0.00     0.171 HD
HETATM    6  H   UNL     1     -40.211 -53.373  11.052  1.00  0.00     0.164 HD
ENDROOT
BRANCH   1   7
HETATM    7  C   UNL     1     -40.476 -49.572  11.145  1.00  0.00     0.070 A 
HETATM    8  C   UNL     1     -41.472 -48.703  10.774  1.00  0.00     0.141 A 
HETATM    9  N   UNL     1     -40.982 -47.445  10.961  1.00  0.00    -0.302 N 
HETATM   10  N   UNL     1     -39.735 -47.426  11.471  1.00  0.00    -0.308 N 
HETATM   11  C   UNL     1     -39.430 -48.726  11.579  1.00  0.00     0.138 A 
ATOM     12  HN  UNL     1     -39.162 -46.618  11.715  1.00  0.00     0.186 HD
BRANCH   9  13
HETATM   13  C   UNL     1     -41.675 -46.216  10.631  1.00  0.00     0.143 C 
HETATM   14  C   UNL     1     -42.846 -46.458   9.695  1.00  0.00     0.028 C 
ENDBRANCH   9  13
ENDBRANCH   1   7
BRANCH   4  15
HETATM   15  C   UNL     1     -41.105 -54.103  12.816  1.00  0.00     0.086 C 
HETATM   16  C   UNL     1     -42.526 -53.997  13.381  1.00  0.00     0.025 C 
HETATM   17  C   UNL     1     -42.415 -54.243  14.887  1.00  0.00     0.002 C 
HETATM   18  C   UNL     1     -40.982 -54.685  15.134  1.00  0.00     0.002 C 
HETATM   19  C   UNL     1     -40.197 -53.980  14.043  1.00  0.00     0.025 C 
ENDBRANCH   4  15
TORSDOF 3
ENDMDL
MODEL 9
REMARK VINA RESULT:      -4.4      5.052      7.611
REMARK  3 active torsions:
REMARK  status: ('A' for Active; 'I' for Inactive)
REMARK    1  A    between atoms: C_2  and  N_3 
REMARK    2  A    between atoms: C_5  and  N_6 
REMARK       I    between atoms: N_6  and  C_7 
REMARK       I    between atoms: C_7  and  N_9 
REMARK    3  A    between atoms: N_9  and  C_10 
ROOT
HETATM    1  N   UNL     1     -42.141 -51.463  14.309  1.00  0.00    -0.306 N 
HETATM    2  C   UNL     1     -43.338 -50.805  14.511  1.00  0.00     0.321 C 
HETATM    3  O   UNL     1     -43.711 -49.789  13.936  1.00  0.00    -0.247 OA
HETATM    4  N   UNL     1     -44.131 -51.453  15.438  1.00  0.00    -0.338 N 
HETATM    5  H   UNL     1     -41.971 -52.315  14.817  1.00  0.00     0.171 HD
HETATM    6  H   UNL     1     -43.622 -51.891  16.192  1.00  0.00     0.164 HD
ENDROOT
BRANCH   1   7
HETATM    7  C   UNL     1     -41.214 -51.101  13.345  1.00  0.00     0.070 A 
HETATM    8  C   UNL     1     -40.195 -50.188  13.461  1.00  0.00     0.141 A 
HETATM    9  N   UNL     1     -39.588 -50.125  12.243  1.00  0.00    -0.302 N 
HETATM   10  N   UNL     1     -40.118 -50.968  11.336  1.00  0.00    -0.308 N 
HETATM   11  C   UNL     1     -41.111 -51.560  12.012  1.00  0.00     0.138 A 
ATOM     12  HN  UNL     1     -39.832 -51.119  10.368  1.00  0.00     0.186 HD
BRANCH   9  13
HETATM   13  C   UNL     1     -38.501 -49.234  11.891  1.00  0.00     0.143 C 
HETATM   14  C   UNL     1     -37.373 -49.966  11.187  1.00  0.00     0.028 C 
ENDBRANCH   9  13
ENDBRANCH   1   7
BRANCH   4  15
HETATM   15  C   UNL     1     -45.429 -50.891  15.776  1.00  0.00     0.086 C 
HETATM   16  C   UNL     1     -45.582 -50.640  17.280  1.00  0.00     0.025 C 
HETATM   17  C   UNL     1     -47.012 -51.043  17.646  1.00  0.00     0.002 C 
HETATM   18  C   UNL     1     -47.717 -51.322  16.329  1.00  0.00     0.002 C 
HETATM   19  C   UNL     1     -46.603 -51.809  15.422  1.00  0.00     0.025 C 
ENDBRANCH   4  15
TORSDOF 3
ENDMDL
