MODEL 1
REMARK VINA RESULT:      -6.6      0.000      0.000
REMARK  5 active torsions:
REMARK  status: ('A' for Active; 'I' for Inactive)
REMARK    1  A    between atoms: C_2  and  C_3 
REMARK    2  A    between atoms: C_2  and  N_10 
REMARK    3  A    between atoms: C_3  and  N_4 
REMARK       I    between atoms: N_10  and  C_11 
REMARK       I    between atoms: C_11  and  N_13 
REMARK    4  A    between atoms: N_13  and  C_14 
REMARK    5  A    between atoms: C_14  and  C_15 
ROOT
HETATM    1  N   UNL     1     -41.724 -48.269   9.838  1.00  0.00    -0.337 N 
HETATM    2  C   UNL     1     -41.536 -49.005  10.974  1.00  0.00     0.316 C 
HETATM    3  O   UNL     1     -42.132 -48.791  12.022  1.00  0.00    -0.247 OA
HETATM    4  N   UNL     1     -40.610 -49.998  10.803  1.00  0.00    -0.341 N 
HETATM    5  H   UNL     1     -41.412 -48.677   8.969  1.00  0.00     0.164 HD
HETATM    6  H   UNL     1     -39.963 -49.921  10.032  1.00  0.00     0.164 HD
ENDROOT
BRANCH   1   7
HETATM    7  C   UNL     1     -42.717 -47.185   9.788  1.00  0.00     0.102 C 
HETATM    8  C   UNL     1     -42.023 -45.870  10.139  1.00  0.00     0.034 C 
BRANCH   7   9
HETATM    9  C   UNL     1     -43.435 -47.135   8.426  1.00  0.00     0.172 C 
BRANCH   9  10
HETATM   10  N   UNL     1     -44.789 -47.651   8.450  1.00  0.00    -0.302 N 
HETATM   11  C   UNL     1     -45.738 -47.429   9.411  1.00  0.00     0.111 A 
HETATM   12  C   UNL     1     -46.823 -48.200   9.064  1.00  0.00     0.037 A 
HETATM   13  C   UNL     1     -46.433 -48.849   7.879  1.00  0.00     0.108 A 
HETATM   14  N   UNL     1     -45.197 -48.516   7.499  1.00  0.00    -0.310 N 
ATOM     15  HN  UNL     1     -44.682 -48.840   6.681  1.00  0.00     0.186 HD
ENDBRANCH   9  10
ENDBRANCH   7   9
ENDBRANCH   1   7
BRANCH   4  16
HETATM   16  C   UNL     1     -40.186 -50.830  11.917  1.00  0.00     0.156 C 
BRANCH  16  17
HETATM   17  C   UNL     1     -40.835 -52.219  11.945  1.00  0.00     0.139 C 
HETATM   18  C   UNL     1     -42.262 -52.308  12.468  1.00  0.00     0.035 C 
HETATM   19  C   UNL     1     -42.329 -53.658  13.158  1.00  0.00     0.029 C 
HETATM   20  C   UNL     1     -40.947 -54.251  12.980  1.00  0.00     0.168 C 
HETATM   21  O   UNL     1     -40.077 -53.132  12.763  1.00  0.00    -0.384 OA
ENDBRANCH  16  17
ENDBRANCH   4  16
TORSDOF 5
ENDMDL
MODEL 2
REMARK VINA RESULT:      -6.1      1.874      2.672
REMARK  5 active torsions:
REMARK  status: ('A' for Active; 'I' for Inactive)
REMARK    1  A    between atoms: C_2  and  C_3 
REMARK    2  A    between atoms: C_2  and  N_10 
REMARK    3  A    between atoms: C_3  and  N_4 
REMARK       I    between atoms: N_10  and  C_11 
REMARK       I    between atoms: C_11  and  N_13 
REMARK    4  A    between atoms: N_13  and  C_14 
REMARK    5  A    between atoms: C_14  and  C_15 
ROOT
HETATM    1  N   UNL     1     -41.634 -48.187   9.806  1.00  0.00    -0.337 N 
HETATM    2  C   UNL     1     -41.443 -49.014  10.876  1.00  0.00     0.316 C 
HETATM    3  O   UNL     1     -42.179 -49.031  11.854  1.00  0.00    -0.247 OA
HETATM    4  N   UNL     1     -40.341 -49.812  10.727  1.00  0.00    -0.341 N 
HETATM    5  H   UNL     1     -41.160 -48.429   8.947  1.00  0.00     0.164 HD
HETATM    6  H   UNL     1     -39.638 -49.536  10.057  1.00  0.00     0.164 HD
ENDROOT
BRANCH   1   7
HETATM    7  C   UNL     1     -42.793 -47.284   9.737  1.00  0.00     0.102 C 
HETATM    8  C   UNL     1     -42.340 -45.877  10.120  1.00  0.00     0.034 C 
BRANCH   7   9
HETATM    9  C   UNL     1     -43.473 -47.336   8.356  1.00  0.00     0.172 C 
BRANCH   9  10
HETATM   10  N   UNL     1     -44.847 -47.795   8.388  1.00  0.00    -0.302 N 
HETATM   11  C   UNL     1     -45.777 -47.544   9.361  1.00  0.00     0.111 A 
HETATM   12  C   UNL     1     -46.896 -48.265   9.017  1.00  0.00     0.037 A 
HETATM   13  C   UNL     1     -46.546 -48.916   7.821  1.00  0.00     0.108 A 
HETATM   14  N   UNL     1     -45.301 -48.630   7.432  1.00  0.00    -0.310 N 
ATOM     15  HN  UNL     1     -44.808 -48.966   6.605  1.00  0.00     0.186 HD
ENDBRANCH   9  10
ENDBRANCH   7   9
ENDBRANCH   1   7
BRANCH   4  16
HETATM   16  C   UNL     1     -39.900 -50.692  11.796  1.00  0.00     0.156 C 
BRANCH  16  17
HETATM   17  C   UNL     1     -38.599 -50.247  12.478  1.00  0.00     0.139 C 
HETATM   18  C   UNL     1     -38.006 -51.184  13.522  1.00  0.00     0.035 C 
HETATM   19  C   UNL     1     -37.367 -50.260  14.541  1.00  0.00     0.029 C 
HETATM   20  C   UNL     1     -37.628 -48.865  14.014  1.00  0.00     0.168 C 
HETATM   21  O   UNL     1     -38.773 -48.988  13.158  1.00  0.00    -0.384 OA
ENDBRANCH  16  17
ENDBRANCH   4  16
TORSDOF 5
ENDMDL
MODEL 3
REMARK VINA RESULT:      -6.0      2.895      4.673
REMARK  5 active torsions:
REMARK  status: ('A' for Active; 'I' for Inactive)
REMARK    1  A    between atoms: C_2  and  C_3 
REMARK    2  A    between atoms: C_2  and  N_10 
REMARK    3  A    between atoms: C_3  and  N_4 
REMARK       I    between atoms: N_10  and  C_11 
REMARK       I    between atoms: C_11  and  N_13 
REMARK    4  A    between atoms: N_13  and  C_14 
REMARK    5  A    between atoms: C_14  and  C_15 
ROOT
HETATM    1  N   UNL     1     -41.842 -51.543  11.765  1.00  0.00    -0.337 N 
HETATM    2  C   UNL     1     -42.586 -52.287  12.637  1.00  0.00     0.316 C 
HETATM    3  O   UNL     1     -42.452 -52.233  13.853  1.00  0.00    -0.247 OA
HETATM    4  N   UNL     1     -43.488 -53.092  11.996  1.00  0.00    -0.341 N 
HETATM    5  H   UNL     1     -42.200 -51.441  10.826  1.00  0.00     0.164 HD
HETATM    6  H   UNL     1     -43.335 -53.299  11.020  1.00  0.00     0.164 HD
ENDROOT
BRANCH   1   7
HETATM    7  C   UNL     1     -40.851 -50.569  12.247  1.00  0.00     0.102 C 
HETATM    8  C   UNL     1     -39.600 -51.325  12.692  1.00  0.00     0.034 C 
BRANCH   7   9
HETATM    9  C   UNL     1     -40.551 -49.492  11.188  1.00  0.00     0.172 C 
BRANCH   9  10
HETATM   10  N   UNL     1     -41.684 -48.649  10.861  1.00  0.00    -0.302 N 
HETATM   11  C   UNL     1     -42.664 -48.220  11.714  1.00  0.00     0.111 A 
HETATM   12  C   UNL     1     -43.575 -47.538  10.941  1.00  0.00     0.037 A 
HETATM   13  C   UNL     1     -43.055 -47.609   9.636  1.00  0.00     0.108 A 
HETATM   14  N   UNL     1     -41.903 -48.281   9.583  1.00  0.00    -0.310 N 
ATOM     15  HN  UNL     1     -41.323 -48.471   8.765  1.00  0.00     0.186 HD
ENDBRANCH   9  10
ENDBRANCH   7   9
ENDBRANCH   1   7
BRANCH   4  16
HETATM   16  C   UNL     1     -44.305 -54.041  12.734  1.00  0.00     0.156 C 
BRANCH  16  17
HETATM   17  C   UNL     1     -45.610 -53.450  13.283  1.00  0.00     0.139 C 
HETATM   18  C   UNL     1     -46.045 -52.098  12.734  1.00  0.00     0.035 C 
HETATM   19  C   UNL     1     -46.728 -51.416  13.904  1.00  0.00     0.029 C 
HETATM   20  C   UNL     1     -46.646 -52.418  15.036  1.00  0.00     0.168 C 
HETATM   21  O   UNL     1     -45.539 -53.270  14.711  1.00  0.00    -0.384 OA
ENDBRANCH  16  17
ENDBRANCH   4  16
TORSDOF 5
ENDMDL
MODEL 4
REMARK VINA RESULT:      -5.6      1.823      3.770
REMARK  5 active torsions:
REMARK  status: ('A' for Active; 'I' for Inactive)
REMARK    1  A    between atoms: C_2  and  C_3 
REMARK    2  A    between atoms: C_2  and  N_10 
REMARK    3  A    between atoms: C_3  and  N_4 
REMARK       I    between atoms: N_10  and  C_11 
REMARK       I    between atoms: C_11  and  N_13 
REMARK    4  A    between atoms: N_13  and  C_14 
REMARK    5  A    between atoms: C_14  and  C_15 
ROOT
HETATM    1  N   UNL     1     -42.640 -48.502  10.334  1.00  0.00    -0.337 N 
HETATM    2  C   UNL     1     -41.535 -48.941  11.007  1.00  0.00     0.316 C 
HETATM    3  O   UNL     1     -40.482 -48.317  11.053  1.00  0.00    -0.247 OA
HETATM    4  N   UNL     1     -41.741 -50.149  11.615  1.00  0.00    -0.341 N 
HETATM    5  H   UNL     1     -43.524 -48.926  10.575  1.00  0.00     0.164 HD
HETATM    6  H   UNL     1     -42.506 -50.723  11.291  1.00  0.00     0.164 HD
ENDROOT
BRANCH   1   7
HETATM    7  C   UNL     1     -42.651 -47.198   9.655  1.00  0.00     0.102 C 
HETATM    8  C   UNL     1     -43.753 -47.207   8.597  1.00  0.00     0.034 C 
BRANCH   7   9
HETATM    9  C   UNL     1     -42.794 -46.036  10.655  1.00  0.00     0.172 C 
BRANCH   9  10
HETATM   10  N   UNL     1     -41.628 -45.180  10.742  1.00  0.00    -0.302 N 
HETATM   11  C   UNL     1     -41.554 -43.945  11.327  1.00  0.00     0.111 A 
HETATM   12  C   UNL     1     -40.287 -43.475  11.072  1.00  0.00     0.037 A 
HETATM   13  C   UNL     1     -39.671 -44.498  10.330  1.00  0.00     0.108 A 
HETATM   14  N   UNL     1     -40.481 -45.539  10.129  1.00  0.00    -0.310 N 
ATOM     15  HN  UNL     1     -40.280 -46.405   9.629  1.00  0.00     0.186 HD
ENDBRANCH   9  10
ENDBRANCH   7   9
ENDBRANCH   1   7
BRANCH   4  16
HETATM   16  C   UNL     1     -40.661 -50.842  12.297  1.00  0.00     0.156 C 
BRANCH  16  17
HETATM   17  C   UNL     1     -40.817 -52.368  12.330  1.00  0.00     0.139 C 
HETATM   18  C   UNL     1     -42.155 -52.919  12.803  1.00  0.00     0.035 C 
HETATM   19  C   UNL     1     -41.802 -54.209  13.518  1.00  0.00     0.029 C 
HETATM   20  C   UNL     1     -40.296 -54.315  13.402  1.00  0.00     0.168 C 
HETATM   21  O   UNL     1     -39.835 -52.973  13.194  1.00  0.00    -0.384 OA
ENDBRANCH  16  17
ENDBRANCH   4  16
TORSDOF 5
ENDMDL
MODEL 5
REMARK VINA RESULT:      -5.6      2.636      7.043
REMARK  5 active torsions:
REMARK  status: ('A' for Active; 'I' for Inactive)
REMARK    1  A    between atoms: C_2  and  C_3 
REMARK    2  A    between atoms: C_2  and  N_10 
REMARK    3  A    between atoms: C_3  and  N_4 
REMARK       I    between atoms: N_10  and  C_11 
REMARK       I    between atoms: C_11  and  N_13 
REMARK    4  A    between atoms: N_13  and  C_14 
REMARK    5  A    between atoms: C_14  and  C_15 
ROOT
HETATM    1  N   UNL     1     -41.193 -49.339  10.523  1.00  0.00    -0.337 N 
HETATM    2  C   UNL     1     -41.915 -48.179  10.506  1.00  0.00     0.316 C 
HETATM    3  O   UNL     1     -42.101 -47.487  11.499  1.00  0.00    -0.247 OA
HETATM    4  N   UNL     1     -42.401 -47.886   9.261  1.00  0.00    -0.341 N 
HETATM    5  H   UNL     1     -40.861 -49.687   9.635  1.00  0.00     0.164 HD
HETATM    6  H   UNL     1     -42.461 -48.632   8.584  1.00  0.00     0.164 HD
ENDROOT
BRANCH   1   7
HETATM    7  C   UNL     1     -40.536 -49.810  11.751  1.00  0.00     0.102 C 
HETATM    8  C   UNL     1     -40.797 -51.307  11.902  1.00  0.00     0.034 C 
BRANCH   7   9
HETATM    9  C   UNL     1     -39.035 -49.463  11.761  1.00  0.00     0.172 C 
BRANCH   9  10
HETATM   10  N   UNL     1     -38.616 -48.673  12.901  1.00  0.00    -0.302 N 
HETATM   11  C   UNL     1     -39.095 -47.446  13.274  1.00  0.00     0.111 A 
HETATM   12  C   UNL     1     -38.331 -47.046  14.345  1.00  0.00     0.037 A 
HETATM   13  C   UNL     1     -37.420 -48.099  14.546  1.00  0.00     0.108 A 
HETATM   14  N   UNL     1     -37.591 -49.093  13.672  1.00  0.00    -0.310 N 
ATOM     15  HN  UNL     1     -37.069 -49.966  13.603  1.00  0.00     0.186 HD
ENDBRANCH   9  10
ENDBRANCH   7   9
ENDBRANCH   1   7
BRANCH   4  16
HETATM   16  C   UNL     1     -43.281 -46.750   9.045  1.00  0.00     0.156 C 
BRANCH  16  17
HETATM   17  C   UNL     1     -44.665 -47.124   8.498  1.00  0.00     0.139 C 
HETATM   18  C   UNL     1     -45.767 -47.385   9.515  1.00  0.00     0.035 C 
HETATM   19  C   UNL     1     -46.624 -48.463   8.877  1.00  0.00     0.029 C 
HETATM   20  C   UNL     1     -45.964 -48.741   7.544  1.00  0.00     0.168 C 
HETATM   21  O   UNL     1     -44.601 -48.321   7.697  1.00  0.00    -0.384 OA
ENDBRANCH  16  17
ENDBRANCH   4  16
TORSDOF 5
ENDMDL
MODEL 6
REMARK VINA RESULT:      -5.4      1.869      2.301
REMARK  5 active torsions:
REMARK  status: ('A' for Active; 'I' for Inactive)
REMARK    1  A    between atoms: C_2  and  C_3 
REMARK    2  A    between atoms: C_2  and  N_10 
REMARK    3  A    between atoms: C_3  and  N_4 
REMARK       I    between atoms: N_10  and  C_11 
REMARK       I    between atoms: C_11  and  N_13 
REMARK    4  A    between atoms: N_13  and  C_14 
REMARK    5  A    between atoms: C_14  and  C_15 
ROOT
HETATM    1  N   UNL     1     -40.508 -47.090  10.616  1.00  0.00    -0.337 N 
HETATM    2  C   UNL     1     -40.172 -48.003  11.575  1.00  0.00     0.316 C 
HETATM    3  O   UNL     1     -39.888 -47.696  12.726  1.00  0.00    -0.247 OA
HETATM    4  N   UNL     1     -40.190 -49.286  11.102  1.00  0.00    -0.341 N 
HETATM    5  H   UNL     1     -40.987 -47.438   9.798  1.00  0.00     0.164 HD
HETATM    6  H   UNL     1     -40.139 -49.429  10.104  1.00  0.00     0.164 HD
ENDROOT
BRANCH   1   7
HETATM    7  C   UNL     1     -40.603 -45.656  10.927  1.00  0.00     0.102 C 
HETATM    8  C   UNL     1     -39.662 -44.891   9.998  1.00  0.00     0.034 C 
BRANCH   7   9
HETATM    9  C   UNL     1     -42.056 -45.152  10.849  1.00  0.00     0.172 C 
BRANCH   9  10
HETATM   10  N   UNL     1     -42.966 -46.066  10.190  1.00  0.00    -0.302 N 
HETATM   11  C   UNL     1     -43.251 -46.123   8.852  1.00  0.00     0.111 A 
HETATM   12  C   UNL     1     -44.241 -47.068   8.710  1.00  0.00     0.037 A 
HETATM   13  C   UNL     1     -44.484 -47.527  10.017  1.00  0.00     0.108 A 
HETATM   14  N   UNL     1     -43.709 -46.923  10.921  1.00  0.00    -0.310 N 
ATOM     15  HN  UNL     1     -43.684 -47.074  11.929  1.00  0.00     0.186 HD
ENDBRANCH   9  10
ENDBRANCH   7   9
ENDBRANCH   1   7
BRANCH   4  16
HETATM   16  C   UNL     1     -39.764 -50.400  11.933  1.00  0.00     0.156 C 
BRANCH  16  17
HETATM   17  C   UNL     1     -40.724 -51.597  11.919  1.00  0.00     0.139 C 
HETATM   18  C   UNL     1     -42.068 -51.418  12.613  1.00  0.00     0.035 C 
HETATM   19  C   UNL     1     -42.386 -52.788  13.180  1.00  0.00     0.029 C 
HETATM   20  C   UNL     1     -41.215 -53.656  12.771  1.00  0.00     0.168 C 
HETATM   21  O   UNL     1     -40.128 -52.749  12.545  1.00  0.00    -0.384 OA
ENDBRANCH  16  17
ENDBRANCH   4  16
TORSDOF 5
ENDMDL
MODEL 7
REMARK VINA RESULT:      -5.3      2.367      6.825
REMARK  5 active torsions:
REMARK  status: ('A' for Active; 'I' for Inactive)
REMARK    1  A    between atoms: C_2  and  C_3 
REMARK    2  A    between atoms: C_2  and  N_10 
REMARK    3  A    between atoms: C_3  and  N_4 
REMARK       I    between atoms: N_10  and  C_11 
REMARK       I    between atoms: C_11  and  N_13 
REMARK    4  A    between atoms: N_13  and  C_14 
REMARK    5  A    between atoms: C_14  and  C_15 
ROOT
HETATM    1  N   UNL     1     -41.407 -50.963  12.273  1.00  0.00    -0.337 N 
HETATM    2  C   UNL     1     -40.976 -49.896  11.537  1.00  0.00     0.316 C 
HETATM    3  O   UNL     1     -39.793 -49.655  11.330  1.00  0.00    -0.247 OA
HETATM    4  N   UNL     1     -42.012 -49.136  11.066  1.00  0.00    -0.341 N 
HETATM    5  H   UNL     1     -42.372 -51.239  12.161  1.00  0.00     0.164 HD
HETATM    6  H   UNL     1     -42.911 -49.221  11.516  1.00  0.00     0.164 HD
ENDROOT
BRANCH   1   7
HETATM    7  C   UNL     1     -40.459 -51.940  12.828  1.00  0.00     0.102 C 
HETATM    8  C   UNL     1     -40.309 -51.680  14.326  1.00  0.00     0.034 C 
BRANCH   7   9
HETATM    9  C   UNL     1     -40.883 -53.386  12.514  1.00  0.00     0.172 C 
BRANCH   9  10
HETATM   10  N   UNL     1     -42.198 -53.740  13.009  1.00  0.00    -0.302 N 
HETATM   11  C   UNL     1     -42.494 -54.352  14.197  1.00  0.00     0.111 A 
HETATM   12  C   UNL     1     -43.850 -54.578  14.186  1.00  0.00     0.037 A 
HETATM   13  C   UNL     1     -44.285 -54.066  12.951  1.00  0.00     0.108 A 
HETATM   14  N   UNL     1     -43.284 -53.552  12.233  1.00  0.00    -0.310 N 
ATOM     15  HN  UNL     1     -43.330 -53.117  11.311  1.00  0.00     0.186 HD
ENDBRANCH   9  10
ENDBRANCH   7   9
ENDBRANCH   1   7
BRANCH   4  16
HETATM   16  C   UNL     1     -41.768 -47.896  10.347  1.00  0.00     0.156 C 
BRANCH  16  17
HETATM   17  C   UNL     1     -42.998 -46.987  10.230  1.00  0.00     0.139 C 
HETATM   18  C   UNL     1     -44.321 -47.651   9.872  1.00  0.00     0.035 C 
HETATM   19  C   UNL     1     -45.050 -46.615   9.038  1.00  0.00     0.029 C 
HETATM   20  C   UNL     1     -44.107 -45.433   8.979  1.00  0.00     0.168 C 
HETATM   21  O   UNL     1     -42.802 -45.974   9.225  1.00  0.00    -0.384 OA
ENDBRANCH  16  17
ENDBRANCH   4  16
TORSDOF 5
ENDMDL
MODEL 8
REMARK VINA RESULT:      -5.3      3.630      4.931
REMARK  5 active torsions:
REMARK  status: ('A' for Active; 'I' for Inactive)
REMARK    1  A    between atoms: C_2  and  C_3 
REMARK    2  A    between atoms: C_2  and  N_10 
REMARK    3  A    between atoms: C_3  and  N_4 
REMARK       I    between atoms: N_10  and  C_11 
REMARK       I    between atoms: C_11  and  N_13 
REMARK    4  A    between atoms: N_13  and  C_14 
REMARK    5  A    between atoms: C_14  and  C_15 
ROOT
HETATM    1  N   UNL     1     -40.497 -50.986  11.495  1.00  0.00    -0.337 N 
HETATM    2  C   UNL     1     -40.906 -51.791  12.520  1.00  0.00     0.316 C 
HETATM    3  O   UNL     1     -40.803 -51.483  13.700  1.00  0.00    -0.247 OA
HETATM    4  N   UNL     1     -41.436 -52.972  12.075  1.00  0.00    -0.341 N 
HETATM    5  H   UNL     1     -40.865 -51.189  10.576  1.00  0.00     0.164 HD
HETATM    6  H   UNL     1     -41.216 -53.271  11.137  1.00  0.00     0.164 HD
ENDROOT
BRANCH   1   7
HETATM    7  C   UNL     1     -39.946 -49.647  11.750  1.00  0.00     0.102 C 
HETATM    8  C   UNL     1     -38.468 -49.645  11.365  1.00  0.00     0.034 C 
BRANCH   7   9
HETATM    9  C   UNL     1     -40.752 -48.553  11.025  1.00  0.00     0.172 C 
BRANCH   9  10
HETATM   10  N   UNL     1     -40.330 -47.202  11.334  1.00  0.00    -0.302 N 
HETATM   11  C   UNL     1     -40.257 -46.625  12.573  1.00  0.00     0.111 A 
HETATM   12  C   UNL     1     -39.910 -45.311  12.365  1.00  0.00     0.037 A 
HETATM   13  C   UNL     1     -39.794 -45.191  10.968  1.00  0.00     0.108 A 
HETATM   14  N   UNL     1     -40.045 -46.340  10.337  1.00  0.00    -0.310 N 
ATOM     15  HN  UNL     1     -40.026 -46.523   9.333  1.00  0.00     0.186 HD
ENDBRANCH   9  10
ENDBRANCH   7   9
ENDBRANCH   1   7
BRANCH   4  16
HETATM   16  C   UNL     1     -41.837 -54.014  13.006  1.00  0.00     0.156 C 
BRANCH  16  17
HETATM   17  C   UNL     1     -43.251 -53.837  13.575  1.00  0.00     0.139 C 
HETATM   18  C   UNL     1     -43.841 -55.010  14.345  1.00  0.00     0.035 C 
HETATM   19  C   UNL     1     -45.327 -54.952  14.041  1.00  0.00     0.029 C 
HETATM   20  C   UNL     1     -45.488 -53.755  13.130  1.00  0.00     0.168 C 
HETATM   21  O   UNL     1     -44.201 -53.557  12.529  1.00  0.00    -0.384 OA
ENDBRANCH  16  17
ENDBRANCH   4  16
TORSDOF 5
ENDMDL
MODEL 9
REMARK VINA RESULT:      -5.3      3.685      5.693
REMARK  5 active torsions:
REMARK  status: ('A' for Active; 'I' for Inactive)
REMARK    1  A    between atoms: C_2  and  C_3 
REMARK    2  A    between atoms: C_2  and  N_10 
REMARK    3  A    between atoms: C_3  and  N_4 
REMARK       I    between atoms: N_10  and  C_11 
REMARK       I    between atoms: C_11  and  N_13 
REMARK    4  A    between atoms: N_13  and  C_14 
REMARK    5  A    between atoms: C_14  and  C_15 
ROOT
HETATM    1  N   UNL     1     -42.560 -52.385  12.768  1.00  0.00    -0.337 N 
HETATM    2  C   UNL     1     -41.438 -52.024  12.076  1.00  0.00     0.316 C 
HETATM    3  O   UNL     1     -40.572 -52.820  11.736  1.00  0.00    -0.247 OA
HETATM    4  N   UNL     1     -41.398 -50.682  11.813  1.00  0.00    -0.341 N 
HETATM    5  H   UNL     1     -43.333 -51.735  12.761  1.00  0.00     0.164 HD
HETATM    6  H   UNL     1     -41.975 -50.068  12.368  1.00  0.00     0.164 HD
ENDROOT
BRANCH   1   7
HETATM    7  C   UNL     1     -42.828 -53.790  13.107  1.00  0.00     0.102 C 
HETATM    8  C   UNL     1     -42.333 -54.053  14.528  1.00  0.00     0.034 C 
BRANCH   7   9
HETATM    9  C   UNL     1     -44.314 -54.147  12.918  1.00  0.00     0.172 C 
BRANCH   9  10
HETATM   10  N   UNL     1     -45.221 -53.032  13.102  1.00  0.00    -0.302 N 
HETATM   11  C   UNL     1     -45.671 -52.523  14.290  1.00  0.00     0.111 A 
HETATM   12  C   UNL     1     -46.585 -51.547  13.969  1.00  0.00     0.037 A 
HETATM   13  C   UNL     1     -46.616 -51.539  12.563  1.00  0.00     0.108 A 
HETATM   14  N   UNL     1     -45.786 -52.438  12.031  1.00  0.00    -0.310 N 
ATOM     15  HN  UNL     1     -45.618 -52.631  11.043  1.00  0.00     0.186 HD
ENDBRANCH   9  10
ENDBRANCH   7   9
ENDBRANCH   1   7
BRANCH   4  16
HETATM   16  C   UNL     1     -40.240 -50.075  11.177  1.00  0.00     0.156 C 
BRANCH  16  17
HETATM   17  C   UNL     1     -39.164 -49.596  12.161  1.00  0.00     0.139 C 
HETATM   18  C   UNL     1     -37.945 -50.490  12.346  1.00  0.00     0.035 C 
HETATM   19  C   UNL     1     -37.557 -50.304  13.801  1.00  0.00     0.029 C 
HETATM   20  C   UNL     1     -38.568 -49.318  14.346  1.00  0.00     0.168 C 
HETATM   21  O   UNL     1     -39.709 -49.424  13.484  1.00  0.00    -0.384 OA
ENDBRANCH  16  17
ENDBRANCH   4  16
TORSDOF 5
ENDMDL
