MODEL 1
REMARK VINA RESULT:      -6.2      0.000      0.000
REMARK  4 active torsions:
REMARK  status: ('A' for Active; 'I' for Inactive)
REMARK    1  A    between atoms: C_2  and  C_4 
REMARK    2  A    between atoms: C_4  and  N_5 
REMARK       I    between atoms: N_5  and  C_6 
REMARK       I    between atoms: C_6  and  N_8 
REMARK    3  A    between atoms: N_8  and  C_9 
REMARK    4  A    between atoms: C_15  and  N_16 
ROOT
HETATM    1  C   UNL     1     -39.513 -50.219  11.527  1.00  0.00     0.080 A 
HETATM    2  C   UNL     1     -38.259 -49.585  11.442  1.00  0.00     0.035 A 
HETATM    3  C   UNL     1     -37.249 -49.905  12.334  1.00  0.00     0.019 A 
HETATM    4  C   UNL     1     -37.523 -50.863  13.281  1.00  0.00     0.090 A 
HETATM    5  N   UNL     1     -38.716 -51.491  13.391  1.00  0.00    -0.351 N 
ATOM      6  HN  UNL     1     -38.859 -52.183  14.126  1.00  0.00     0.166 HD
HETATM    7  C   UNL     1     -39.725 -51.201  12.525  1.00  0.00     0.130 A 
ENDROOT
BRANCH   1   8
HETATM    8  N   UNL     1     -40.541 -49.776  10.668  1.00  0.00    -0.306 N 
HETATM    9  C   UNL     1     -41.398 -48.735  10.956  1.00  0.00     0.320 C 
HETATM   10  N   UNL     1     -42.249 -48.474   9.907  1.00  0.00    -0.343 N 
HETATM   11  O   UNL     1     -41.413 -48.088  11.995  1.00  0.00    -0.247 OA
HETATM   12  H   UNL     1     -41.989 -48.824   8.997  1.00  0.00     0.164 HD
HETATM   13  H   UNL     1     -40.464 -50.055   9.709  1.00  0.00     0.171 HD
BRANCH  10  14
HETATM   14  C   UNL     1     -43.115 -47.310   9.960  1.00  0.00     0.128 C 
BRANCH  14  15
HETATM   15  C   UNL     1     -43.964 -47.136   8.695  1.00  0.00    -0.005 C 
HETATM   16  C   UNL     1     -43.454 -48.001   7.545  1.00  0.00     0.011 C 
HETATM   17  C   UNL     1     -45.423 -47.483   9.000  1.00  0.00     0.011 C 
ENDBRANCH  14  15
ENDBRANCH  10  14
ENDBRANCH   1   8
BRANCH   7  18
HETATM   18  N   UNL     1     -40.884 -51.935  12.691  1.00  0.00    -0.365 N 
HETATM   19  C   UNL     1     -41.083 -53.356  12.445  1.00  0.00     0.124 C 
HETATM   20  C   UNL     1     -42.387 -53.717  13.151  1.00  0.00     0.021 C 
HETATM   21  C   UNL     1     -42.543 -52.655  14.219  1.00  0.00     0.021 C 
HETATM   22  C   UNL     1     -41.916 -51.415  13.594  1.00  0.00     0.124 C 
ENDBRANCH   7  18
TORSDOF 4
ENDMDL
MODEL 2
REMARK VINA RESULT:      -6.0      2.961      5.363
REMARK  4 active torsions:
REMARK  status: ('A' for Active; 'I' for Inactive)
REMARK    1  A    between atoms: C_2  and  C_4 
REMARK    2  A    between atoms: C_4  and  N_5 
REMARK       I    between atoms: N_5  and  C_6 
REMARK       I    between atoms: C_6  and  N_8 
REMARK    3  A    between atoms: N_8  and  C_9 
REMARK    4  A    between atoms: C_15  and  N_16 
ROOT
HETATM    1  C   UNL     1     -43.148 -53.141  12.717  1.00  0.00     0.080 A 
HETATM    2  C   UNL     1     -44.526 -53.107  12.438  1.00  0.00     0.035 A 
HETATM    3  C   UNL     1     -45.414 -53.860  13.189  1.00  0.00     0.019 A 
HETATM    4  C   UNL     1     -44.890 -54.621  14.208  1.00  0.00     0.090 A 
HETATM    5  N   UNL     1     -43.572 -54.677  14.503  1.00  0.00    -0.351 N 
ATOM      6  HN  UNL     1     -43.247 -55.273  15.264  1.00  0.00     0.166 HD
HETATM    7  C   UNL     1     -42.678 -53.942  13.787  1.00  0.00     0.130 A 
ENDROOT
BRANCH   1   8
HETATM    8  N   UNL     1     -42.277 -52.444  11.852  1.00  0.00    -0.306 N 
HETATM    9  C   UNL     1     -41.664 -51.250  12.167  1.00  0.00     0.320 C 
HETATM   10  N   UNL     1     -40.811 -50.839  11.167  1.00  0.00    -0.343 N 
HETATM   11  O   UNL     1     -41.817 -50.619  13.205  1.00  0.00    -0.247 OA
HETATM   12  H   UNL     1     -40.505 -51.532  10.501  1.00  0.00     0.164 HD
HETATM   13  H   UNL     1     -41.887 -52.975  11.098  1.00  0.00     0.171 HD
BRANCH  10  14
HETATM   14  C   UNL     1     -39.955 -49.688  11.386  1.00  0.00     0.128 C 
BRANCH  14  15
HETATM   15  C   UNL     1     -38.643 -50.043  12.097  1.00  0.00    -0.005 C 
HETATM   16  C   UNL     1     -37.450 -49.992  11.146  1.00  0.00     0.011 C 
HETATM   17  C   UNL     1     -38.416 -49.087  13.269  1.00  0.00     0.011 C 
ENDBRANCH  14  15
ENDBRANCH  10  14
ENDBRANCH   1   8
BRANCH   7  18
HETATM   18  N   UNL     1     -41.362 -54.031  14.201  1.00  0.00    -0.365 N 
HETATM   19  C   UNL     1     -40.216 -54.500  13.436  1.00  0.00     0.124 C 
HETATM   20  C   UNL     1     -38.986 -54.025  14.204  1.00  0.00     0.021 C 
HETATM   21  C   UNL     1     -39.481 -52.845  15.013  1.00  0.00     0.021 C 
HETATM   22  C   UNL     1     -40.929 -53.203  15.330  1.00  0.00     0.124 C 
ENDBRANCH   7  18
TORSDOF 4
ENDMDL
MODEL 3
REMARK VINA RESULT:      -5.9      2.466      4.994
REMARK  4 active torsions:
REMARK  status: ('A' for Active; 'I' for Inactive)
REMARK    1  A    between atoms: C_2  and  C_4 
REMARK    2  A    between atoms: C_4  and  N_5 
REMARK       I    between atoms: N_5  and  C_6 
REMARK       I    between atoms: C_6  and  N_8 
REMARK    3  A    between atoms: N_8  and  C_9 
REMARK    4  A    between atoms: C_15  and  N_16 
ROOT
HETATM    1  C   UNL     1     -41.722 -48.464  11.199  1.00  0.00     0.080 A 
HETATM    2  C   UNL     1     -42.469 -47.449  10.574  1.00  0.00     0.035 A 
HETATM    3  C   UNL     1     -41.883 -46.230  10.274  1.00  0.00     0.019 A 
HETATM    4  C   UNL     1     -40.557 -46.069  10.603  1.00  0.00     0.090 A 
HETATM    5  N   UNL     1     -39.811 -47.023  11.204  1.00  0.00    -0.351 N 
ATOM      6  HN  UNL     1     -38.836 -46.836  11.434  1.00  0.00     0.166 HD
HETATM    7  C   UNL     1     -40.358 -48.233  11.503  1.00  0.00     0.130 A 
ENDROOT
BRANCH   1   8
HETATM    8  N   UNL     1     -42.396 -49.644  11.583  1.00  0.00    -0.306 N 
HETATM    9  C   UNL     1     -43.041 -49.811  12.789  1.00  0.00     0.320 C 
HETATM   10  N   UNL     1     -43.674 -51.031  12.861  1.00  0.00    -0.343 N 
HETATM   11  O   UNL     1     -43.085 -48.989  13.696  1.00  0.00    -0.247 OA
HETATM   12  H   UNL     1     -43.854 -51.515  11.995  1.00  0.00     0.164 HD
HETATM   13  H   UNL     1     -42.637 -50.273  10.842  1.00  0.00     0.171 HD
BRANCH  10  14
HETATM   14  C   UNL     1     -44.540 -51.322  13.989  1.00  0.00     0.128 C 
BRANCH  14  15
HETATM   15  C   UNL     1     -46.030 -51.244  13.637  1.00  0.00    -0.005 C 
HETATM   16  C   UNL     1     -46.398 -52.203  12.508  1.00  0.00     0.011 C 
HETATM   17  C   UNL     1     -46.871 -51.551  14.877  1.00  0.00     0.011 C 
ENDBRANCH  14  15
ENDBRANCH  10  14
ENDBRANCH   1   8
BRANCH   7  18
HETATM   18  N   UNL     1     -39.498 -49.155  12.069  1.00  0.00    -0.365 N 
HETATM   19  C   UNL     1     -38.402 -49.864  11.425  1.00  0.00     0.124 C 
HETATM   20  C   UNL     1     -37.554 -50.431  12.561  1.00  0.00     0.021 C 
HETATM   21  C   UNL     1     -37.871 -49.543  13.745  1.00  0.00     0.021 C 
HETATM   22  C   UNL     1     -39.327 -49.148  13.525  1.00  0.00     0.124 C 
ENDBRANCH   7  18
TORSDOF 4
ENDMDL
MODEL 4
REMARK VINA RESULT:      -5.9      2.360      3.816
REMARK  4 active torsions:
REMARK  status: ('A' for Active; 'I' for Inactive)
REMARK    1  A    between atoms: C_2  and  C_4 
REMARK    2  A    between atoms: C_4  and  N_5 
REMARK       I    between atoms: N_5  and  C_6 
REMARK       I    between atoms: C_6  and  N_8 
REMARK    3  A    between atoms: N_8  and  C_9 
REMARK    4  A    between atoms: C_15  and  N_16 
ROOT
HETATM    1  C   UNL     1     -42.010 -52.513  12.673  1.00  0.00     0.080 A 
HETATM    2  C   UNL     1     -40.831 -53.253  12.873  1.00  0.00     0.035 A 
HETATM    3  C   UNL     1     -40.772 -54.229  13.854  1.00  0.00     0.019 A 
HETATM    4  C   UNL     1     -41.907 -54.442  14.601  1.00  0.00     0.090 A 
HETATM    5  N   UNL     1     -43.056 -53.749  14.436  1.00  0.00    -0.351 N 
ATOM      6  HN  UNL     1     -43.859 -53.946  15.033  1.00  0.00     0.166 HD
HETATM    7  C   UNL     1     -43.145 -52.789  13.475  1.00  0.00     0.130 A 
ENDROOT
BRANCH   1   8
HETATM    8  N   UNL     1     -41.981 -51.455  11.739  1.00  0.00    -0.306 N 
HETATM    9  C   UNL     1     -41.677 -50.148  12.055  1.00  0.00     0.320 C 
HETATM   10  N   UNL     1     -41.650 -49.349  10.936  1.00  0.00    -0.343 N 
HETATM   11  O   UNL     1     -41.434 -49.723  13.177  1.00  0.00    -0.247 OA
HETATM   12  H   UNL     1     -41.557 -49.803  10.040  1.00  0.00     0.164 HD
HETATM   13  H   UNL     1     -41.916 -51.721  10.776  1.00  0.00     0.171 HD
BRANCH  10  14
HETATM   14  C   UNL     1     -41.191 -47.976  11.048  1.00  0.00     0.128 C 
BRANCH  14  15
HETATM   15  C   UNL     1     -42.327 -46.953  10.937  1.00  0.00    -0.005 C 
HETATM   16  C   UNL     1     -43.501 -47.493  10.125  1.00  0.00     0.011 C 
HETATM   17  C   UNL     1     -42.801 -46.553  12.335  1.00  0.00     0.011 C 
ENDBRANCH  14  15
ENDBRANCH  10  14
ENDBRANCH   1   8
BRANCH   7  18
HETATM   18  N   UNL     1     -44.378 -52.176  13.355  1.00  0.00    -0.365 N 
HETATM   19  C   UNL     1     -45.545 -52.656  12.629  1.00  0.00     0.124 C 
HETATM   20  C   UNL     1     -46.718 -51.824  13.141  1.00  0.00     0.021 C 
HETATM   21  C   UNL     1     -46.273 -51.347  14.506  1.00  0.00     0.021 C 
HETATM   22  C   UNL     1     -44.764 -51.182  14.361  1.00  0.00     0.124 C 
ENDBRANCH   7  18
TORSDOF 4
ENDMDL
MODEL 5
REMARK VINA RESULT:      -5.8      2.022      5.458
REMARK  4 active torsions:
REMARK  status: ('A' for Active; 'I' for Inactive)
REMARK    1  A    between atoms: C_2  and  C_4 
REMARK    2  A    between atoms: C_4  and  N_5 
REMARK       I    between atoms: N_5  and  C_6 
REMARK       I    between atoms: C_6  and  N_8 
REMARK    3  A    between atoms: N_8  and  C_9 
REMARK    4  A    between atoms: C_15  and  N_16 
ROOT
HETATM    1  C   UNL     1     -40.883 -48.869  11.068  1.00  0.00     0.080 A 
HETATM    2  C   UNL     1     -41.822 -48.037  10.431  1.00  0.00     0.035 A 
HETATM    3  C   UNL     1     -41.687 -46.659  10.479  1.00  0.00     0.019 A 
HETATM    4  C   UNL     1     -40.602 -46.155  11.158  1.00  0.00     0.090 A 
HETATM    5  N   UNL     1     -39.682 -46.925  11.781  1.00  0.00    -0.351 N 
ATOM      6  HN  UNL     1     -38.907 -46.488  12.279  1.00  0.00     0.166 HD
HETATM    7  C   UNL     1     -39.786 -48.282  11.745  1.00  0.00     0.130 A 
ENDROOT
BRANCH   1   8
HETATM    8  N   UNL     1     -41.129 -50.259  11.085  1.00  0.00    -0.306 N 
HETATM    9  C   UNL     1     -41.826 -50.911  12.079  1.00  0.00     0.320 C 
HETATM   10  N   UNL     1     -41.979 -52.249  11.797  1.00  0.00    -0.343 N 
HETATM   11  O   UNL     1     -42.287 -50.392  13.088  1.00  0.00    -0.247 OA
HETATM   12  H   UNL     1     -41.853 -52.542  10.840  1.00  0.00     0.164 HD
HETATM   13  H   UNL     1     -41.024 -50.734  10.210  1.00  0.00     0.171 HD
BRANCH  10  14
HETATM   14  C   UNL     1     -42.824 -53.068  12.647  1.00  0.00     0.128 C 
BRANCH  14  15
HETATM   15  C   UNL     1     -42.087 -54.274  13.242  1.00  0.00    -0.005 C 
HETATM   16  C   UNL     1     -40.583 -54.028  13.341  1.00  0.00     0.011 C 
HETATM   17  C   UNL     1     -42.654 -54.596  14.625  1.00  0.00     0.011 C 
ENDBRANCH  14  15
ENDBRANCH  10  14
ENDBRANCH   1   8
BRANCH   7  18
HETATM   18  N   UNL     1     -38.766 -48.977  12.368  1.00  0.00    -0.365 N 
HETATM   19  C   UNL     1     -38.755 -49.522  13.718  1.00  0.00     0.124 C 
HETATM   20  C   UNL     1     -37.590 -50.507  13.753  1.00  0.00     0.021 C 
HETATM   21  C   UNL     1     -37.381 -50.896  12.305  1.00  0.00     0.021 C 
HETATM   22  C   UNL     1     -37.760 -49.637  11.532  1.00  0.00     0.124 C 
ENDBRANCH   7  18
TORSDOF 4
ENDMDL
MODEL 6
REMARK VINA RESULT:      -5.8      2.372      6.985
REMARK  4 active torsions:
REMARK  status: ('A' for Active; 'I' for Inactive)
REMARK    1  A    between atoms: C_2  and  C_4 
REMARK    2  A    between atoms: C_4  and  N_5 
REMARK       I    between atoms: N_5  and  C_6 
REMARK       I    between atoms: C_6  and  N_8 
REMARK    3  A    between atoms: N_8  and  C_9 
REMARK    4  A    between atoms: C_15  and  N_16 
ROOT
HETATM    1  C   UNL     1     -42.522 -47.385   9.538  1.00  0.00     0.080 A 
HETATM    2  C   UNL     1     -43.648 -47.727   8.766  1.00  0.00     0.035 A 
HETATM    3  C   UNL     1     -44.687 -46.825   8.602  1.00  0.00     0.019 A 
HETATM    4  C   UNL     1     -44.560 -45.598   9.211  1.00  0.00     0.090 A 
HETATM    5  N   UNL     1     -43.493 -45.238   9.959  1.00  0.00    -0.351 N 
ATOM      6  HN  UNL     1     -43.467 -44.317  10.396  1.00  0.00     0.166 HD
HETATM    7  C   UNL     1     -42.455 -46.101  10.132  1.00  0.00     0.130 A 
ENDROOT
BRANCH   1   8
HETATM    8  N   UNL     1     -41.546 -48.379   9.766  1.00  0.00    -0.306 N 
HETATM    9  C   UNL     1     -41.387 -49.051  10.959  1.00  0.00     0.320 C 
HETATM   10  N   UNL     1     -40.411 -50.016  10.871  1.00  0.00    -0.343 N 
HETATM   11  O   UNL     1     -42.033 -48.855  11.981  1.00  0.00    -0.247 OA
HETATM   12  H   UNL     1     -40.143 -50.327   9.949  1.00  0.00     0.164 HD
HETATM   13  H   UNL     1     -41.140 -48.791   8.949  1.00  0.00     0.171 HD
BRANCH  10  14
HETATM   14  C   UNL     1     -40.211 -50.935  11.977  1.00  0.00     0.128 C 
BRANCH  14  15
HETATM   15  C   UNL     1     -38.956 -50.620  12.799  1.00  0.00    -0.005 C 
HETATM   16  C   UNL     1     -38.607 -51.754  13.760  1.00  0.00     0.011 C 
HETATM   17  C   UNL     1     -37.778 -50.349  11.862  1.00  0.00     0.011 C 
ENDBRANCH  14  15
ENDBRANCH  10  14
ENDBRANCH   1   8
BRANCH   7  18
HETATM   18  N   UNL     1     -41.392 -45.617  10.871  1.00  0.00    -0.365 N 
HETATM   19  C   UNL     1     -40.120 -45.109  10.377  1.00  0.00     0.124 C 
HETATM   20  C   UNL     1     -39.495 -44.355  11.548  1.00  0.00     0.021 C 
HETATM   21  C   UNL     1     -40.671 -43.982  12.425  1.00  0.00     0.021 C 
HETATM   22  C   UNL     1     -41.650 -45.135  12.232  1.00  0.00     0.124 C 
ENDBRANCH   7  18
TORSDOF 4
ENDMDL
MODEL 7
REMARK VINA RESULT:      -5.3      2.983      5.752
REMARK  4 active torsions:
REMARK  status: ('A' for Active; 'I' for Inactive)
REMARK    1  A    between atoms: C_2  and  C_4 
REMARK    2  A    between atoms: C_4  and  N_5 
REMARK       I    between atoms: N_5  and  C_6 
REMARK       I    between atoms: C_6  and  N_8 
REMARK    3  A    between atoms: N_8  and  C_9 
REMARK    4  A    between atoms: C_15  and  N_16 
ROOT
HETATM    1  C   UNL     1     -44.202 -51.927  13.365  1.00  0.00     0.080 A 
HETATM    2  C   UNL     1     -45.414 -51.252  13.127  1.00  0.00     0.035 A 
HETATM    3  C   UNL     1     -46.528 -51.513  13.909  1.00  0.00     0.019 A 
HETATM    4  C   UNL     1     -46.388 -52.439  14.916  1.00  0.00     0.090 A 
HETATM    5  N   UNL     1     -45.240 -53.105  15.171  1.00  0.00    -0.351 N 
ATOM      6  HN  UNL     1     -45.207 -53.790  15.925  1.00  0.00     0.166 HD
HETATM    7  C   UNL     1     -44.128 -52.864  14.424  1.00  0.00     0.130 A 
ENDROOT
BRANCH   1   8
HETATM    8  N   UNL     1     -43.133 -51.707  12.470  1.00  0.00    -0.306 N 
HETATM    9  C   UNL     1     -42.209 -50.692  12.600  1.00  0.00     0.320 C 
HETATM   10  N   UNL     1     -41.236 -50.764  11.629  1.00  0.00    -0.343 N 
HETATM   11  O   UNL     1     -42.210 -49.831  13.471  1.00  0.00    -0.247 OA
HETATM   12  H   UNL     1     -41.121 -51.644  11.148  1.00  0.00     0.164 HD
HETATM   13  H   UNL     1     -42.888 -52.478  11.880  1.00  0.00     0.171 HD
BRANCH  10  14
HETATM   14  C   UNL     1     -40.089 -49.878  11.698  1.00  0.00     0.128 C 
BRANCH  14  15
HETATM   15  C   UNL     1     -38.794 -50.603  12.081  1.00  0.00    -0.005 C 
HETATM   16  C   UNL     1     -37.572 -49.973  11.417  1.00  0.00     0.011 C 
HETATM   17  C   UNL     1     -38.624 -50.591  13.602  1.00  0.00     0.011 C 
ENDBRANCH  14  15
ENDBRANCH  10  14
ENDBRANCH   1   8
BRANCH   7  18
HETATM   18  N   UNL     1     -42.993 -53.559  14.799  1.00  0.00    -0.365 N 
HETATM   19  C   UNL     1     -41.856 -53.064  15.562  1.00  0.00     0.124 C 
HETATM   20  C   UNL     1     -41.101 -54.307  16.026  1.00  0.00     0.021 C 
HETATM   21  C   UNL     1     -42.140 -55.407  16.007  1.00  0.00     0.021 C 
HETATM   22  C   UNL     1     -43.057 -55.023  14.852  1.00  0.00     0.124 C 
ENDBRANCH   7  18
TORSDOF 4
ENDMDL
MODEL 8
REMARK VINA RESULT:      -5.2      2.727      5.070
REMARK  4 active torsions:
REMARK  status: ('A' for Active; 'I' for Inactive)
REMARK    1  A    between atoms: C_2  and  C_4 
REMARK    2  A    between atoms: C_4  and  N_5 
REMARK       I    between atoms: N_5  and  C_6 
REMARK       I    between atoms: C_6  and  N_8 
REMARK    3  A    between atoms: N_8  and  C_9 
REMARK    4  A    between atoms: C_15  and  N_16 
ROOT
HETATM    1  C   UNL     1     -44.822 -51.702  13.871  1.00  0.00     0.080 A 
HETATM    2  C   UNL     1     -46.117 -51.236  14.163  1.00  0.00     0.035 A 
HETATM    3  C   UNL     1     -46.884 -51.857  15.136  1.00  0.00     0.019 A 
HETATM    4  C   UNL     1     -46.323 -52.925  15.795  1.00  0.00     0.090 A 
HETATM    5  N   UNL     1     -45.083 -53.399  15.539  1.00  0.00    -0.351 N 
ATOM      6  HN  UNL     1     -44.730 -54.204  16.055  1.00  0.00     0.166 HD
HETATM    7  C   UNL     1     -44.304 -52.804  14.594  1.00  0.00     0.130 A 
ENDROOT
BRANCH   1   8
HETATM    8  N   UNL     1     -44.128 -51.105  12.796  1.00  0.00    -0.306 N 
HETATM    9  C   UNL     1     -43.255 -50.047  12.929  1.00  0.00     0.320 C 
HETATM   10  N   UNL     1     -42.666 -49.722  11.729  1.00  0.00    -0.343 N 
HETATM   11  O   UNL     1     -42.995 -49.461  13.973  1.00  0.00    -0.247 OA
HETATM   12  H   UNL     1     -42.687 -50.415  10.996  1.00  0.00     0.164 HD
HETATM   13  H   UNL     1     -44.068 -51.648  11.957  1.00  0.00     0.171 HD
BRANCH  10  14
HETATM   14  C   UNL     1     -41.598 -48.739  11.698  1.00  0.00     0.128 C 
BRANCH  14  15
HETATM   15  C   UNL     1     -41.674 -47.809  10.482  1.00  0.00    -0.005 C 
HETATM   16  C   UNL     1     -43.117 -47.528  10.070  1.00  0.00     0.011 C 
HETATM   17  C   UNL     1     -40.955 -46.495  10.790  1.00  0.00     0.011 C 
ENDBRANCH  14  15
ENDBRANCH  10  14
ENDBRANCH   1   8
BRANCH   7  18
HETATM   18  N   UNL     1     -43.035 -53.332  14.446  1.00  0.00    -0.365 N 
HETATM   19  C   UNL     1     -42.532 -54.147  13.350  1.00  0.00     0.124 C 
HETATM   20  C   UNL     1     -41.011 -54.119  13.482  1.00  0.00     0.021 C 
HETATM   21  C   UNL     1     -40.724 -52.852  14.258  1.00  0.00     0.021 C 
HETATM   22  C   UNL     1     -41.930 -52.709  15.181  1.00  0.00     0.124 C 
ENDBRANCH   7  18
TORSDOF 4
ENDMDL
MODEL 9
REMARK VINA RESULT:      -5.2      2.059      5.268
REMARK  4 active torsions:
REMARK  status: ('A' for Active; 'I' for Inactive)
REMARK    1  A    between atoms: C_2  and  C_4 
REMARK    2  A    between atoms: C_4  and  N_5 
REMARK       I    between atoms: N_5  and  C_6 
REMARK       I    between atoms: C_6  and  N_8 
REMARK    3  A    between atoms: N_8  and  C_9 
REMARK    4  A    between atoms: C_15  and  N_16 
ROOT
HETATM    1  C   UNL     1     -39.911 -50.463  12.757  1.00  0.00     0.080 A 
HETATM    2  C   UNL     1     -38.741 -51.217  12.963  1.00  0.00     0.035 A 
HETATM    3  C   UNL     1     -37.535 -50.805  12.421  1.00  0.00     0.019 A 
HETATM    4  C   UNL     1     -37.537 -49.637  11.694  1.00  0.00     0.090 A 
HETATM    5  N   UNL     1     -38.642 -48.889  11.477  1.00  0.00    -0.351 N 
ATOM      6  HN  UNL     1     -38.578 -48.040  10.916  1.00  0.00     0.166 HD
HETATM    7  C   UNL     1     -39.839 -49.267  12.003  1.00  0.00     0.130 A 
ENDROOT
BRANCH   1   8
HETATM    8  N   UNL     1     -41.132 -50.986  13.235  1.00  0.00    -0.306 N 
HETATM    9  C   UNL     1     -41.891 -51.920  12.564  1.00  0.00     0.320 C 
HETATM   10  N   UNL     1     -42.989 -52.304  13.300  1.00  0.00    -0.343 N 
HETATM   11  O   UNL     1     -41.639 -52.389  11.461  1.00  0.00    -0.247 OA
HETATM   12  H   UNL     1     -42.974 -52.121  14.292  1.00  0.00     0.164 HD
HETATM   13  H   UNL     1     -41.306 -50.871  14.215  1.00  0.00     0.171 HD
BRANCH  10  14
HETATM   14  C   UNL     1     -43.820 -53.398  12.828  1.00  0.00     0.128 C 
BRANCH  14  15
HETATM   15  C   UNL     1     -43.903 -54.560  13.825  1.00  0.00    -0.005 C 
HETATM   16  C   UNL     1     -43.455 -54.142  15.223  1.00  0.00     0.011 C 
HETATM   17  C   UNL     1     -45.335 -55.096  13.875  1.00  0.00     0.011 C 
ENDBRANCH  14  15
ENDBRANCH  10  14
ENDBRANCH   1   8
BRANCH   7  18
HETATM   18  N   UNL     1     -40.894 -48.406  11.765  1.00  0.00    -0.365 N 
HETATM   19  C   UNL     1     -41.908 -48.505  10.725  1.00  0.00     0.124 C 
HETATM   20  C   UNL     1     -43.027 -47.559  11.150  1.00  0.00     0.021 C 
HETATM   21  C   UNL     1     -42.862 -47.431  12.650  1.00  0.00     0.021 C 
HETATM   22  C   UNL     1     -41.357 -47.550  12.862  1.00  0.00     0.124 C 
ENDBRANCH   7  18
TORSDOF 4
ENDMDL
