MODEL 1
REMARK VINA RESULT:      -6.0      0.000      0.000
REMARK  7 active torsions:
REMARK  status: ('A' for Active; 'I' for Inactive)
REMARK    1  A    between atoms: C_2  and  C_3 
REMARK    2  A    between atoms: C_3  and  O_4 
REMARK    3  A    between atoms: C_3  and  C_10 
REMARK    4  A    between atoms: O_4  and  C_5 
REMARK       I    between atoms: C_10  and  N_12 
REMARK    5  A    between atoms: N_12  and  C_13 
REMARK    6  A    between atoms: C_13  and  C_14 
REMARK    7  A    between atoms: C_14  and  C_15 
ROOT
HETATM    1  C   UNL     1     -41.475 -52.149  12.244  1.00  0.00     0.246 C 
HETATM    2  O   UNL     1     -40.415 -52.765  12.128  1.00  0.00    -0.271 OA
HETATM    3  N   UNL     1     -41.651 -50.876  11.741  1.00  0.00    -0.359 N 
HETATM    4  H   UNL     1     -42.474 -50.376  12.062  1.00  0.00     0.162 HD
ENDROOT
BRANCH   1   5
HETATM    5  C   UNL     1     -42.694 -52.720  12.985  1.00  0.00     0.213 C 
BRANCH   5   6
HETATM    6  C   UNL     1     -42.363 -54.154  13.441  1.00  0.00     0.037 C 
HETATM    7  C   UNL     1     -43.160 -54.643  14.634  1.00  0.00     0.008 C 
ENDBRANCH   5   6
BRANCH   5   8
HETATM    8  O   UNL     1     -43.213 -51.858  14.004  1.00  0.00    -0.371 OA
BRANCH   8   9
HETATM    9  C   UNL     1     -44.513 -51.318  13.797  1.00  0.00     0.122 C 
HETATM   10  C   UNL     1     -45.316 -51.347  15.104  1.00  0.00     0.032 C 
HETATM   11  C   UNL     1     -46.791 -51.435  14.690  1.00  0.00     0.002 C 
HETATM   12  C   UNL     1     -46.794 -51.607  13.177  1.00  0.00     0.002 C 
HETATM   13  C   UNL     1     -45.410 -52.135  12.873  1.00  0.00     0.032 C 
ENDBRANCH   8   9
ENDBRANCH   5   8
ENDBRANCH   1   5
BRANCH   3  14
HETATM   14  C   UNL     1     -40.528 -50.117  11.216  1.00  0.00     0.127 C 
BRANCH  14  15
HETATM   15  C   UNL     1     -40.359 -48.716  11.821  1.00  0.00     0.061 C 
BRANCH  15  16
HETATM   16  C   UNL     1     -41.048 -47.672  11.014  1.00  0.00    -0.023 A 
HETATM   17  C   UNL     1     -40.614 -46.347  10.769  1.00  0.00     0.115 A 
HETATM   18  N   UNL     1     -41.438 -45.685   9.955  1.00  0.00    -0.310 N 
HETATM   19  N   UNL     1     -42.403 -46.577   9.689  1.00  0.00    -0.308 N 
ATOM     20  HN  UNL     1     -41.353 -44.726   9.615  1.00  0.00     0.186 HD
HETATM   21  C   UNL     1     -43.489 -46.236   8.803  1.00  0.00     0.177 C 
HETATM   22  C   UNL     1     -42.221 -47.780  10.303  1.00  0.00     0.118 A 
ENDBRANCH  15  16
ENDBRANCH  14  15
ENDBRANCH   3  14
TORSDOF 7
ENDMDL
MODEL 2
REMARK VINA RESULT:      -5.9      2.019      3.372
REMARK  7 active torsions:
REMARK  status: ('A' for Active; 'I' for Inactive)
REMARK    1  A    between atoms: C_2  and  C_3 
REMARK    2  A    between atoms: C_3  and  O_4 
REMARK    3  A    between atoms: C_3  and  C_10 
REMARK    4  A    between atoms: O_4  and  C_5 
REMARK       I    between atoms: C_10  and  N_12 
REMARK    5  A    between atoms: N_12  and  C_13 
REMARK    6  A    between atoms: C_13  and  C_14 
REMARK    7  A    between atoms: C_14  and  C_15 
ROOT
HETATM    1  C   UNL     1     -41.551 -50.544  11.987  1.00  0.00     0.246 C 
HETATM    2  O   UNL     1     -40.347 -50.784  11.907  1.00  0.00    -0.271 OA
HETATM    3  N   UNL     1     -42.132 -49.455  11.367  1.00  0.00    -0.359 N 
HETATM    4  H   UNL     1     -43.077 -49.226  11.655  1.00  0.00     0.162 HD
ENDROOT
BRANCH   1   5
HETATM    5  C   UNL     1     -42.522 -51.408  12.806  1.00  0.00     0.213 C 
BRANCH   5   6
HETATM    6  C   UNL     1     -43.726 -50.539  13.216  1.00  0.00     0.037 C 
HETATM    7  C   UNL     1     -43.963 -50.443  14.710  1.00  0.00     0.008 C 
ENDBRANCH   5   6
BRANCH   5   8
HETATM    8  O   UNL     1     -42.850 -52.658  12.190  1.00  0.00    -0.371 OA
BRANCH   8   9
HETATM    9  C   UNL     1     -42.739 -53.827  12.996  1.00  0.00     0.122 C 
HETATM   10  C   UNL     1     -44.122 -54.251  13.510  1.00  0.00     0.032 C 
HETATM   11  C   UNL     1     -43.871 -54.991  14.830  1.00  0.00     0.002 C 
HETATM   12  C   UNL     1     -42.383 -54.843  15.119  1.00  0.00     0.002 C 
HETATM   13  C   UNL     1     -41.976 -53.637  14.302  1.00  0.00     0.032 C 
ENDBRANCH   8   9
ENDBRANCH   5   8
ENDBRANCH   1   5
BRANCH   3  14
HETATM   14  C   UNL     1     -41.316 -48.424  10.747  1.00  0.00     0.127 C 
BRANCH  14  15
HETATM   15  C   UNL     1     -42.075 -47.143  10.370  1.00  0.00     0.061 C 
BRANCH  15  16
HETATM   16  C   UNL     1     -43.303 -47.434   9.581  1.00  0.00    -0.023 A 
HETATM   17  C   UNL     1     -43.383 -47.793   8.215  1.00  0.00     0.115 A 
HETATM   18  N   UNL     1     -44.636 -48.041   7.827  1.00  0.00    -0.310 N 
HETATM   19  N   UNL     1     -45.357 -47.828   8.938  1.00  0.00    -0.308 N 
ATOM     20  HN  UNL     1     -44.966 -48.326   6.904  1.00  0.00     0.186 HD
HETATM   21  C   UNL     1     -46.787 -48.022   8.928  1.00  0.00     0.177 C 
HETATM   22  C   UNL     1     -44.609 -47.456  10.014  1.00  0.00     0.118 A 
ENDBRANCH  15  16
ENDBRANCH  14  15
ENDBRANCH   3  14
TORSDOF 7
ENDMDL
MODEL 3
REMARK VINA RESULT:      -5.9      1.813      2.295
REMARK  7 active torsions:
REMARK  status: ('A' for Active; 'I' for Inactive)
REMARK    1  A    between atoms: C_2  and  C_3 
REMARK    2  A    between atoms: C_3  and  O_4 
REMARK    3  A    between atoms: C_3  and  C_10 
REMARK    4  A    between atoms: O_4  and  C_5 
REMARK       I    between atoms: C_10  and  N_12 
REMARK    5  A    between atoms: N_12  and  C_13 
REMARK    6  A    between atoms: C_13  and  C_14 
REMARK    7  A    between atoms: C_14  and  C_15 
ROOT
HETATM    1  C   UNL     1     -42.128 -51.131  12.763  1.00  0.00     0.246 C 
HETATM    2  O   UNL     1     -41.614 -50.767  13.821  1.00  0.00    -0.271 OA
HETATM    3  N   UNL     1     -42.350 -50.265  11.711  1.00  0.00    -0.359 N 
HETATM    4  H   UNL     1     -42.957 -50.603  10.972  1.00  0.00     0.162 HD
ENDROOT
BRANCH   1   5
HETATM    5  C   UNL     1     -42.602 -52.572  12.518  1.00  0.00     0.213 C 
BRANCH   5   6
HETATM    6  C   UNL     1     -41.930 -53.492  13.555  1.00  0.00     0.037 C 
HETATM    7  C   UNL     1     -40.634 -54.130  13.095  1.00  0.00     0.008 C 
ENDBRANCH   5   6
BRANCH   5   8
HETATM    8  O   UNL     1     -44.023 -52.708  12.409  1.00  0.00    -0.371 OA
BRANCH   8   9
HETATM    9  C   UNL     1     -44.796 -52.374  13.557  1.00  0.00     0.122 C 
HETATM   10  C   UNL     1     -45.655 -53.572  13.985  1.00  0.00     0.032 C 
HETATM   11  C   UNL     1     -46.881 -52.978  14.691  1.00  0.00     0.002 C 
HETATM   12  C   UNL     1     -46.778 -51.469  14.518  1.00  0.00     0.002 C 
HETATM   13  C   UNL     1     -45.861 -51.306  13.327  1.00  0.00     0.032 C 
ENDBRANCH   8   9
ENDBRANCH   5   8
ENDBRANCH   1   5
BRANCH   3  14
HETATM   14  C   UNL     1     -42.165 -48.832  11.870  1.00  0.00     0.127 C 
BRANCH  14  15
HETATM   15  C   UNL     1     -41.833 -48.078  10.574  1.00  0.00     0.061 C 
BRANCH  15  16
HETATM   16  C   UNL     1     -43.053 -47.783   9.773  1.00  0.00    -0.023 A 
HETATM   17  C   UNL     1     -43.175 -47.775   8.363  1.00  0.00     0.115 A 
HETATM   18  N   UNL     1     -44.423 -47.526   7.962  1.00  0.00    -0.310 N 
HETATM   19  N   UNL     1     -45.095 -47.360   9.111  1.00  0.00    -0.308 N 
ATOM     20  HN  UNL     1     -44.781 -47.473   7.007  1.00  0.00     0.186 HD
HETATM   21  C   UNL     1     -46.513 -47.092   9.095  1.00  0.00     0.177 C 
HETATM   22  C   UNL     1     -44.321 -47.497  10.223  1.00  0.00     0.118 A 
ENDBRANCH  15  16
ENDBRANCH  14  15
ENDBRANCH   3  14
TORSDOF 7
ENDMDL
MODEL 4
REMARK VINA RESULT:      -5.5      1.353      2.058
REMARK  7 active torsions:
REMARK  status: ('A' for Active; 'I' for Inactive)
REMARK    1  A    between atoms: C_2  and  C_3 
REMARK    2  A    between atoms: C_3  and  O_4 
REMARK    3  A    between atoms: C_3  and  C_10 
REMARK    4  A    between atoms: O_4  and  C_5 
REMARK       I    between atoms: C_10  and  N_12 
REMARK    5  A    between atoms: N_12  and  C_13 
REMARK    6  A    between atoms: C_13  and  C_14 
REMARK    7  A    between atoms: C_14  and  C_15 
ROOT
HETATM    1  C   UNL     1     -41.194 -51.871  12.232  1.00  0.00     0.246 C 
HETATM    2  O   UNL     1     -40.006 -52.151  12.398  1.00  0.00    -0.271 OA
HETATM    3  N   UNL     1     -41.599 -50.733  11.563  1.00  0.00    -0.359 N 
HETATM    4  H   UNL     1     -42.579 -50.483  11.655  1.00  0.00     0.162 HD
ENDROOT
BRANCH   1   5
HETATM    5  C   UNL     1     -42.340 -52.738  12.775  1.00  0.00     0.213 C 
BRANCH   5   6
HETATM    6  C   UNL     1     -41.772 -54.121  13.148  1.00  0.00     0.037 C 
HETATM    7  C   UNL     1     -41.913 -54.493  14.611  1.00  0.00     0.008 C 
ENDBRANCH   5   6
BRANCH   5   8
HETATM    8  O   UNL     1     -43.121 -52.102  13.792  1.00  0.00    -0.371 OA
BRANCH   8   9
HETATM    9  C   UNL     1     -44.394 -51.593  13.409  1.00  0.00     0.122 C 
HETATM   10  C   UNL     1     -45.229 -51.259  14.653  1.00  0.00     0.032 C 
HETATM   11  C   UNL     1     -46.695 -51.406  14.226  1.00  0.00     0.002 C 
HETATM   12  C   UNL     1     -46.668 -51.963  12.809  1.00  0.00     0.002 C 
HETATM   13  C   UNL     1     -45.298 -52.593  12.697  1.00  0.00     0.032 C 
ENDBRANCH   8   9
ENDBRANCH   5   8
ENDBRANCH   1   5
BRANCH   3  14
HETATM   14  C   UNL     1     -40.643 -49.703  11.190  1.00  0.00     0.127 C 
BRANCH  14  15
HETATM   15  C   UNL     1     -41.269 -48.408  10.655  1.00  0.00     0.061 C 
BRANCH  15  16
HETATM   16  C   UNL     1     -40.623 -47.197  11.232  1.00  0.00    -0.023 A 
HETATM   17  C   UNL     1     -40.604 -45.890  10.688  1.00  0.00     0.115 A 
HETATM   18  N   UNL     1     -39.986 -45.016  11.485  1.00  0.00    -0.310 N 
HETATM   19  N   UNL     1     -39.598 -45.764  12.530  1.00  0.00    -0.308 N 
ATOM     20  HN  UNL     1     -39.843 -44.017  11.336  1.00  0.00     0.186 HD
HETATM   21  C   UNL     1     -38.903 -45.160  13.641  1.00  0.00     0.177 C 
HETATM   22  C   UNL     1     -39.949 -47.076  12.425  1.00  0.00     0.118 A 
ENDBRANCH  15  16
ENDBRANCH  14  15
ENDBRANCH   3  14
TORSDOF 7
ENDMDL
MODEL 5
REMARK VINA RESULT:      -5.4      2.238      3.818
REMARK  7 active torsions:
REMARK  status: ('A' for Active; 'I' for Inactive)
REMARK    1  A    between atoms: C_2  and  C_3 
REMARK    2  A    between atoms: C_3  and  O_4 
REMARK    3  A    between atoms: C_3  and  C_10 
REMARK    4  A    between atoms: O_4  and  C_5 
REMARK       I    between atoms: C_10  and  N_12 
REMARK    5  A    between atoms: N_12  and  C_13 
REMARK    6  A    between atoms: C_13  and  C_14 
REMARK    7  A    between atoms: C_14  and  C_15 
ROOT
HETATM    1  C   UNL     1     -41.595 -52.009  12.212  1.00  0.00     0.246 C 
HETATM    2  O   UNL     1     -40.629 -52.702  11.892  1.00  0.00    -0.271 OA
HETATM    3  N   UNL     1     -41.748 -50.707  11.782  1.00  0.00    -0.359 N 
HETATM    4  H   UNL     1     -42.457 -50.157  12.257  1.00  0.00     0.162 HD
ENDROOT
BRANCH   1   5
HETATM    5  C   UNL     1     -42.709 -52.512  13.144  1.00  0.00     0.213 C 
BRANCH   5   6
HETATM    6  C   UNL     1     -42.277 -53.866  13.738  1.00  0.00     0.037 C 
HETATM    7  C   UNL     1     -43.381 -54.636  14.436  1.00  0.00     0.008 C 
ENDBRANCH   5   6
BRANCH   5   8
HETATM    8  O   UNL     1     -43.154 -51.540  14.096  1.00  0.00    -0.371 OA
BRANCH   8   9
HETATM    9  C   UNL     1     -44.498 -51.084  13.978  1.00  0.00     0.122 C 
HETATM   10  C   UNL     1     -45.246 -51.285  15.303  1.00  0.00     0.032 C 
HETATM   11  C   UNL     1     -46.725 -51.449  14.929  1.00  0.00     0.002 C 
HETATM   12  C   UNL     1     -46.773 -51.493  13.408  1.00  0.00     0.002 C 
HETATM   13  C   UNL     1     -45.366 -51.886  13.015  1.00  0.00     0.032 C 
ENDBRANCH   8   9
ENDBRANCH   5   8
ENDBRANCH   1   5
BRANCH   3  14
HETATM   14  C   UNL     1     -40.675 -50.018  11.084  1.00  0.00     0.127 C 
BRANCH  14  15
HETATM   15  C   UNL     1     -39.941 -48.959  11.918  1.00  0.00     0.061 C 
BRANCH  15  16
HETATM   16  C   UNL     1     -38.863 -49.555  12.754  1.00  0.00    -0.023 A 
HETATM   17  C   UNL     1     -37.932 -50.552  12.376  1.00  0.00     0.115 A 
HETATM   18  N   UNL     1     -37.058 -50.826  13.346  1.00  0.00    -0.310 N 
HETATM   19  N   UNL     1     -37.436 -50.017  14.348  1.00  0.00    -0.308 N 
ATOM     20  HN  UNL     1     -36.285 -51.492  13.330  1.00  0.00     0.186 HD
HETATM   21  C   UNL     1     -36.704 -50.003  15.590  1.00  0.00     0.177 C 
HETATM   22  C   UNL     1     -38.515 -49.241  14.048  1.00  0.00     0.118 A 
ENDBRANCH  15  16
ENDBRANCH  14  15
ENDBRANCH   3  14
TORSDOF 7
ENDMDL
MODEL 6
REMARK VINA RESULT:      -5.2      3.660      5.786
REMARK  7 active torsions:
REMARK  status: ('A' for Active; 'I' for Inactive)
REMARK    1  A    between atoms: C_2  and  C_3 
REMARK    2  A    between atoms: C_3  and  O_4 
REMARK    3  A    between atoms: C_3  and  C_10 
REMARK    4  A    between atoms: O_4  and  C_5 
REMARK       I    between atoms: C_10  and  N_12 
REMARK    5  A    between atoms: N_12  and  C_13 
REMARK    6  A    between atoms: C_13  and  C_14 
REMARK    7  A    between atoms: C_14  and  C_15 
ROOT
HETATM    1  C   UNL     1     -45.316 -53.848  15.587  1.00  0.00     0.246 C 
HETATM    2  O   UNL     1     -45.447 -54.461  16.646  1.00  0.00    -0.271 OA
HETATM    3  N   UNL     1     -44.324 -54.149  14.675  1.00  0.00    -0.359 N 
HETATM    4  H   UNL     1     -44.167 -53.468  13.940  1.00  0.00     0.162 HD
ENDROOT
BRANCH   1   5
HETATM    5  C   UNL     1     -46.218 -52.670  15.187  1.00  0.00     0.213 C 
BRANCH   5   6
HETATM    6  C   UNL     1     -46.504 -52.764  13.676  1.00  0.00     0.037 C 
HETATM    7  C   UNL     1     -46.271 -51.481  12.903  1.00  0.00     0.008 C 
ENDBRANCH   5   6
BRANCH   5   8
HETATM    8  O   UNL     1     -47.371 -52.511  16.020  1.00  0.00    -0.371 OA
BRANCH   8   9
HETATM    9  C   UNL     1     -47.581 -51.227  16.598  1.00  0.00     0.122 C 
HETATM   10  C   UNL     1     -46.238 -50.597  16.993  1.00  0.00     0.032 C 
HETATM   11  C   UNL     1     -46.547 -49.648  18.159  1.00  0.00     0.002 C 
HETATM   12  C   UNL     1     -48.013 -49.868  18.504  1.00  0.00     0.002 C 
HETATM   13  C   UNL     1     -48.316 -51.235  17.934  1.00  0.00     0.032 C 
ENDBRANCH   8   9
ENDBRANCH   5   8
ENDBRANCH   1   5
BRANCH   3  14
HETATM   14  C   UNL     1     -43.259 -55.082  15.009  1.00  0.00     0.127 C 
BRANCH  14  15
HETATM   15  C   UNL     1     -41.874 -54.442  15.181  1.00  0.00     0.061 C 
BRANCH  15  16
HETATM   16  C   UNL     1     -41.446 -53.702  13.962  1.00  0.00    -0.023 A 
HETATM   17  C   UNL     1     -41.123 -54.244  12.695  1.00  0.00     0.115 A 
HETATM   18  N   UNL     1     -40.831 -53.300  11.798  1.00  0.00    -0.310 N 
HETATM   19  N   UNL     1     -40.955 -52.158  12.491  1.00  0.00    -0.308 N 
ATOM     20  HN  UNL     1     -40.576 -53.419  10.817  1.00  0.00     0.186 HD
HETATM   21  C   UNL     1     -40.740 -50.886  11.846  1.00  0.00     0.177 C 
HETATM   22  C   UNL     1     -41.315 -52.343  13.792  1.00  0.00     0.118 A 
ENDBRANCH  15  16
ENDBRANCH  14  15
ENDBRANCH   3  14
TORSDOF 7
ENDMDL
MODEL 7
REMARK VINA RESULT:      -5.1      3.267      7.066
REMARK  7 active torsions:
REMARK  status: ('A' for Active; 'I' for Inactive)
REMARK    1  A    between atoms: C_2  and  C_3 
REMARK    2  A    between atoms: C_3  and  O_4 
REMARK    3  A    between atoms: C_3  and  C_10 
REMARK    4  A    between atoms: O_4  and  C_5 
REMARK       I    between atoms: C_10  and  N_12 
REMARK    5  A    between atoms: N_12  and  C_13 
REMARK    6  A    between atoms: C_13  and  C_14 
REMARK    7  A    between atoms: C_14  and  C_15 
ROOT
HETATM    1  C   UNL     1     -43.857 -53.067  12.502  1.00  0.00     0.246 C 
HETATM    2  O   UNL     1     -44.334 -54.201  12.455  1.00  0.00    -0.271 OA
HETATM    3  N   UNL     1     -44.635 -51.944  12.702  1.00  0.00    -0.359 N 
HETATM    4  H   UNL     1     -44.190 -51.050  12.521  1.00  0.00     0.162 HD
ENDROOT
BRANCH   1   5
HETATM    5  C   UNL     1     -42.359 -52.783  12.312  1.00  0.00     0.213 C 
BRANCH   5   6
HETATM    6  C   UNL     1     -42.026 -51.438  12.984  1.00  0.00     0.037 C 
HETATM    7  C   UNL     1     -41.392 -50.409  12.069  1.00  0.00     0.008 C 
ENDBRANCH   5   6
BRANCH   5   8
HETATM    8  O   UNL     1     -41.509 -53.876  12.676  1.00  0.00    -0.371 OA
BRANCH   8   9
HETATM    9  C   UNL     1     -40.865 -53.804  13.943  1.00  0.00     0.122 C 
HETATM   10  C   UNL     1     -39.477 -54.454  13.872  1.00  0.00     0.032 C 
HETATM   11  C   UNL     1     -39.175 -54.955  15.291  1.00  0.00     0.002 C 
HETATM   12  C   UNL     1     -40.444 -54.721  16.100  1.00  0.00     0.002 C 
HETATM   13  C   UNL     1     -41.526 -54.621  15.048  1.00  0.00     0.032 C 
ENDBRANCH   8   9
ENDBRANCH   5   8
ENDBRANCH   1   5
BRANCH   3  14
HETATM   14  C   UNL     1     -46.087 -52.024  12.673  1.00  0.00     0.127 C 
BRANCH  14  15
HETATM   15  C   UNL     1     -46.788 -51.438  13.907  1.00  0.00     0.061 C 
BRANCH  15  16
HETATM   16  C   UNL     1     -46.404 -52.149  15.157  1.00  0.00    -0.023 A 
HETATM   17  C   UNL     1     -46.364 -53.547  15.375  1.00  0.00     0.115 A 
HETATM   18  N   UNL     1     -45.920 -53.859  16.595  1.00  0.00    -0.310 N 
HETATM   19  N   UNL     1     -45.690 -52.664  17.161  1.00  0.00    -0.308 N 
ATOM     20  HN  UNL     1     -45.788 -54.786  17.000  1.00  0.00     0.186 HD
HETATM   21  C   UNL     1     -45.166 -52.581  18.502  1.00  0.00     0.177 C 
HETATM   22  C   UNL     1     -45.969 -51.609  16.346  1.00  0.00     0.118 A 
ENDBRANCH  15  16
ENDBRANCH  14  15
ENDBRANCH   3  14
TORSDOF 7
ENDMDL
MODEL 8
REMARK VINA RESULT:      -5.1      1.626      2.234
REMARK  7 active torsions:
REMARK  status: ('A' for Active; 'I' for Inactive)
REMARK    1  A    between atoms: C_2  and  C_3 
REMARK    2  A    between atoms: C_3  and  O_4 
REMARK    3  A    between atoms: C_3  and  C_10 
REMARK    4  A    between atoms: O_4  and  C_5 
REMARK       I    between atoms: C_10  and  N_12 
REMARK    5  A    between atoms: N_12  and  C_13 
REMARK    6  A    between atoms: C_13  and  C_14 
REMARK    7  A    between atoms: C_14  and  C_15 
ROOT
HETATM    1  C   UNL     1     -41.135 -52.470  13.967  1.00  0.00     0.246 C 
HETATM    2  O   UNL     1     -40.467 -53.423  13.567  1.00  0.00    -0.271 OA
HETATM    3  N   UNL     1     -40.601 -51.208  14.131  1.00  0.00    -0.359 N 
HETATM    4  H   UNL     1     -41.164 -50.546  14.654  1.00  0.00     0.162 HD
ENDROOT
BRANCH   1   5
HETATM    5  C   UNL     1     -42.618 -52.594  14.351  1.00  0.00     0.213 C 
BRANCH   5   6
HETATM    6  C   UNL     1     -42.786 -53.823  15.265  1.00  0.00     0.037 C 
HETATM    7  C   UNL     1     -43.681 -54.912  14.707  1.00  0.00     0.008 C 
ENDBRANCH   5   6
BRANCH   5   8
HETATM    8  O   UNL     1     -43.194 -51.380  14.846  1.00  0.00    -0.371 OA
BRANCH   8   9
HETATM    9  C   UNL     1     -44.454 -50.994  14.306  1.00  0.00     0.122 C 
HETATM   10  C   UNL     1     -45.565 -51.212  15.343  1.00  0.00     0.032 C 
HETATM   11  C   UNL     1     -46.848 -51.456  14.537  1.00  0.00     0.002 C 
HETATM   12  C   UNL     1     -46.422 -51.525  13.077  1.00  0.00     0.002 C 
HETATM   13  C   UNL     1     -44.948 -51.853  13.147  1.00  0.00     0.032 C 
ENDBRANCH   8   9
ENDBRANCH   5   8
ENDBRANCH   1   5
BRANCH   3  14
HETATM   14  C   UNL     1     -39.168 -50.983  14.026  1.00  0.00     0.127 C 
BRANCH  14  15
HETATM   15  C   UNL     1     -38.662 -50.715  12.602  1.00  0.00     0.061 C 
BRANCH  15  16
HETATM   16  C   UNL     1     -39.497 -49.708  11.892  1.00  0.00    -0.023 A 
HETATM   17  C   UNL     1     -40.524 -49.951  10.950  1.00  0.00     0.115 A 
HETATM   18  N   UNL     1     -41.118 -48.827  10.543  1.00  0.00    -0.310 N 
HETATM   19  N   UNL     1     -40.464 -47.866  11.213  1.00  0.00    -0.308 N 
ATOM     20  HN  UNL     1     -41.887 -48.724   9.880  1.00  0.00     0.186 HD
HETATM   21  C   UNL     1     -40.841 -46.482  11.057  1.00  0.00     0.177 C 
HETATM   22  C   UNL     1     -39.481 -48.338  12.028  1.00  0.00     0.118 A 
ENDBRANCH  15  16
ENDBRANCH  14  15
ENDBRANCH   3  14
TORSDOF 7
ENDMDL
MODEL 9
REMARK VINA RESULT:      -5.1      2.789      7.266
REMARK  7 active torsions:
REMARK  status: ('A' for Active; 'I' for Inactive)
REMARK    1  A    between atoms: C_2  and  C_3 
REMARK    2  A    between atoms: C_3  and  O_4 
REMARK    3  A    between atoms: C_3  and  C_10 
REMARK    4  A    between atoms: O_4  and  C_5 
REMARK       I    between atoms: C_10  and  N_12 
REMARK    5  A    between atoms: N_12  and  C_13 
REMARK    6  A    between atoms: C_13  and  C_14 
REMARK    7  A    between atoms: C_14  and  C_15 
ROOT
HETATM    1  C   UNL     1     -41.401 -50.068  11.929  1.00  0.00     0.246 C 
HETATM    2  O   UNL     1     -42.503 -50.118  12.476  1.00  0.00    -0.271 OA
HETATM    3  N   UNL     1     -40.779 -51.187  11.412  1.00  0.00    -0.359 N 
HETATM    4  H   UNL     1     -39.799 -51.085  11.171  1.00  0.00     0.162 HD
ENDROOT
BRANCH   1   5
HETATM    5  C   UNL     1     -40.594 -48.767  11.795  1.00  0.00     0.213 C 
BRANCH   5   6
HETATM    6  C   UNL     1     -39.094 -49.117  11.804  1.00  0.00     0.037 C 
HETATM    7  C   UNL     1     -38.355 -48.716  13.066  1.00  0.00     0.008 C 
ENDBRANCH   5   6
BRANCH   5   8
HETATM    8  O   UNL     1     -41.020 -47.926  10.717  1.00  0.00    -0.371 OA
BRANCH   8   9
HETATM    9  C   UNL     1     -41.154 -46.536  10.992  1.00  0.00     0.122 C 
HETATM   10  C   UNL     1     -39.868 -45.793  10.606  1.00  0.00     0.032 C 
HETATM   11  C   UNL     1     -39.805 -44.560  11.517  1.00  0.00     0.002 C 
HETATM   12  C   UNL     1     -40.961 -44.703  12.499  1.00  0.00     0.002 C 
HETATM   13  C   UNL     1     -41.276 -46.182  12.470  1.00  0.00     0.032 C 
ENDBRANCH   8   9
ENDBRANCH   5   8
ENDBRANCH   1   5
BRANCH   3  14
HETATM   14  C   UNL     1     -41.308 -52.518  11.661  1.00  0.00     0.127 C 
BRANCH  14  15
HETATM   15  C   UNL     1     -40.998 -53.084  13.054  1.00  0.00     0.061 C 
BRANCH  15  16
HETATM   16  C   UNL     1     -42.145 -53.852  13.612  1.00  0.00    -0.023 A 
HETATM   17  C   UNL     1     -42.150 -54.676  14.763  1.00  0.00     0.115 A 
HETATM   18  N   UNL     1     -43.358 -55.177  15.024  1.00  0.00    -0.310 N 
HETATM   19  N   UNL     1     -44.123 -54.687  14.036  1.00  0.00    -0.308 N 
ATOM     20  HN  UNL     1     -43.636 -55.789  15.793  1.00  0.00     0.186 HD
HETATM   21  C   UNL     1     -45.532 -54.990  13.984  1.00  0.00     0.177 C 
HETATM   22  C   UNL     1     -43.444 -53.893  13.161  1.00  0.00     0.118 A 
ENDBRANCH  15  16
ENDBRANCH  14  15
ENDBRANCH   3  14
TORSDOF 7
ENDMDL
