MODEL 1
REMARK VINA RESULT:      -6.7      0.000      0.000
REMARK  10 active torsions:
REMARK  status: ('A' for Active; 'I' for Inactive)
REMARK    1  A    between atoms: N_2  and  C_15 
REMARK    2  A    between atoms: C_6  and  N_8 
REMARK    3  A    between atoms: N_8  and  C_14 
REMARK    4  A    between atoms: N_8  and  C_21 
REMARK    5  A    between atoms: C_9  and  C_14 
REMARK       I    between atoms: C_9  and  N_18 
REMARK    6  A    between atoms: C_15  and  C_16 
REMARK    7  A    between atoms: C_16  and  C_22 
REMARK    8  A    between atoms: C_21  and  C_31 
REMARK    9  A    between atoms: C_22  and  O_23 
REMARK   10  A    between atoms: O_26  and  C_31 
ROOT
HETATM    1  C   UNL     1     -42.020 -49.173  12.311  1.00  0.00     0.122 C 
HETATM    2  N   UNL     1     -42.169 -50.832  13.766  1.00  0.00    -0.326 N 
HETATM    3  C   UNL     1     -41.306 -50.240  12.858  1.00  0.00     0.140 C 
HETATM    4  N   UNL     1     -43.205 -49.008  13.010  1.00  0.00    -0.346 N 
ATOM      5  HN  UNL     1     -43.915 -48.292  12.858  1.00  0.00     0.167 HD
HETATM    6  C   UNL     1     -41.438 -48.507  11.189  1.00  0.00     0.136 C 
HETATM    7  C   UNL     1     -43.223 -49.968  13.913  1.00  0.00     0.185 C 
HETATM    8  N   UNL     1     -40.099 -50.694  12.497  1.00  0.00    -0.336 N 
ATOM      9  HN  UNL     1     -39.643 -51.516  12.895  1.00  0.00     0.168 HD
HETATM   10  N   UNL     1     -40.150 -48.876  10.894  1.00  0.00    -0.337 N 
ATOM     11  HN  UNL     1     -39.626 -48.363  10.185  1.00  0.00     0.168 HD
HETATM   12  C   UNL     1     -39.573 -49.913  11.537  1.00  0.00     0.183 C 
ENDROOT
BRANCH   6  13
HETATM   13  N   UNL     1     -42.060 -47.610  10.295  1.00  0.00    -0.355 N 
BRANCH  13  14
HETATM   14  C   UNL     1     -41.469 -46.256  10.302  1.00  0.00     0.227 C 
BRANCH  14  15
HETATM   15  C   UNL     1     -42.126 -45.094  11.101  1.00  0.00     0.236 C 
HETATM   16  N   UNL     1     -41.996 -44.894  12.467  1.00  0.00    -0.359 N 
HETATM   17  C   UNL     1     -42.719 -43.766  13.033  1.00  0.00     0.152 C 
HETATM   18  C   UNL     1     -41.157 -45.640  13.389  1.00  0.00     0.152 C 
HETATM   19  O   UNL     1     -42.779 -44.278  10.428  1.00  0.00    -0.272 OA
ENDBRANCH  14  15
ENDBRANCH  13  14
BRANCH  13  20
HETATM   20  C   UNL     1     -43.518 -47.715  10.090  1.00  0.00     0.151 C 
BRANCH  20  21
HETATM   21  C   UNL     1     -43.982 -47.201   8.706  1.00  0.00     0.186 C 
BRANCH  21  22
HETATM   22  O   UNL     1     -45.106 -46.324   8.842  1.00  0.00    -0.394 OA
HETATM   23  C   UNL     1     -46.306 -47.034   9.124  1.00  0.00     0.201 C 
ENDBRANCH  21  22
ENDBRANCH  20  21
ENDBRANCH  13  20
ENDBRANCH   6  13
BRANCH   2  24
HETATM   24  C   UNL     1     -42.047 -52.167  14.380  1.00  0.00     0.143 C 
BRANCH  24  25
HETATM   25  C   UNL     1     -42.254 -53.366  13.376  1.00  0.00     0.001 C 
HETATM   26  C   UNL     1     -43.173 -52.922  12.207  1.00  0.00     0.039 C 
HETATM   27  C   UNL     1     -44.646 -52.897  12.621  1.00  0.00     0.168 C 
HETATM   28  O   UNL     1     -45.060 -54.211  12.967  1.00  0.00    -0.391 OA
HETATM   29  C   UNL     1     -44.413 -54.677  14.144  1.00  0.00     0.168 C 
HETATM   30  C   UNL     1     -42.896 -54.648  14.008  1.00  0.00     0.039 C 
BRANCH  25  31
HETATM   31  C   UNL     1     -40.861 -53.833  12.874  1.00  0.00     0.175 C 
BRANCH  31  32
HETATM   32  O   UNL     1     -40.687 -53.462  11.506  1.00  0.00    -0.400 OA
HETATM   33  H   UNL     1     -41.445 -53.816  10.995  1.00  0.00     0.209 HD
ENDBRANCH  31  32
ENDBRANCH  25  31
ENDBRANCH  24  25
ENDBRANCH   2  24
TORSDOF 10
ENDMDL
MODEL 2
REMARK VINA RESULT:      -6.7      1.404      2.939
REMARK  10 active torsions:
REMARK  status: ('A' for Active; 'I' for Inactive)
REMARK    1  A    between atoms: N_2  and  C_15 
REMARK    2  A    between atoms: C_6  and  N_8 
REMARK    3  A    between atoms: N_8  and  C_14 
REMARK    4  A    between atoms: N_8  and  C_21 
REMARK    5  A    between atoms: C_9  and  C_14 
REMARK       I    between atoms: C_9  and  N_18 
REMARK    6  A    between atoms: C_15  and  C_16 
REMARK    7  A    between atoms: C_16  and  C_22 
REMARK    8  A    between atoms: C_21  and  C_31 
REMARK    9  A    between atoms: C_22  and  O_23 
REMARK   10  A    between atoms: O_26  and  C_31 
ROOT
HETATM    1  C   UNL     1     -41.458 -49.256  13.185  1.00  0.00     0.122 C 
HETATM    2  N   UNL     1     -42.042 -51.080  14.293  1.00  0.00    -0.326 N 
HETATM    3  C   UNL     1     -40.960 -50.458  13.691  1.00  0.00     0.140 C 
HETATM    4  N   UNL     1     -42.754 -49.071  13.639  1.00  0.00    -0.346 N 
ATOM      5  HN  UNL     1     -43.361 -48.271  13.459  1.00  0.00     0.167 HD
HETATM    6  C   UNL     1     -40.597 -48.503  12.331  1.00  0.00     0.136 C 
HETATM    7  C   UNL     1     -43.039 -50.142  14.353  1.00  0.00     0.185 C 
HETATM    8  N   UNL     1     -39.738 -50.978  13.523  1.00  0.00    -0.336 N 
ATOM      9  HN  UNL     1     -39.439 -51.890  13.869  1.00  0.00     0.168 HD
HETATM   10  N   UNL     1     -39.304 -48.956  12.256  1.00  0.00    -0.337 N 
ATOM     11  HN  UNL     1     -38.602 -48.405  11.763  1.00  0.00     0.168 HD
HETATM   12  C   UNL     1     -38.958 -50.127  12.831  1.00  0.00     0.183 C 
ENDROOT
BRANCH   6  13
HETATM   13  N   UNL     1     -40.941 -47.429  11.483  1.00  0.00    -0.355 N 
BRANCH  13  14
HETATM   14  C   UNL     1     -41.690 -47.839  10.277  1.00  0.00     0.227 C 
BRANCH  14  15
HETATM   15  C   UNL     1     -43.225 -47.618  10.166  1.00  0.00     0.236 C 
HETATM   16  N   UNL     1     -43.944 -47.609   8.981  1.00  0.00    -0.359 N 
HETATM   17  C   UNL     1     -45.371 -47.349   9.085  1.00  0.00     0.152 C 
HETATM   18  C   UNL     1     -43.447 -47.905   7.647  1.00  0.00     0.152 C 
HETATM   19  O   UNL     1     -43.829 -47.478  11.243  1.00  0.00    -0.272 OA
ENDBRANCH  14  15
ENDBRANCH  13  14
BRANCH  13  20
HETATM   20  C   UNL     1     -39.995 -46.304  11.347  1.00  0.00     0.151 C 
BRANCH  20  21
HETATM   21  C   UNL     1     -40.307 -45.381  10.145  1.00  0.00     0.186 C 
BRANCH  21  22
HETATM   22  O   UNL     1     -41.125 -44.278  10.553  1.00  0.00    -0.394 OA
HETATM   23  C   UNL     1     -40.435 -43.397  11.432  1.00  0.00     0.201 C 
ENDBRANCH  21  22
ENDBRANCH  20  21
ENDBRANCH  13  20
ENDBRANCH   6  13
BRANCH   2  24
HETATM   24  C   UNL     1     -42.152 -52.494  14.697  1.00  0.00     0.143 C 
BRANCH  24  25
HETATM   25  C   UNL     1     -42.374 -53.497  13.499  1.00  0.00     0.001 C 
HETATM   26  C   UNL     1     -43.190 -52.805  12.375  1.00  0.00     0.039 C 
HETATM   27  C   UNL     1     -44.680 -52.740  12.714  1.00  0.00     0.168 C 
HETATM   28  O   UNL     1     -45.197 -54.059  12.817  1.00  0.00    -0.391 OA
HETATM   29  C   UNL     1     -44.654 -54.755  13.931  1.00  0.00     0.168 C 
HETATM   30  C   UNL     1     -43.134 -54.814  13.878  1.00  0.00     0.039 C 
BRANCH  25  31
HETATM   31  C   UNL     1     -40.985 -53.977  12.997  1.00  0.00     0.175 C 
BRANCH  31  32
HETATM   32  O   UNL     1     -40.699 -53.393  11.726  1.00  0.00    -0.400 OA
HETATM   33  H   UNL     1     -40.612 -54.116  11.070  1.00  0.00     0.209 HD
ENDBRANCH  31  32
ENDBRANCH  25  31
ENDBRANCH  24  25
ENDBRANCH   2  24
TORSDOF 10
ENDMDL
MODEL 3
REMARK VINA RESULT:      -6.7      1.523      3.347
REMARK  10 active torsions:
REMARK  status: ('A' for Active; 'I' for Inactive)
REMARK    1  A    between atoms: N_2  and  C_15 
REMARK    2  A    between atoms: C_6  and  N_8 
REMARK    3  A    between atoms: N_8  and  C_14 
REMARK    4  A    between atoms: N_8  and  C_21 
REMARK    5  A    between atoms: C_9  and  C_14 
REMARK       I    between atoms: C_9  and  N_18 
REMARK    6  A    between atoms: C_15  and  C_16 
REMARK    7  A    between atoms: C_16  and  C_22 
REMARK    8  A    between atoms: C_21  and  C_31 
REMARK    9  A    between atoms: C_22  and  O_23 
REMARK   10  A    between atoms: O_26  and  C_31 
ROOT
HETATM    1  C   UNL     1     -41.849 -49.391  12.192  1.00  0.00     0.122 C 
HETATM    2  N   UNL     1     -42.498 -51.436  12.729  1.00  0.00    -0.326 N 
HETATM    3  C   UNL     1     -41.406 -50.712  12.281  1.00  0.00     0.140 C 
HETATM    4  N   UNL     1     -43.110 -49.293  12.757  1.00  0.00    -0.346 N 
ATOM      5  HN  UNL     1     -43.673 -48.449  12.864  1.00  0.00     0.167 HD
HETATM    6  C   UNL     1     -40.978 -48.454  11.557  1.00  0.00     0.136 C 
HETATM    7  C   UNL     1     -43.432 -50.516  13.129  1.00  0.00     0.185 C 
HETATM    8  N   UNL     1     -40.227 -51.213  11.890  1.00  0.00    -0.336 N 
ATOM      9  HN  UNL     1     -39.972 -52.200  11.926  1.00  0.00     0.168 HD
HETATM   10  N   UNL     1     -39.722 -48.923  11.272  1.00  0.00    -0.337 N 
ATOM     11  HN  UNL     1     -39.007 -48.281  10.928  1.00  0.00     0.168 HD
HETATM   12  C   UNL     1     -39.426 -50.228  11.443  1.00  0.00     0.183 C 
ENDROOT
BRANCH   6  13
HETATM   13  N   UNL     1     -41.291 -47.157  11.095  1.00  0.00    -0.355 N 
BRANCH  13  14
HETATM   14  C   UNL     1     -42.038 -47.143   9.820  1.00  0.00     0.227 C 
BRANCH  14  15
HETATM   15  C   UNL     1     -43.583 -47.322   9.789  1.00  0.00     0.236 C 
HETATM   16  N   UNL     1     -44.316 -47.714   8.680  1.00  0.00    -0.359 N 
HETATM   17  C   UNL     1     -45.759 -47.789   8.845  1.00  0.00     0.152 C 
HETATM   18  C   UNL     1     -43.800 -48.133   7.387  1.00  0.00     0.152 C 
HETATM   19  O   UNL     1     -44.170 -47.128  10.867  1.00  0.00    -0.272 OA
ENDBRANCH  14  15
ENDBRANCH  13  14
BRANCH  13  20
HETATM   20  C   UNL     1     -40.317 -46.072  11.325  1.00  0.00     0.151 C 
BRANCH  20  21
HETATM   21  C   UNL     1     -40.911 -44.659  11.112  1.00  0.00     0.186 C 
BRANCH  21  22
HETATM   22  O   UNL     1     -40.209 -43.966  10.074  1.00  0.00    -0.394 OA
HETATM   23  C   UNL     1     -39.084 -44.700   9.607  1.00  0.00     0.201 C 
ENDBRANCH  21  22
ENDBRANCH  20  21
ENDBRANCH  13  20
ENDBRANCH   6  13
BRANCH   2  24
HETATM   24  C   UNL     1     -42.680 -52.900  12.692  1.00  0.00     0.143 C 
BRANCH  24  25
HETATM   25  C   UNL     1     -42.064 -53.662  13.928  1.00  0.00     0.001 C 
HETATM   26  C   UNL     1     -43.022 -54.797  14.380  1.00  0.00     0.039 C 
HETATM   27  C   UNL     1     -44.202 -54.255  15.188  1.00  0.00     0.168 C 
HETATM   28  O   UNL     1     -43.719 -53.653  16.381  1.00  0.00    -0.391 OA
HETATM   29  C   UNL     1     -42.960 -52.481  16.113  1.00  0.00     0.168 C 
HETATM   30  C   UNL     1     -41.788 -52.764  15.183  1.00  0.00     0.039 C 
BRANCH  25  31
HETATM   31  C   UNL     1     -40.668 -54.207  13.524  1.00  0.00     0.175 C 
BRANCH  31  32
HETATM   32  O   UNL     1     -40.544 -54.221  12.102  1.00  0.00    -0.400 OA
HETATM   33  H   UNL     1     -40.571 -53.294  11.784  1.00  0.00     0.209 HD
ENDBRANCH  31  32
ENDBRANCH  25  31
ENDBRANCH  24  25
ENDBRANCH   2  24
TORSDOF 10
ENDMDL
MODEL 4
REMARK VINA RESULT:      -6.5      1.563      1.950
REMARK  10 active torsions:
REMARK  status: ('A' for Active; 'I' for Inactive)
REMARK    1  A    between atoms: N_2  and  C_15 
REMARK    2  A    between atoms: C_6  and  N_8 
REMARK    3  A    between atoms: N_8  and  C_14 
REMARK    4  A    between atoms: N_8  and  C_21 
REMARK    5  A    between atoms: C_9  and  C_14 
REMARK       I    between atoms: C_9  and  N_18 
REMARK    6  A    between atoms: C_15  and  C_16 
REMARK    7  A    between atoms: C_16  and  C_22 
REMARK    8  A    between atoms: C_21  and  C_31 
REMARK    9  A    between atoms: C_22  and  O_23 
REMARK   10  A    between atoms: O_26  and  C_31 
ROOT
HETATM    1  C   UNL     1     -41.732 -49.193  12.036  1.00  0.00     0.122 C 
HETATM    2  N   UNL     1     -42.466 -51.215  12.552  1.00  0.00    -0.326 N 
HETATM    3  C   UNL     1     -41.336 -50.527  12.140  1.00  0.00     0.140 C 
HETATM    4  N   UNL     1     -43.007 -49.052  12.558  1.00  0.00    -0.346 N 
ATOM      5  HN  UNL     1     -43.545 -48.190  12.645  1.00  0.00     0.167 HD
HETATM    6  C   UNL     1     -40.810 -48.287  11.429  1.00  0.00     0.136 C 
HETATM    7  C   UNL     1     -43.382 -50.263  12.920  1.00  0.00     0.185 C 
HETATM    8  N   UNL     1     -40.162 -51.068  11.790  1.00  0.00    -0.336 N 
ATOM      9  HN  UNL     1     -39.942 -52.063  11.835  1.00  0.00     0.168 HD
HETATM   10  N   UNL     1     -39.561 -48.798  11.186  1.00  0.00    -0.337 N 
ATOM     11  HN  UNL     1     -38.814 -48.181  10.866  1.00  0.00     0.168 HD
HETATM   12  C   UNL     1     -39.314 -50.112  11.369  1.00  0.00     0.183 C 
ENDROOT
BRANCH   6  13
HETATM   13  N   UNL     1     -41.063 -46.981  10.956  1.00  0.00    -0.355 N 
BRANCH  13  14
HETATM   14  C   UNL     1     -40.009 -46.006  11.305  1.00  0.00     0.227 C 
BRANCH  14  15
HETATM   15  C   UNL     1     -40.218 -44.481  11.087  1.00  0.00     0.236 C 
HETATM   16  N   UNL     1     -40.556 -43.573  12.079  1.00  0.00    -0.359 N 
HETATM   17  C   UNL     1     -40.741 -42.191  11.664  1.00  0.00     0.152 C 
HETATM   18  C   UNL     1     -40.674 -43.832  13.504  1.00  0.00     0.152 C 
HETATM   19  O   UNL     1     -40.022 -44.069   9.930  1.00  0.00    -0.272 OA
ENDBRANCH  14  15
ENDBRANCH  13  14
BRANCH  13  20
HETATM   20  C   UNL     1     -42.457 -46.497  10.931  1.00  0.00     0.151 C 
BRANCH  20  21
HETATM   21  C   UNL     1     -43.051 -46.411   9.505  1.00  0.00     0.186 C 
BRANCH  21  22
HETATM   22  O   UNL     1     -43.603 -47.672   9.109  1.00  0.00    -0.394 OA
HETATM   23  C   UNL     1     -43.492 -47.888   7.708  1.00  0.00     0.201 C 
ENDBRANCH  21  22
ENDBRANCH  20  21
ENDBRANCH  13  20
ENDBRANCH   6  13
BRANCH   2  24
HETATM   24  C   UNL     1     -42.695 -52.671  12.511  1.00  0.00     0.143 C 
BRANCH  24  25
HETATM   25  C   UNL     1     -42.083 -53.460  13.732  1.00  0.00     0.001 C 
HETATM   26  C   UNL     1     -43.107 -54.501  14.256  1.00  0.00     0.039 C 
HETATM   27  C   UNL     1     -44.196 -53.846  15.109  1.00  0.00     0.168 C 
HETATM   28  O   UNL     1     -43.604 -53.266  16.262  1.00  0.00    -0.391 OA
HETATM   29  C   UNL     1     -42.765 -52.168  15.931  1.00  0.00     0.168 C 
HETATM   30  C   UNL     1     -41.669 -52.565  14.951  1.00  0.00     0.039 C 
BRANCH  25  31
HETATM   31  C   UNL     1     -40.760 -54.129  13.272  1.00  0.00     0.175 C 
BRANCH  31  32
HETATM   32  O   UNL     1     -40.610 -53.991  11.858  1.00  0.00    -0.400 OA
HETATM   33  H   UNL     1     -40.329 -54.857  11.496  1.00  0.00     0.209 HD
ENDBRANCH  31  32
ENDBRANCH  25  31
ENDBRANCH  24  25
ENDBRANCH   2  24
TORSDOF 10
ENDMDL
MODEL 5
REMARK VINA RESULT:      -6.4      2.193      7.297
REMARK  10 active torsions:
REMARK  status: ('A' for Active; 'I' for Inactive)
REMARK    1  A    between atoms: N_2  and  C_15 
REMARK    2  A    between atoms: C_6  and  N_8 
REMARK    3  A    between atoms: N_8  and  C_14 
REMARK    4  A    between atoms: N_8  and  C_21 
REMARK    5  A    between atoms: C_9  and  C_14 
REMARK       I    between atoms: C_9  and  N_18 
REMARK    6  A    between atoms: C_15  and  C_16 
REMARK    7  A    between atoms: C_16  and  C_22 
REMARK    8  A    between atoms: C_21  and  C_31 
REMARK    9  A    between atoms: C_22  and  O_23 
REMARK   10  A    between atoms: O_26  and  C_31 
ROOT
HETATM    1  C   UNL     1     -41.246 -49.466  11.326  1.00  0.00     0.122 C 
HETATM    2  N   UNL     1     -41.059 -47.295  10.949  1.00  0.00    -0.326 N 
HETATM    3  C   UNL     1     -40.314 -48.435  11.201  1.00  0.00     0.140 C 
HETATM    4  N   UNL     1     -42.499 -48.997  10.965  1.00  0.00    -0.346 N 
ATOM      5  HN  UNL     1     -43.369 -49.528  10.928  1.00  0.00     0.167 HD
HETATM    6  C   UNL     1     -40.764 -50.727  11.793  1.00  0.00     0.136 C 
HETATM    7  C   UNL     1     -42.334 -47.721  10.679  1.00  0.00     0.185 C 
HETATM    8  N   UNL     1     -38.993 -48.489  11.413  1.00  0.00    -0.336 N 
ATOM      9  HN  UNL     1     -38.361 -47.690  11.361  1.00  0.00     0.168 HD
HETATM   10  N   UNL     1     -39.400 -50.833  11.887  1.00  0.00    -0.337 N 
ATOM     11  HN  UNL     1     -38.975 -51.735  12.098  1.00  0.00     0.168 HD
HETATM   12  C   UNL     1     -38.617 -49.748  11.703  1.00  0.00     0.183 C 
ENDROOT
BRANCH   6  13
HETATM   13  N   UNL     1     -41.518 -51.821  12.266  1.00  0.00    -0.355 N 
BRANCH  13  14
HETATM   14  C   UNL     1     -42.247 -51.544  13.522  1.00  0.00     0.227 C 
BRANCH  14  15
HETATM   15  C   UNL     1     -43.761 -51.192  13.515  1.00  0.00     0.236 C 
HETATM   16  N   UNL     1     -44.790 -52.103  13.330  1.00  0.00    -0.359 N 
HETATM   17  C   UNL     1     -46.142 -51.568  13.322  1.00  0.00     0.152 C 
HETATM   18  C   UNL     1     -44.675 -53.548  13.220  1.00  0.00     0.152 C 
HETATM   19  O   UNL     1     -44.039 -50.000  13.731  1.00  0.00    -0.272 OA
ENDBRANCH  14  15
ENDBRANCH  13  14
BRANCH  13  20
HETATM   20  C   UNL     1     -40.982 -53.183  12.076  1.00  0.00     0.151 C 
BRANCH  20  21
HETATM   21  C   UNL     1     -40.475 -53.831  13.387  1.00  0.00     0.186 C 
BRANCH  21  22
HETATM   22  O   UNL     1     -39.158 -53.366  13.705  1.00  0.00    -0.394 OA
HETATM   23  C   UNL     1     -38.992 -53.145  15.100  1.00  0.00     0.201 C 
ENDBRANCH  21  22
ENDBRANCH  20  21
ENDBRANCH  13  20
ENDBRANCH   6  13
BRANCH   2  24
HETATM   24  C   UNL     1     -40.614 -45.892  11.050  1.00  0.00     0.143 C 
BRANCH  24  25
HETATM   25  C   UNL     1     -41.061 -45.162  12.375  1.00  0.00     0.001 C 
HETATM   26  C   UNL     1     -39.944 -44.195  12.848  1.00  0.00     0.039 C 
HETATM   27  C   UNL     1     -38.801 -44.943  13.539  1.00  0.00     0.168 C 
HETATM   28  O   UNL     1     -39.294 -45.575  14.712  1.00  0.00    -0.391 OA
HETATM   29  C   UNL     1     -40.210 -46.618  14.406  1.00  0.00     0.168 C 
HETATM   30  C   UNL     1     -41.383 -46.118  13.575  1.00  0.00     0.039 C 
BRANCH  25  31
HETATM   31  C   UNL     1     -42.395 -44.417  12.101  1.00  0.00     0.175 C 
BRANCH  31  32
HETATM   32  O   UNL     1     -43.182 -44.372  13.292  1.00  0.00    -0.400 OA
HETATM   33  H   UNL     1     -43.378 -43.434  13.492  1.00  0.00     0.209 HD
ENDBRANCH  31  32
ENDBRANCH  25  31
ENDBRANCH  24  25
ENDBRANCH   2  24
TORSDOF 10
ENDMDL
MODEL 6
REMARK VINA RESULT:      -6.2      1.603      2.499
REMARK  10 active torsions:
REMARK  status: ('A' for Active; 'I' for Inactive)
REMARK    1  A    between atoms: N_2  and  C_15 
REMARK    2  A    between atoms: C_6  and  N_8 
REMARK    3  A    between atoms: N_8  and  C_14 
REMARK    4  A    between atoms: N_8  and  C_21 
REMARK    5  A    between atoms: C_9  and  C_14 
REMARK       I    between atoms: C_9  and  N_18 
REMARK    6  A    between atoms: C_15  and  C_16 
REMARK    7  A    between atoms: C_16  and  C_22 
REMARK    8  A    between atoms: C_21  and  C_31 
REMARK    9  A    between atoms: C_22  and  O_23 
REMARK   10  A    between atoms: O_26  and  C_31 
ROOT
HETATM    1  C   UNL     1     -42.182 -49.465  12.945  1.00  0.00     0.122 C 
HETATM    2  N   UNL     1     -42.927 -50.748  14.585  1.00  0.00    -0.326 N 
HETATM    3  C   UNL     1     -42.123 -50.762  13.458  1.00  0.00     0.140 C 
HETATM    4  N   UNL     1     -42.843 -48.646  13.846  1.00  0.00    -0.346 N 
ATOM      5  HN  UNL     1     -43.013 -47.644  13.758  1.00  0.00     0.167 HD
HETATM    6  C   UNL     1     -41.601 -49.247  11.658  1.00  0.00     0.136 C 
HETATM    7  C   UNL     1     -43.208 -49.431  14.840  1.00  0.00     0.185 C 
HETATM    8  N   UNL     1     -41.534 -51.836  12.916  1.00  0.00    -0.336 N 
ATOM      9  HN  UNL     1     -41.566 -52.777  13.306  1.00  0.00     0.168 HD
HETATM   10  N   UNL     1     -40.884 -50.301  11.153  1.00  0.00    -0.337 N 
ATOM     11  HN  UNL     1     -40.343 -50.183  10.297  1.00  0.00     0.168 HD
HETATM   12  C   UNL     1     -40.892 -51.495  11.783  1.00  0.00     0.183 C 
ENDROOT
BRANCH   6  13
HETATM   13  N   UNL     1     -41.770 -48.131  10.810  1.00  0.00    -0.355 N 
BRANCH  13  14
HETATM   14  C   UNL     1     -40.802 -47.042  11.059  1.00  0.00     0.227 C 
BRANCH  14  15
HETATM   15  C   UNL     1     -41.201 -45.551  10.870  1.00  0.00     0.236 C 
HETATM   16  N   UNL     1     -41.927 -44.800  11.781  1.00  0.00    -0.359 N 
HETATM   17  C   UNL     1     -42.229 -43.428  11.403  1.00  0.00     0.152 C 
HETATM   18  C   UNL     1     -42.359 -45.204  13.109  1.00  0.00     0.152 C 
HETATM   19  O   UNL     1     -40.789 -45.010   9.830  1.00  0.00    -0.272 OA
ENDBRANCH  14  15
ENDBRANCH  13  14
BRANCH  13  20
HETATM   20  C   UNL     1     -43.138 -47.748  10.410  1.00  0.00     0.151 C 
BRANCH  20  21
HETATM   21  C   UNL     1     -43.320 -47.636   8.878  1.00  0.00     0.186 C 
BRANCH  21  22
HETATM   22  O   UNL     1     -44.507 -46.898   8.563  1.00  0.00    -0.394 OA
HETATM   23  C   UNL     1     -45.683 -47.558   9.015  1.00  0.00     0.201 C 
ENDBRANCH  21  22
ENDBRANCH  20  21
ENDBRANCH  13  20
ENDBRANCH   6  13
BRANCH   2  24
HETATM   24  C   UNL     1     -43.469 -51.910  15.315  1.00  0.00     0.143 C 
BRANCH  24  25
HETATM   25  C   UNL     1     -44.938 -52.309  14.901  1.00  0.00     0.001 C 
HETATM   26  C   UNL     1     -45.175 -53.817  15.182  1.00  0.00     0.039 C 
HETATM   27  C   UNL     1     -44.536 -54.701  14.109  1.00  0.00     0.168 C 
HETATM   28  O   UNL     1     -45.149 -54.436  12.856  1.00  0.00    -0.391 OA
HETATM   29  C   UNL     1     -44.860 -53.124  12.391  1.00  0.00     0.168 C 
HETATM   30  C   UNL     1     -45.287 -52.060  13.393  1.00  0.00     0.039 C 
BRANCH  25  31
HETATM   31  C   UNL     1     -45.932 -51.410  15.685  1.00  0.00     0.175 C 
BRANCH  31  32
HETATM   32  O   UNL     1     -47.117 -51.208  14.915  1.00  0.00    -0.400 OA
HETATM   33  H   UNL     1     -46.891 -51.329  13.970  1.00  0.00     0.209 HD
ENDBRANCH  31  32
ENDBRANCH  25  31
ENDBRANCH  24  25
ENDBRANCH   2  24
TORSDOF 10
ENDMDL
MODEL 7
REMARK VINA RESULT:      -6.1      1.913      3.134
REMARK  10 active torsions:
REMARK  status: ('A' for Active; 'I' for Inactive)
REMARK    1  A    between atoms: N_2  and  C_15 
REMARK    2  A    between atoms: C_6  and  N_8 
REMARK    3  A    between atoms: N_8  and  C_14 
REMARK    4  A    between atoms: N_8  and  C_21 
REMARK    5  A    between atoms: C_9  and  C_14 
REMARK       I    between atoms: C_9  and  N_18 
REMARK    6  A    between atoms: C_15  and  C_16 
REMARK    7  A    between atoms: C_16  and  C_22 
REMARK    8  A    between atoms: C_21  and  C_31 
REMARK    9  A    between atoms: C_22  and  O_23 
REMARK   10  A    between atoms: O_26  and  C_31 
ROOT
HETATM    1  C   UNL     1     -39.947 -48.952  13.475  1.00  0.00     0.122 C 
HETATM    2  N   UNL     1     -40.275 -51.011  14.215  1.00  0.00    -0.326 N 
HETATM    3  C   UNL     1     -39.635 -50.288  13.221  1.00  0.00     0.140 C 
HETATM    4  N   UNL     1     -40.593 -48.857  14.698  1.00  0.00    -0.346 N 
ATOM      5  HN  UNL     1     -40.914 -48.007  15.160  1.00  0.00     0.167 HD
HETATM    6  C   UNL     1     -39.581 -47.997  12.478  1.00  0.00     0.136 C 
HETATM    7  C   UNL     1     -40.706 -50.094  15.139  1.00  0.00     0.185 C 
HETATM    8  N   UNL     1     -38.976 -50.795  12.171  1.00  0.00    -0.336 N 
ATOM      9  HN  UNL     1     -38.821 -51.789  12.004  1.00  0.00     0.168 HD
HETATM   10  N   UNL     1     -38.794 -48.482  11.465  1.00  0.00    -0.337 N 
ATOM     11  HN  UNL     1     -38.395 -47.839  10.781  1.00  0.00     0.168 HD
HETATM   12  C   UNL     1     -38.546 -49.805  11.367  1.00  0.00     0.183 C 
ENDROOT
BRANCH   6  13
HETATM   13  N   UNL     1     -40.019 -46.661  12.356  1.00  0.00    -0.355 N 
BRANCH  13  14
HETATM   14  C   UNL     1     -40.091 -46.183  10.960  1.00  0.00     0.227 C 
BRANCH  14  15
HETATM   15  C   UNL     1     -41.423 -45.651  10.358  1.00  0.00     0.236 C 
HETATM   16  N   UNL     1     -42.443 -46.445   9.857  1.00  0.00    -0.359 N 
HETATM   17  C   UNL     1     -43.597 -45.753   9.303  1.00  0.00     0.152 C 
HETATM   18  C   UNL     1     -42.526 -47.896   9.891  1.00  0.00     0.152 C 
HETATM   19  O   UNL     1     -41.569 -44.417  10.376  1.00  0.00    -0.272 OA
ENDBRANCH  14  15
ENDBRANCH  13  14
BRANCH  13  20
HETATM   20  C   UNL     1     -39.613 -45.688  13.389  1.00  0.00     0.151 C 
BRANCH  20  21
HETATM   21  C   UNL     1     -40.809 -45.040  14.126  1.00  0.00     0.186 C 
BRANCH  21  22
HETATM   22  O   UNL     1     -41.807 -46.021  14.432  1.00  0.00    -0.394 OA
HETATM   23  C   UNL     1     -43.064 -45.706  13.846  1.00  0.00     0.201 C 
ENDBRANCH  21  22
ENDBRANCH  20  21
ENDBRANCH  13  20
ENDBRANCH   6  13
BRANCH   2  24
HETATM   24  C   UNL     1     -40.543 -52.461  14.239  1.00  0.00     0.143 C 
BRANCH  24  25
HETATM   25  C   UNL     1     -41.909 -52.881  13.570  1.00  0.00     0.001 C 
HETATM   26  C   UNL     1     -43.079 -52.102  14.225  1.00  0.00     0.039 C 
HETATM   27  C   UNL     1     -43.461 -52.690  15.585  1.00  0.00     0.168 C 
HETATM   28  O   UNL     1     -43.927 -54.020  15.409  1.00  0.00    -0.391 OA
HETATM   29  C   UNL     1     -42.892 -54.890  14.972  1.00  0.00     0.168 C 
HETATM   30  C   UNL     1     -42.251 -54.406  13.678  1.00  0.00     0.039 C 
BRANCH  25  31
HETATM   31  C   UNL     1     -41.813 -52.609  12.044  1.00  0.00     0.175 C 
BRANCH  31  32
HETATM   32  O   UNL     1     -40.662 -53.259  11.505  1.00  0.00    -0.400 OA
HETATM   33  H   UNL     1     -40.508 -52.908  10.603  1.00  0.00     0.209 HD
ENDBRANCH  31  32
ENDBRANCH  25  31
ENDBRANCH  24  25
ENDBRANCH   2  24
TORSDOF 10
ENDMDL
MODEL 8
REMARK VINA RESULT:      -6.1      2.329      3.418
REMARK  10 active torsions:
REMARK  status: ('A' for Active; 'I' for Inactive)
REMARK    1  A    between atoms: N_2  and  C_15 
REMARK    2  A    between atoms: C_6  and  N_8 
REMARK    3  A    between atoms: N_8  and  C_14 
REMARK    4  A    between atoms: N_8  and  C_21 
REMARK    5  A    between atoms: C_9  and  C_14 
REMARK       I    between atoms: C_9  and  N_18 
REMARK    6  A    between atoms: C_15  and  C_16 
REMARK    7  A    between atoms: C_16  and  C_22 
REMARK    8  A    between atoms: C_21  and  C_31 
REMARK    9  A    between atoms: C_22  and  O_23 
REMARK   10  A    between atoms: O_26  and  C_31 
ROOT
HETATM    1  C   UNL     1     -41.135 -48.243  11.360  1.00  0.00     0.122 C 
HETATM    2  N   UNL     1     -39.831 -49.075  12.942  1.00  0.00    -0.326 N 
HETATM    3  C   UNL     1     -41.144 -49.048  12.500  1.00  0.00     0.140 C 
HETATM    4  N   UNL     1     -39.824 -47.954  11.014  1.00  0.00    -0.346 N 
ATOM      5  HN  UNL     1     -39.504 -47.412  10.212  1.00  0.00     0.167 HD
HETATM    6  C   UNL     1     -42.402 -47.876  10.812  1.00  0.00     0.136 C 
HETATM    7  C   UNL     1     -39.077 -48.526  11.938  1.00  0.00     0.185 C 
HETATM    8  N   UNL     1     -42.203 -49.577  13.126  1.00  0.00    -0.336 N 
ATOM      9  HN  UNL     1     -42.160 -50.116  13.991  1.00  0.00     0.168 HD
HETATM   10  N   UNL     1     -43.484 -48.514  11.362  1.00  0.00    -0.337 N 
ATOM     11  HN  UNL     1     -44.408 -48.395  10.947  1.00  0.00     0.168 HD
HETATM   12  C   UNL     1     -43.333 -49.297  12.451  1.00  0.00     0.183 C 
ENDROOT
BRANCH   6  13
HETATM   13  N   UNL     1     -42.675 -46.868   9.863  1.00  0.00    -0.355 N 
BRANCH  13  14
HETATM   14  C   UNL     1     -42.804 -45.518  10.448  1.00  0.00     0.227 C 
BRANCH  14  15
HETATM   15  C   UNL     1     -41.550 -44.665  10.793  1.00  0.00     0.236 C 
HETATM   16  N   UNL     1     -41.505 -43.672  11.760  1.00  0.00    -0.359 N 
HETATM   17  C   UNL     1     -40.243 -42.963  11.908  1.00  0.00     0.152 C 
HETATM   18  C   UNL     1     -42.554 -43.308  12.698  1.00  0.00     0.152 C 
HETATM   19  O   UNL     1     -40.516 -44.947  10.163  1.00  0.00    -0.272 OA
ENDBRANCH  14  15
ENDBRANCH  13  14
BRANCH  13  20
HETATM   20  C   UNL     1     -43.541 -47.198   8.713  1.00  0.00     0.151 C 
BRANCH  20  21
HETATM   21  C   UNL     1     -44.951 -46.567   8.806  1.00  0.00     0.186 C 
BRANCH  21  22
HETATM   22  O   UNL     1     -45.828 -47.401   9.572  1.00  0.00    -0.394 OA
HETATM   23  C   UNL     1     -46.531 -48.330   8.756  1.00  0.00     0.201 C 
ENDBRANCH  21  22
ENDBRANCH  20  21
ENDBRANCH  13  20
ENDBRANCH   6  13
BRANCH   2  24
HETATM   24  C   UNL     1     -39.338 -49.504  14.264  1.00  0.00     0.143 C 
BRANCH  24  25
HETATM   25  C   UNL     1     -38.589 -50.892  14.258  1.00  0.00     0.001 C 
HETATM   26  C   UNL     1     -39.443 -51.951  13.511  1.00  0.00     0.039 C 
HETATM   27  C   UNL     1     -40.589 -52.472  14.382  1.00  0.00     0.168 C 
HETATM   28  O   UNL     1     -40.052 -53.133  15.519  1.00  0.00    -0.391 OA
HETATM   29  C   UNL     1     -39.384 -52.231  16.390  1.00  0.00     0.168 C 
HETATM   30  C   UNL     1     -38.271 -51.473  15.678  1.00  0.00     0.039 C 
BRANCH  25  31
HETATM   31  C   UNL     1     -37.198 -50.698  13.595  1.00  0.00     0.175 C 
BRANCH  31  32
HETATM   32  O   UNL     1     -37.026 -51.642  12.539  1.00  0.00    -0.400 OA
HETATM   33  H   UNL     1     -36.361 -52.303  12.825  1.00  0.00     0.209 HD
ENDBRANCH  31  32
ENDBRANCH  25  31
ENDBRANCH  24  25
ENDBRANCH   2  24
TORSDOF 10
ENDMDL
MODEL 9
REMARK VINA RESULT:      -6.1      1.859      7.758
REMARK  10 active torsions:
REMARK  status: ('A' for Active; 'I' for Inactive)
REMARK    1  A    between atoms: N_2  and  C_15 
REMARK    2  A    between atoms: C_6  and  N_8 
REMARK    3  A    between atoms: N_8  and  C_14 
REMARK    4  A    between atoms: N_8  and  C_21 
REMARK    5  A    between atoms: C_9  and  C_14 
REMARK       I    between atoms: C_9  and  N_18 
REMARK    6  A    between atoms: C_15  and  C_16 
REMARK    7  A    between atoms: C_16  and  C_22 
REMARK    8  A    between atoms: C_21  and  C_31 
REMARK    9  A    between atoms: C_22  and  O_23 
REMARK   10  A    between atoms: O_26  and  C_31 
ROOT
HETATM    1  C   UNL     1     -42.087 -50.083  12.167  1.00  0.00     0.122 C 
HETATM    2  N   UNL     1     -42.124 -47.871  12.125  1.00  0.00    -0.326 N 
HETATM    3  C   UNL     1     -41.325 -48.963  11.829  1.00  0.00     0.140 C 
HETATM    4  N   UNL     1     -43.378 -49.682  12.472  1.00  0.00    -0.346 N 
ATOM      5  HN  UNL     1     -44.164 -50.280  12.726  1.00  0.00     0.167 HD
HETATM    6  C   UNL     1     -41.425 -51.348  12.154  1.00  0.00     0.136 C 
HETATM    7  C   UNL     1     -43.379 -48.369  12.367  1.00  0.00     0.185 C 
HETATM    8  N   UNL     1     -40.046 -48.926  11.433  1.00  0.00    -0.336 N 
ATOM      9  HN  UNL     1     -39.517 -48.074  11.249  1.00  0.00     0.168 HD
HETATM   10  N   UNL     1     -40.159 -51.341  11.627  1.00  0.00    -0.337 N 
ATOM     11  HN  UNL     1     -39.668 -52.222  11.474  1.00  0.00     0.168 HD
HETATM   12  C   UNL     1     -39.559 -50.174  11.310  1.00  0.00     0.183 C 
ENDROOT
BRANCH   6  13
HETATM   13  N   UNL     1     -41.872 -52.565  12.712  1.00  0.00    -0.355 N 
BRANCH  13  14
HETATM   14  C   UNL     1     -40.818 -53.596  12.815  1.00  0.00     0.227 C 
BRANCH  14  15
HETATM   15  C   UNL     1     -39.767 -53.563  13.961  1.00  0.00     0.236 C 
HETATM   16  N   UNL     1     -39.954 -54.098  15.227  1.00  0.00    -0.359 N 
HETATM   17  C   UNL     1     -38.861 -53.934  16.172  1.00  0.00     0.152 C 
HETATM   18  C   UNL     1     -41.090 -54.873  15.696  1.00  0.00     0.152 C 
HETATM   19  O   UNL     1     -38.674 -53.045  13.677  1.00  0.00    -0.272 OA
ENDBRANCH  14  15
ENDBRANCH  13  14
BRANCH  13  20
HETATM   20  C   UNL     1     -43.242 -53.021  12.408  1.00  0.00     0.151 C 
BRANCH  20  21
HETATM   21  C   UNL     1     -43.726 -54.166  13.328  1.00  0.00     0.186 C 
BRANCH  21  22
HETATM   22  O   UNL     1     -44.996 -54.665  12.890  1.00  0.00    -0.394 OA
HETATM   23  C   UNL     1     -45.782 -55.150  13.972  1.00  0.00     0.201 C 
ENDBRANCH  21  22
ENDBRANCH  20  21
ENDBRANCH  13  20
ENDBRANCH   6  13
BRANCH   2  24
HETATM   24  C   UNL     1     -41.706 -46.464  12.262  1.00  0.00     0.143 C 
BRANCH  24  25
HETATM   25  C   UNL     1     -41.749 -45.640  10.917  1.00  0.00     0.001 C 
HETATM   26  C   UNL     1     -40.305 -45.352  10.427  1.00  0.00     0.039 C 
HETATM   27  C   UNL     1     -39.657 -44.209  11.212  1.00  0.00     0.168 C 
HETATM   28  O   UNL     1     -40.390 -43.012  10.992  1.00  0.00    -0.391 OA
HETATM   29  C   UNL     1     -41.693 -43.079  11.557  1.00  0.00     0.168 C 
HETATM   30  C   UNL     1     -42.487 -44.260  11.016  1.00  0.00     0.039 C 
BRANCH  25  31
HETATM   31  C   UNL     1     -42.567 -46.446   9.872  1.00  0.00     0.175 C 
BRANCH  31  32
HETATM   32  O   UNL     1     -42.631 -45.723   8.642  1.00  0.00    -0.400 OA
HETATM   33  H   UNL     1     -43.563 -45.722   8.338  1.00  0.00     0.209 HD
ENDBRANCH  31  32
ENDBRANCH  25  31
ENDBRANCH  24  25
ENDBRANCH   2  24
TORSDOF 10
ENDMDL
