MODEL 1
REMARK VINA RESULT:      -6.9      0.000      0.000
REMARK  4 active torsions:
REMARK  status: ('A' for Active; 'I' for Inactive)
REMARK       I    between atoms: C_2  and  N_3 
REMARK       I    between atoms: C_2  and  N_12 
REMARK    1  A    between atoms: N_3  and  C_4 
REMARK    2  A    between atoms: C_4  and  C_5 
REMARK    3  A    between atoms: N_12  and  C_13 
REMARK    4  A    between atoms: C_16  and  N_20 
ROOT
HETATM    1  O   UNL     1     -40.858 -50.999  13.338  1.00  0.00    -0.247 OA
HETATM    2  C   UNL     1     -40.929 -51.376  12.175  1.00  0.00     0.320 C 
HETATM    3  N   UNL     1     -41.047 -52.715  11.847  1.00  0.00    -0.342 N 
HETATM    4  N   UNL     1     -40.886 -50.580  11.051  1.00  0.00    -0.308 N 
HETATM    5  H   UNL     1     -41.385 -52.938  10.922  1.00  0.00     0.164 HD
HETATM    6  H   UNL     1     -40.830 -51.061  10.164  1.00  0.00     0.170 HD
ENDROOT
BRANCH   4   7
HETATM    7  C   UNL     1     -40.834 -49.168  11.007  1.00  0.00     0.051 A 
HETATM    8  C   UNL     1     -39.871 -48.392  11.632  1.00  0.00     0.035 A 
HETATM    9  C   UNL     1     -39.929 -46.996  11.530  1.00  0.00     0.051 A 
HETATM   10  C   UNL     1     -40.944 -46.370  10.807  1.00  0.00     0.103 A 
HETATM   11  N   UNL     1     -41.894 -47.121  10.210  1.00  0.00    -0.350 N 
HETATM   12  C   UNL     1     -41.817 -48.474  10.310  1.00  0.00     0.119 A 
ATOM     13  HN  UNL     1     -42.655 -46.680   9.692  1.00  0.00     0.166 HD
BRANCH  10  14
HETATM   14  N   UNL     1     -41.019 -44.994  10.717  1.00  0.00    -0.367 N 
HETATM   15  C   UNL     1     -42.228 -44.269  11.097  1.00  0.00     0.124 C 
HETATM   16  C   UNL     1     -41.746 -42.874  11.498  1.00  0.00     0.021 C 
HETATM   17  C   UNL     1     -40.277 -43.062  11.833  1.00  0.00     0.021 C 
HETATM   18  C   UNL     1     -39.825 -44.176  10.897  1.00  0.00     0.124 C 
ENDBRANCH  10  14
ENDBRANCH   4   7
BRANCH   3  19
HETATM   19  C   UNL     1     -41.195 -53.732  12.871  1.00  0.00     0.130 C 
BRANCH  19  20
HETATM   20  C   UNL     1     -42.649 -54.179  13.045  1.00  0.00     0.018 C 
HETATM   21  C   UNL     1     -43.630 -53.176  12.401  1.00  0.00     0.022 C 
HETATM   22  C   UNL     1     -44.934 -53.108  13.201  1.00  0.00     0.141 C 
HETATM   23  S   UNL     1     -44.806 -54.297  14.509  1.00  0.00     0.144 S 
HETATM   24  O   UNL     1     -45.283 -53.711  15.744  1.00  0.00    -0.228 OA
HETATM   25  O   UNL     1     -45.290 -55.572  14.017  1.00  0.00    -0.228 OA
HETATM   26  C   UNL     1     -43.036 -54.335  14.518  1.00  0.00     0.146 C 
ENDBRANCH  19  20
ENDBRANCH   3  19
TORSDOF 4
ENDMDL
MODEL 2
REMARK VINA RESULT:      -6.7      1.073      1.817
REMARK  4 active torsions:
REMARK  status: ('A' for Active; 'I' for Inactive)
REMARK       I    between atoms: C_2  and  N_3 
REMARK       I    between atoms: C_2  and  N_12 
REMARK    1  A    between atoms: N_3  and  C_4 
REMARK    2  A    between atoms: C_4  and  C_5 
REMARK    3  A    between atoms: N_12  and  C_13 
REMARK    4  A    between atoms: C_16  and  N_20 
ROOT
HETATM    1  O   UNL     1     -40.360 -51.071  13.082  1.00  0.00    -0.247 OA
HETATM    2  C   UNL     1     -40.809 -51.260  11.958  1.00  0.00     0.320 C 
HETATM    3  N   UNL     1     -41.178 -52.520  11.522  1.00  0.00    -0.342 N 
HETATM    4  N   UNL     1     -40.994 -50.309  10.979  1.00  0.00    -0.308 N 
HETATM    5  H   UNL     1     -41.793 -52.573  10.722  1.00  0.00     0.164 HD
HETATM    6  H   UNL     1     -41.256 -50.653  10.066  1.00  0.00     0.170 HD
ENDROOT
BRANCH   4   7
HETATM    7  C   UNL     1     -40.786 -48.915  11.092  1.00  0.00     0.051 A 
HETATM    8  C   UNL     1     -41.606 -47.945  10.538  1.00  0.00     0.035 A 
HETATM    9  C   UNL     1     -41.291 -46.590  10.705  1.00  0.00     0.051 A 
HETATM   10  C   UNL     1     -40.161 -46.198  11.422  1.00  0.00     0.103 A 
HETATM   11  N   UNL     1     -39.351 -47.140  11.951  1.00  0.00    -0.350 N 
HETATM   12  C   UNL     1     -39.676 -48.449  11.788  1.00  0.00     0.119 A 
ATOM     13  HN  UNL     1     -38.509 -46.873  12.462  1.00  0.00     0.166 HD
BRANCH  10  14
HETATM   14  N   UNL     1     -39.834 -44.866  11.576  1.00  0.00    -0.367 N 
HETATM   15  C   UNL     1     -40.658 -43.807  11.000  1.00  0.00     0.124 C 
HETATM   16  C   UNL     1     -40.410 -42.584  11.884  1.00  0.00     0.021 C 
HETATM   17  C   UNL     1     -39.898 -43.160  13.193  1.00  0.00     0.021 C 
HETATM   18  C   UNL     1     -39.135 -44.410  12.772  1.00  0.00     0.124 C 
ENDBRANCH  10  14
ENDBRANCH   4   7
BRANCH   3  19
HETATM   19  C   UNL     1     -41.147 -53.666  12.411  1.00  0.00     0.130 C 
BRANCH  19  20
HETATM   20  C   UNL     1     -42.272 -53.630  13.448  1.00  0.00     0.018 C 
HETATM   21  C   UNL     1     -41.960 -54.542  14.654  1.00  0.00     0.022 C 
HETATM   22  C   UNL     1     -43.247 -55.158  15.212  1.00  0.00     0.141 C 
HETATM   23  S   UNL     1     -44.595 -54.485  14.278  1.00  0.00     0.144 S 
HETATM   24  O   UNL     1     -45.519 -55.544  13.932  1.00  0.00    -0.228 OA
HETATM   25  O   UNL     1     -45.024 -53.256  14.915  1.00  0.00    -0.228 OA
HETATM   26  C   UNL     1     -43.616 -54.071  12.862  1.00  0.00     0.146 C 
ENDBRANCH  19  20
ENDBRANCH   3  19
TORSDOF 4
ENDMDL
MODEL 3
REMARK VINA RESULT:      -6.7      1.252      1.832
REMARK  4 active torsions:
REMARK  status: ('A' for Active; 'I' for Inactive)
REMARK       I    between atoms: C_2  and  N_3 
REMARK       I    between atoms: C_2  and  N_12 
REMARK    1  A    between atoms: N_3  and  C_4 
REMARK    2  A    between atoms: C_4  and  C_5 
REMARK    3  A    between atoms: N_12  and  C_13 
REMARK    4  A    between atoms: C_16  and  N_20 
ROOT
HETATM    1  O   UNL     1     -40.639 -50.007  12.963  1.00  0.00    -0.247 OA
HETATM    2  C   UNL     1     -41.051 -50.238  11.833  1.00  0.00     0.320 C 
HETATM    3  N   UNL     1     -41.198 -51.530  11.359  1.00  0.00    -0.342 N 
HETATM    4  N   UNL     1     -41.402 -49.306  10.881  1.00  0.00    -0.308 N 
HETATM    5  H   UNL     1     -41.796 -51.665  10.557  1.00  0.00     0.164 HD
HETATM    6  H   UNL     1     -41.602 -49.663   9.958  1.00  0.00     0.170 HD
ENDROOT
BRANCH   4   7
HETATM    7  C   UNL     1     -41.438 -47.901  11.036  1.00  0.00     0.051 A 
HETATM    8  C   UNL     1     -40.322 -47.082  11.090  1.00  0.00     0.035 A 
HETATM    9  C   UNL     1     -40.480 -45.700  11.260  1.00  0.00     0.051 A 
HETATM   10  C   UNL     1     -41.748 -45.132  11.378  1.00  0.00     0.103 A 
HETATM   11  N   UNL     1     -42.838 -45.927  11.342  1.00  0.00    -0.350 N 
HETATM   12  C   UNL     1     -42.667 -47.264  11.166  1.00  0.00     0.119 A 
ATOM     13  HN  UNL     1     -43.773 -45.532  11.444  1.00  0.00     0.166 HD
BRANCH  10  14
HETATM   14  N   UNL     1     -41.912 -43.773  11.564  1.00  0.00    -0.367 N 
HETATM   15  C   UNL     1     -42.747 -43.246  12.640  1.00  0.00     0.124 C 
HETATM   16  C   UNL     1     -42.178 -41.859  12.941  1.00  0.00     0.021 C 
HETATM   17  C   UNL     1     -40.756 -41.908  12.409  1.00  0.00     0.021 C 
HETATM   18  C   UNL     1     -40.844 -42.845  11.211  1.00  0.00     0.124 C 
ENDBRANCH  10  14
ENDBRANCH   4   7
BRANCH   3  19
HETATM   19  C   UNL     1     -40.965 -52.678  12.215  1.00  0.00     0.130 C 
BRANCH  19  20
HETATM   20  C   UNL     1     -42.109 -52.907  13.207  1.00  0.00     0.018 C 
HETATM   21  C   UNL     1     -41.814 -54.096  14.146  1.00  0.00     0.022 C 
HETATM   22  C   UNL     1     -43.107 -54.834  14.506  1.00  0.00     0.141 C 
HETATM   23  S   UNL     1     -44.442 -53.944  13.750  1.00  0.00     0.144 S 
HETATM   24  O   UNL     1     -45.356 -54.880  13.130  1.00  0.00    -0.228 OA
HETATM   25  O   UNL     1     -44.887 -52.918  14.672  1.00  0.00    -0.228 OA
HETATM   26  C   UNL     1     -43.441 -53.183  12.504  1.00  0.00     0.146 C 
ENDBRANCH  19  20
ENDBRANCH   3  19
TORSDOF 4
ENDMDL
MODEL 4
REMARK VINA RESULT:      -6.4      3.907      8.864
REMARK  4 active torsions:
REMARK  status: ('A' for Active; 'I' for Inactive)
REMARK       I    between atoms: C_2  and  N_3 
REMARK       I    between atoms: C_2  and  N_12 
REMARK    1  A    between atoms: N_3  and  C_4 
REMARK    2  A    between atoms: C_4  and  C_5 
REMARK    3  A    between atoms: N_12  and  C_13 
REMARK    4  A    between atoms: C_16  and  N_20 
ROOT
HETATM    1  O   UNL     1     -42.587 -49.106  11.954  1.00  0.00    -0.247 OA
HETATM    2  C   UNL     1     -41.688 -49.224  11.130  1.00  0.00     0.320 C 
HETATM    3  N   UNL     1     -41.536 -48.333  10.083  1.00  0.00    -0.342 N 
HETATM    4  N   UNL     1     -40.738 -50.220  11.090  1.00  0.00    -0.308 N 
HETATM    5  H   UNL     1     -40.639 -48.308   9.621  1.00  0.00     0.164 HD
HETATM    6  H   UNL     1     -40.145 -50.242  10.273  1.00  0.00     0.170 HD
ENDROOT
BRANCH   4   7
HETATM    7  C   UNL     1     -40.550 -51.259  12.032  1.00  0.00     0.051 A 
HETATM    8  C   UNL     1     -39.769 -51.161  13.172  1.00  0.00     0.035 A 
HETATM    9  C   UNL     1     -39.645 -52.264  14.027  1.00  0.00     0.051 A 
HETATM   10  C   UNL     1     -40.298 -53.465  13.749  1.00  0.00     0.103 A 
HETATM   11  N   UNL     1     -41.048 -53.570  12.632  1.00  0.00    -0.350 N 
HETATM   12  C   UNL     1     -41.165 -52.487  11.818  1.00  0.00     0.119 A 
ATOM     13  HN  UNL     1     -41.518 -54.446  12.402  1.00  0.00     0.166 HD
BRANCH  10  14
HETATM   14  N   UNL     1     -40.167 -54.562  14.578  1.00  0.00    -0.367 N 
HETATM   15  C   UNL     1     -38.857 -55.031  15.022  1.00  0.00     0.124 C 
HETATM   16  C   UNL     1     -39.119 -55.743  16.349  1.00  0.00     0.021 C 
HETATM   17  C   UNL     1     -40.442 -55.174  16.831  1.00  0.00     0.021 C 
HETATM   18  C   UNL     1     -41.208 -54.885  15.546  1.00  0.00     0.124 C 
ENDBRANCH  10  14
ENDBRANCH   4   7
BRANCH   3  19
HETATM   19  C   UNL     1     -42.375 -47.155   9.968  1.00  0.00     0.130 C 
BRANCH  19  20
HETATM   20  C   UNL     1     -41.601 -45.860  10.231  1.00  0.00     0.018 C 
HETATM   21  C   UNL     1     -40.183 -46.147  10.766  1.00  0.00     0.022 C 
HETATM   22  C   UNL     1     -39.748 -45.059  11.753  1.00  0.00     0.141 C 
HETATM   23  S   UNL     1     -41.045 -43.852  11.803  1.00  0.00     0.144 S 
HETATM   24  O   UNL     1     -41.305 -43.478  13.177  1.00  0.00    -0.228 OA
HETATM   25  O   UNL     1     -40.797 -42.871  10.764  1.00  0.00    -0.228 OA
HETATM   26  C   UNL     1     -42.311 -44.955  11.242  1.00  0.00     0.146 C 
ENDBRANCH  19  20
ENDBRANCH   3  19
TORSDOF 4
ENDMDL
MODEL 5
REMARK VINA RESULT:      -6.3      3.834      8.994
REMARK  4 active torsions:
REMARK  status: ('A' for Active; 'I' for Inactive)
REMARK       I    between atoms: C_2  and  N_3 
REMARK       I    between atoms: C_2  and  N_12 
REMARK    1  A    between atoms: N_3  and  C_4 
REMARK    2  A    between atoms: C_4  and  C_5 
REMARK    3  A    between atoms: N_12  and  C_13 
REMARK    4  A    between atoms: C_16  and  N_20 
ROOT
HETATM    1  O   UNL     1     -40.199 -48.187  12.722  1.00  0.00    -0.247 OA
HETATM    2  C   UNL     1     -40.801 -48.402  11.678  1.00  0.00     0.320 C 
HETATM    3  N   UNL     1     -40.828 -47.479  10.647  1.00  0.00    -0.342 N 
HETATM    4  N   UNL     1     -41.535 -49.526  11.370  1.00  0.00    -0.308 N 
HETATM    5  H   UNL     1     -41.083 -47.814   9.729  1.00  0.00     0.164 HD
HETATM    6  H   UNL     1     -42.072 -49.490  10.516  1.00  0.00     0.170 HD
ENDROOT
BRANCH   4   7
HETATM    7  C   UNL     1     -41.676 -50.694  12.155  1.00  0.00     0.051 A 
HETATM    8  C   UNL     1     -42.615 -50.863  13.159  1.00  0.00     0.035 A 
HETATM    9  C   UNL     1     -42.653 -52.062  13.882  1.00  0.00     0.051 A 
HETATM   10  C   UNL     1     -41.755 -53.094  13.609  1.00  0.00     0.103 A 
HETATM   11  N   UNL     1     -40.828 -52.929  12.642  1.00  0.00    -0.350 N 
HETATM   12  C   UNL     1     -40.813 -51.763  11.943  1.00  0.00     0.119 A 
ATOM     13  HN  UNL     1     -40.151 -53.665  12.439  1.00  0.00     0.166 HD
BRANCH  10  14
HETATM   14  N   UNL     1     -41.774 -54.273  14.329  1.00  0.00    -0.367 N 
HETATM   15  C   UNL     1     -40.695 -54.620  15.250  1.00  0.00     0.124 C 
HETATM   16  C   UNL     1     -41.338 -55.546  16.283  1.00  0.00     0.021 C 
HETATM   17  C   UNL     1     -42.822 -55.236  16.200  1.00  0.00     0.021 C 
HETATM   18  C   UNL     1     -43.040 -54.869  14.737  1.00  0.00     0.124 C 
ENDBRANCH  10  14
ENDBRANCH   4   7
BRANCH   3  19
HETATM   19  C   UNL     1     -40.058 -46.251  10.714  1.00  0.00     0.130 C 
BRANCH  19  20
HETATM   20  C   UNL     1     -40.931 -45.004  10.550  1.00  0.00     0.018 C 
HETATM   21  C   UNL     1     -40.126 -43.712  10.802  1.00  0.00     0.022 C 
HETATM   22  C   UNL     1     -41.012 -42.641  11.444  1.00  0.00     0.141 C 
HETATM   23  S   UNL     1     -42.649 -43.313  11.552  1.00  0.00     0.144 S 
HETATM   24  O   UNL     1     -43.208 -43.017  12.854  1.00  0.00    -0.228 OA
HETATM   25  O   UNL     1     -43.349 -43.013  10.319  1.00  0.00    -0.228 OA
HETATM   26  C   UNL     1     -42.129 -45.005  11.504  1.00  0.00     0.146 C 
ENDBRANCH  19  20
ENDBRANCH   3  19
TORSDOF 4
ENDMDL
MODEL 6
REMARK VINA RESULT:      -6.2      4.144      9.182
REMARK  4 active torsions:
REMARK  status: ('A' for Active; 'I' for Inactive)
REMARK       I    between atoms: C_2  and  N_3 
REMARK       I    between atoms: C_2  and  N_12 
REMARK    1  A    between atoms: N_3  and  C_4 
REMARK    2  A    between atoms: C_4  and  C_5 
REMARK    3  A    between atoms: N_12  and  C_13 
REMARK    4  A    between atoms: C_16  and  N_20 
ROOT
HETATM    1  O   UNL     1     -42.282 -49.801  12.881  1.00  0.00    -0.247 OA
HETATM    2  C   UNL     1     -41.652 -50.080  11.869  1.00  0.00     0.320 C 
HETATM    3  N   UNL     1     -41.612 -49.232  10.777  1.00  0.00    -0.342 N 
HETATM    4  N   UNL     1     -40.929 -51.231  11.644  1.00  0.00    -0.308 N 
HETATM    5  H   UNL     1     -40.868 -49.369  10.109  1.00  0.00     0.164 HD
HETATM    6  H   UNL     1     -40.572 -51.359  10.708  1.00  0.00     0.170 HD
ENDROOT
BRANCH   4   7
HETATM    7  C   UNL     1     -40.697 -52.285  12.557  1.00  0.00     0.051 A 
HETATM    8  C   UNL     1     -41.520 -53.388  12.718  1.00  0.00     0.035 A 
HETATM    9  C   UNL     1     -41.196 -54.366  13.667  1.00  0.00     0.051 A 
HETATM   10  C   UNL     1     -40.053 -54.248  14.458  1.00  0.00     0.103 A 
HETATM   11  N   UNL     1     -39.257 -53.167  14.317  1.00  0.00    -0.350 N 
HETATM   12  C   UNL     1     -39.581 -52.233  13.384  1.00  0.00     0.119 A 
ATOM     13  HN  UNL     1     -38.427 -53.054  14.900  1.00  0.00     0.166 HD
BRANCH  10  14
HETATM   14  N   UNL     1     -39.736 -55.198  15.409  1.00  0.00    -0.367 N 
HETATM   15  C   UNL     1     -38.360 -55.402  15.854  1.00  0.00     0.124 C 
HETATM   16  C   UNL     1     -38.480 -55.971  17.268  1.00  0.00     0.021 C 
HETATM   17  C   UNL     1     -39.865 -55.553  17.730  1.00  0.00     0.021 C 
HETATM   18  C   UNL     1     -40.694 -55.549  16.451  1.00  0.00     0.124 C 
ENDBRANCH  10  14
ENDBRANCH   4   7
BRANCH   3  19
HETATM   19  C   UNL     1     -42.234 -47.922  10.816  1.00  0.00     0.130 C 
BRANCH  19  20
HETATM   20  C   UNL     1     -41.220 -46.788  10.639  1.00  0.00     0.018 C 
HETATM   21  C   UNL     1     -40.170 -46.787  11.770  1.00  0.00     0.022 C 
HETATM   22  C   UNL     1     -39.735 -45.356  12.101  1.00  0.00     0.141 C 
HETATM   23  S   UNL     1     -40.569 -44.282  10.964  1.00  0.00     0.144 S 
HETATM   24  O   UNL     1     -41.090 -43.135  11.677  1.00  0.00    -0.228 OA
HETATM   25  O   UNL     1     -39.751 -44.151   9.774  1.00  0.00    -0.228 OA
HETATM   26  C   UNL     1     -41.888 -45.410  10.617  1.00  0.00     0.146 C 
ENDBRANCH  19  20
ENDBRANCH   3  19
TORSDOF 4
ENDMDL
MODEL 7
REMARK VINA RESULT:      -6.1      2.272      2.935
REMARK  4 active torsions:
REMARK  status: ('A' for Active; 'I' for Inactive)
REMARK       I    between atoms: C_2  and  N_3 
REMARK       I    between atoms: C_2  and  N_12 
REMARK    1  A    between atoms: N_3  and  C_4 
REMARK    2  A    between atoms: C_4  and  C_5 
REMARK    3  A    between atoms: N_12  and  C_13 
REMARK    4  A    between atoms: C_16  and  N_20 
ROOT
HETATM    1  O   UNL     1     -42.904 -50.230  13.135  1.00  0.00    -0.247 OA
HETATM    2  C   UNL     1     -42.259 -50.616  12.169  1.00  0.00     0.320 C 
HETATM    3  N   UNL     1     -42.045 -51.961  11.924  1.00  0.00    -0.342 N 
HETATM    4  N   UNL     1     -41.649 -49.825  11.220  1.00  0.00    -0.308 N 
HETATM    5  H   UNL     1     -41.767 -52.225  10.990  1.00  0.00     0.164 HD
HETATM    6  H   UNL     1     -41.051 -50.300  10.559  1.00  0.00     0.170 HD
ENDROOT
BRANCH   4   7
HETATM    7  C   UNL     1     -41.709 -48.416  11.117  1.00  0.00     0.051 A 
HETATM    8  C   UNL     1     -42.814 -47.701  10.686  1.00  0.00     0.035 A 
HETATM    9  C   UNL     1     -42.754 -46.303  10.611  1.00  0.00     0.051 A 
HETATM   10  C   UNL     1     -41.593 -45.615  10.965  1.00  0.00     0.103 A 
HETATM   11  N   UNL     1     -40.508 -46.308  11.371  1.00  0.00    -0.350 N 
HETATM   12  C   UNL     1     -40.588 -47.663  11.447  1.00  0.00     0.119 A 
ATOM     13  HN  UNL     1     -39.644 -45.824  11.616  1.00  0.00     0.166 HD
BRANCH  10  14
HETATM   14  N   UNL     1     -41.519 -44.239  10.877  1.00  0.00    -0.367 N 
HETATM   15  C   UNL     1     -42.625 -43.387  11.302  1.00  0.00     0.124 C 
HETATM   16  C   UNL     1     -41.978 -42.055  11.684  1.00  0.00     0.021 C 
HETATM   17  C   UNL     1     -40.527 -42.405  11.965  1.00  0.00     0.021 C 
HETATM   18  C   UNL     1     -40.236 -43.559  11.013  1.00  0.00     0.124 C 
ENDBRANCH  10  14
ENDBRANCH   4   7
BRANCH   3  19
HETATM   19  C   UNL     1     -42.662 -52.984  12.747  1.00  0.00     0.130 C 
BRANCH  19  20
HETATM   20  C   UNL     1     -41.630 -53.915  13.392  1.00  0.00     0.018 C 
HETATM   21  C   UNL     1     -42.192 -54.590  14.661  1.00  0.00     0.022 C 
HETATM   22  C   UNL     1     -41.084 -54.798  15.697  1.00  0.00     0.141 C 
HETATM   23  S   UNL     1     -39.570 -54.247  14.959  1.00  0.00     0.144 S 
HETATM   24  O   UNL     1     -38.827 -53.454  15.915  1.00  0.00    -0.228 OA
HETATM   25  O   UNL     1     -38.977 -55.361  14.246  1.00  0.00    -0.228 OA
HETATM   26  C   UNL     1     -40.347 -53.177  13.782  1.00  0.00     0.146 C 
ENDBRANCH  19  20
ENDBRANCH   3  19
TORSDOF 4
ENDMDL
MODEL 8
REMARK VINA RESULT:      -6.0      4.210      9.060
REMARK  4 active torsions:
REMARK  status: ('A' for Active; 'I' for Inactive)
REMARK       I    between atoms: C_2  and  N_3 
REMARK       I    between atoms: C_2  and  N_12 
REMARK    1  A    between atoms: N_3  and  C_4 
REMARK    2  A    between atoms: C_4  and  C_5 
REMARK    3  A    between atoms: N_12  and  C_13 
REMARK    4  A    between atoms: C_16  and  N_20 
ROOT
HETATM    1  O   UNL     1     -40.289 -46.442  12.915  1.00  0.00    -0.247 OA
HETATM    2  C   UNL     1     -40.341 -46.519  11.694  1.00  0.00     0.320 C 
HETATM    3  N   UNL     1     -40.208 -45.404  10.886  1.00  0.00    -0.342 N 
HETATM    4  N   UNL     1     -40.550 -47.661  10.953  1.00  0.00    -0.308 N 
HETATM    5  H   UNL     1     -39.974 -45.559   9.916  1.00  0.00     0.164 HD
HETATM    6  H   UNL     1     -40.690 -47.531   9.961  1.00  0.00     0.170 HD
ENDROOT
BRANCH   4   7
HETATM    7  C   UNL     1     -40.664 -48.984  11.438  1.00  0.00     0.051 A 
HETATM    8  C   UNL     1     -41.839 -49.562  11.891  1.00  0.00     0.035 A 
HETATM    9  C   UNL     1     -41.829 -50.881  12.363  1.00  0.00     0.051 A 
HETATM   10  C   UNL     1     -40.651 -51.626  12.386  1.00  0.00     0.103 A 
HETATM   11  N   UNL     1     -39.500 -51.063  11.960  1.00  0.00    -0.350 N 
HETATM   12  C   UNL     1     -39.530 -49.786  11.495  1.00  0.00     0.119 A 
ATOM     13  HN  UNL     1     -38.625 -51.587  11.986  1.00  0.00     0.166 HD
BRANCH  10  14
HETATM   14  N   UNL     1     -40.629 -52.921  12.866  1.00  0.00    -0.367 N 
HETATM   15  C   UNL     1     -39.633 -53.356  13.841  1.00  0.00     0.124 C 
HETATM   16  C   UNL     1     -40.289 -54.515  14.591  1.00  0.00     0.021 C 
HETATM   17  C   UNL     1     -41.778 -54.315  14.371  1.00  0.00     0.021 C 
HETATM   18  C   UNL     1     -41.865 -53.686  12.986  1.00  0.00     0.124 C 
ENDBRANCH  10  14
ENDBRANCH   4   7
BRANCH   3  19
HETATM   19  C   UNL     1     -39.899 -44.101  11.444  1.00  0.00     0.130 C 
BRANCH  19  20
HETATM   20  C   UNL     1     -41.078 -43.129  11.344  1.00  0.00     0.018 C 
HETATM   21  C   UNL     1     -40.655 -41.688  11.700  1.00  0.00     0.022 C 
HETATM   22  C   UNL     1     -41.802 -40.944  12.392  1.00  0.00     0.141 C 
HETATM   23  S   UNL     1     -43.194 -42.041  12.416  1.00  0.00     0.144 S 
HETATM   24  O   UNL     1     -43.818 -42.000  13.722  1.00  0.00    -0.228 OA
HETATM   25  O   UNL     1     -43.945 -41.855  11.190  1.00  0.00    -0.228 OA
HETATM   26  C   UNL     1     -42.234 -43.521  12.268  1.00  0.00     0.146 C 
ENDBRANCH  19  20
ENDBRANCH   3  19
TORSDOF 4
ENDMDL
MODEL 9
REMARK VINA RESULT:      -5.9      4.241      9.427
REMARK  4 active torsions:
REMARK  status: ('A' for Active; 'I' for Inactive)
REMARK       I    between atoms: C_2  and  N_3 
REMARK       I    between atoms: C_2  and  N_12 
REMARK    1  A    between atoms: N_3  and  C_4 
REMARK    2  A    between atoms: C_4  and  C_5 
REMARK    3  A    between atoms: N_12  and  C_13 
REMARK    4  A    between atoms: C_16  and  N_20 
ROOT
HETATM    1  O   UNL     1     -39.344 -50.838  13.231  1.00  0.00    -0.247 OA
HETATM    2  C   UNL     1     -40.174 -51.382  12.514  1.00  0.00     0.320 C 
HETATM    3  N   UNL     1     -40.661 -50.775  11.371  1.00  0.00    -0.342 N 
HETATM    4  N   UNL     1     -40.752 -52.616  12.719  1.00  0.00    -0.308 N 
HETATM    5  H   UNL     1     -41.106 -51.367  10.684  1.00  0.00     0.164 HD
HETATM    6  H   UNL     1     -41.511 -52.862  12.100  1.00  0.00     0.170 HD
ENDROOT
BRANCH   4   7
HETATM    7  C   UNL     1     -40.450 -53.540  13.746  1.00  0.00     0.051 A 
HETATM    8  C   UNL     1     -41.317 -53.903  14.763  1.00  0.00     0.035 A 
HETATM    9  C   UNL     1     -40.902 -54.821  15.737  1.00  0.00     0.051 A 
HETATM   10  C   UNL     1     -39.624 -55.378  15.700  1.00  0.00     0.103 A 
HETATM   11  N   UNL     1     -38.770 -55.016  14.720  1.00  0.00    -0.350 N 
HETATM   12  C   UNL     1     -39.193 -54.132  13.778  1.00  0.00     0.119 A 
ATOM     13  HN  UNL     1     -37.825 -55.399  14.687  1.00  0.00     0.166 HD
BRANCH  10  14
HETATM   14  N   UNL     1     -39.201 -56.270  16.666  1.00  0.00    -0.367 N 
HETATM   15  C   UNL     1     -38.108 -55.945  17.578  1.00  0.00     0.124 C 
HETATM   16  C   UNL     1     -38.369 -56.787  18.827  1.00  0.00     0.021 C 
HETATM   17  C   UNL     1     -39.851 -57.114  18.762  1.00  0.00     0.021 C 
HETATM   18  C   UNL     1     -40.142 -57.207  17.269  1.00  0.00     0.124 C 
ENDBRANCH  10  14
ENDBRANCH   4   7
BRANCH   3  19
HETATM   19  C   UNL     1     -40.135 -49.504  10.910  1.00  0.00     0.130 C 
BRANCH  19  20
HETATM   20  C   UNL     1     -41.069 -48.334  11.234  1.00  0.00     0.018 C 
HETATM   21  C   UNL     1     -42.193 -48.199  10.185  1.00  0.00     0.022 C 
HETATM   22  C   UNL     1     -42.568 -46.728   9.983  1.00  0.00     0.141 C 
HETATM   23  S   UNL     1     -41.598 -45.781  11.125  1.00  0.00     0.144 S 
HETATM   24  O   UNL     1     -41.063 -44.615  10.454  1.00  0.00    -0.228 OA
HETATM   25  O   UNL     1     -42.324 -45.691  12.377  1.00  0.00    -0.228 OA
HETATM   26  C   UNL     1     -40.324 -46.998  11.300  1.00  0.00     0.146 C 
ENDBRANCH  19  20
ENDBRANCH   3  19
TORSDOF 4
ENDMDL
