MODEL 1
REMARK VINA RESULT:      -5.6      0.000      0.000
REMARK  4 active torsions:
REMARK  status: ('A' for Active; 'I' for Inactive)
REMARK    1  A    between atoms: C_2  and  C_3 
REMARK       I    between atoms: C_2  and  N_10 
REMARK    2  A    between atoms: C_3  and  N_4 
REMARK    3  A    between atoms: N_10  and  C_11 
REMARK    4  A    between atoms: N_14  and  C_17 
ROOT
HETATM    1  O   UNL     1     -38.799 -54.192  13.776  1.00  0.00    -0.272 OA
HETATM    2  C   UNL     1     -39.394 -53.119  13.873  1.00  0.00     0.237 C 
HETATM    3  N   UNL     1     -40.753 -53.104  13.736  1.00  0.00    -0.355 N 
HETATM    4  H   UNL     1     -41.148 -54.031  13.622  1.00  0.00     0.162 HD
ENDROOT
BRANCH   3   5
HETATM    5  C   UNL     1     -41.672 -51.972  13.863  1.00  0.00     0.087 C 
HETATM    6  C   UNL     1     -42.442 -52.032  15.185  1.00  0.00     0.055 C 
HETATM    7  C   UNL     1     -43.550 -53.082  15.144  1.00  0.00     0.275 C 
HETATM    8  N   UNL     1     -44.481 -52.882  14.028  1.00  0.00     0.093 N 
HETATM    9  C   UNL     1     -43.764 -52.911  12.744  1.00  0.00     0.275 C 
HETATM   10  C   UNL     1     -42.619 -51.897  12.660  1.00  0.00     0.055 C 
BRANCH   8  11
HETATM   11  C   UNL     1     -45.339 -51.691  14.185  1.00  0.00     0.223 A 
HETATM   12  C   UNL     1     -46.768 -51.846  14.629  1.00  0.00     0.038 A 
HETATM   13  C   UNL     1     -46.463 -51.472  13.210  1.00  0.00     0.038 A 
ENDBRANCH   8  11
ENDBRANCH   3   5
BRANCH   2  14
HETATM   14  C   UNL     1     -38.642 -51.832  14.108  1.00  0.00     0.249 C 
BRANCH  14  15
HETATM   15  N   UNL     1     -38.235 -51.249  12.859  1.00  0.00    -0.264 N 
HETATM   16  C   UNL     1     -38.881 -50.333  12.093  1.00  0.00     0.213 A 
HETATM   17  N   UNL     1     -38.142 -50.085  11.036  1.00  0.00    -0.281 N 
HETATM   18  N   UNL     1     -37.026 -50.880  11.161  1.00  0.00    -0.008 NA
ATOM     19  HN  UNL     1     -38.353 -49.437  10.278  1.00  0.00     0.184 HD
HETATM   20  N   UNL     1     -37.081 -51.605  12.270  1.00  0.00    -0.005 NA
ENDBRANCH  14  15
ENDBRANCH   2  14
TORSDOF 4
ENDMDL
MODEL 2
REMARK VINA RESULT:      -5.5      6.310      8.467
REMARK  4 active torsions:
REMARK  status: ('A' for Active; 'I' for Inactive)
REMARK    1  A    between atoms: C_2  and  C_3 
REMARK       I    between atoms: C_2  and  N_10 
REMARK    2  A    between atoms: C_3  and  N_4 
REMARK    3  A    between atoms: N_10  and  C_11 
REMARK    4  A    between atoms: N_14  and  C_17 
ROOT
HETATM    1  O   UNL     1     -43.942 -44.850   8.808  1.00  0.00    -0.272 OA
HETATM    2  C   UNL     1     -43.508 -45.894   9.294  1.00  0.00     0.237 C 
HETATM    3  N   UNL     1     -42.974 -45.864  10.551  1.00  0.00    -0.355 N 
HETATM    4  H   UNL     1     -43.051 -44.953  10.991  1.00  0.00     0.162 HD
ENDROOT
BRANCH   3   5
HETATM    5  C   UNL     1     -42.451 -46.974  11.349  1.00  0.00     0.087 C 
HETATM    6  C   UNL     1     -42.719 -46.756  12.841  1.00  0.00     0.055 C 
HETATM    7  C   UNL     1     -41.767 -45.721  13.438  1.00  0.00     0.275 C 
HETATM    8  N   UNL     1     -40.356 -46.057  13.222  1.00  0.00     0.093 N 
HETATM    9  C   UNL     1     -40.065 -46.183  11.786  1.00  0.00     0.275 C 
HETATM   10  C   UNL     1     -40.961 -47.196  11.068  1.00  0.00     0.055 C 
BRANCH   8  11
HETATM   11  C   UNL     1     -39.903 -47.222  14.008  1.00  0.00     0.223 A 
HETATM   12  C   UNL     1     -38.915 -47.037  15.127  1.00  0.00     0.038 A 
HETATM   13  C   UNL     1     -38.485 -47.697  13.851  1.00  0.00     0.038 A 
ENDBRANCH   8  11
ENDBRANCH   3   5
BRANCH   2  14
HETATM   14  C   UNL     1     -43.531 -47.184   8.511  1.00  0.00     0.249 C 
BRANCH  14  15
HETATM   15  N   UNL     1     -44.856 -47.738   8.489  1.00  0.00    -0.264 N 
HETATM   16  C   UNL     1     -45.850 -47.614   9.406  1.00  0.00     0.213 A 
HETATM   17  N   UNL     1     -46.893 -48.285   8.978  1.00  0.00    -0.281 N 
HETATM   18  N   UNL     1     -46.518 -48.838   7.774  1.00  0.00    -0.008 NA
ATOM     19  HN  UNL     1     -47.796 -48.378   9.441  1.00  0.00     0.184 HD
HETATM   20  N   UNL     1     -45.267 -48.516   7.473  1.00  0.00    -0.005 NA
ENDBRANCH  14  15
ENDBRANCH   2  14
TORSDOF 4
ENDMDL
MODEL 3
REMARK VINA RESULT:      -5.3      5.625      7.500
REMARK  4 active torsions:
REMARK  status: ('A' for Active; 'I' for Inactive)
REMARK    1  A    between atoms: C_2  and  C_3 
REMARK       I    between atoms: C_2  and  N_10 
REMARK    2  A    between atoms: C_3  and  N_4 
REMARK    3  A    between atoms: N_10  and  C_11 
REMARK    4  A    between atoms: N_14  and  C_17 
ROOT
HETATM    1  O   UNL     1     -39.384 -44.765   9.543  1.00  0.00    -0.272 OA
HETATM    2  C   UNL     1     -39.991 -45.236  10.505  1.00  0.00     0.237 C 
HETATM    3  N   UNL     1     -40.090 -46.593  10.622  1.00  0.00    -0.355 N 
HETATM    4  H   UNL     1     -39.577 -47.090   9.901  1.00  0.00     0.162 HD
ENDROOT
BRANCH   3   5
HETATM    5  C   UNL     1     -40.708 -47.376  11.693  1.00  0.00     0.087 C 
HETATM    6  C   UNL     1     -39.703 -47.676  12.808  1.00  0.00     0.055 C 
HETATM    7  C   UNL     1     -38.726 -48.778  12.403  1.00  0.00     0.275 C 
HETATM    8  N   UNL     1     -39.402 -50.012  11.989  1.00  0.00     0.093 N 
HETATM    9  C   UNL     1     -40.307 -49.753  10.858  1.00  0.00     0.275 C 
HETATM   10  C   UNL     1     -41.340 -48.658  11.140  1.00  0.00     0.055 C 
BRANCH   8  11
HETATM   11  C   UNL     1     -40.058 -50.725  13.103  1.00  0.00     0.223 A 
HETATM   12  C   UNL     1     -39.488 -52.023  13.605  1.00  0.00     0.038 A 
HETATM   13  C   UNL     1     -40.765 -52.022  12.819  1.00  0.00     0.038 A 
ENDBRANCH   8  11
ENDBRANCH   3   5
BRANCH   2  14
HETATM   14  C   UNL     1     -40.646 -44.338  11.526  1.00  0.00     0.249 C 
BRANCH  14  15
HETATM   15  N   UNL     1     -41.917 -43.870  11.045  1.00  0.00    -0.264 N 
HETATM   16  C   UNL     1     -42.611 -42.760  11.405  1.00  0.00     0.213 A 
HETATM   17  N   UNL     1     -43.724 -42.725  10.709  1.00  0.00    -0.281 N 
HETATM   18  N   UNL     1     -43.707 -43.848   9.914  1.00  0.00    -0.008 NA
ATOM     19  HN  UNL     1     -44.451 -42.012  10.749  1.00  0.00     0.184 HD
HETATM   20  N   UNL     1     -42.608 -44.561  10.122  1.00  0.00    -0.005 NA
ENDBRANCH  14  15
ENDBRANCH   2  14
TORSDOF 4
ENDMDL
MODEL 4
REMARK VINA RESULT:      -5.2      4.218      5.572
REMARK  4 active torsions:
REMARK  status: ('A' for Active; 'I' for Inactive)
REMARK    1  A    between atoms: C_2  and  C_3 
REMARK       I    between atoms: C_2  and  N_10 
REMARK    2  A    between atoms: C_3  and  N_4 
REMARK    3  A    between atoms: N_10  and  C_11 
REMARK    4  A    between atoms: N_14  and  C_17 
ROOT
HETATM    1  O   UNL     1     -44.022 -47.580  10.216  1.00  0.00    -0.272 OA
HETATM    2  C   UNL     1     -43.379 -47.786  11.246  1.00  0.00     0.237 C 
HETATM    3  N   UNL     1     -43.319 -49.057  11.742  1.00  0.00    -0.355 N 
HETATM    4  H   UNL     1     -43.784 -49.735  11.148  1.00  0.00     0.162 HD
ENDROOT
BRANCH   3   5
HETATM    5  C   UNL     1     -42.582 -49.550  12.907  1.00  0.00     0.087 C 
HETATM    6  C   UNL     1     -41.173 -50.004  12.517  1.00  0.00     0.055 C 
HETATM    7  C   UNL     1     -41.194 -51.357  11.808  1.00  0.00     0.275 C 
HETATM    8  N   UNL     1     -41.861 -52.400  12.595  1.00  0.00     0.093 N 
HETATM    9  C   UNL     1     -43.246 -52.013  12.902  1.00  0.00     0.275 C 
HETATM   10  C   UNL     1     -43.361 -50.663  13.616  1.00  0.00     0.055 C 
BRANCH   8  11
HETATM   11  C   UNL     1     -41.098 -52.811  13.790  1.00  0.00     0.223 A 
HETATM   12  C   UNL     1     -40.356 -54.120  13.795  1.00  0.00     0.038 A 
HETATM   13  C   UNL     1     -41.602 -53.965  14.613  1.00  0.00     0.038 A 
ENDBRANCH   8  11
ENDBRANCH   3   5
BRANCH   2  14
HETATM   14  C   UNL     1     -42.693 -46.655  11.972  1.00  0.00     0.249 C 
BRANCH  14  15
HETATM   15  N   UNL     1     -41.607 -46.136  11.187  1.00  0.00    -0.264 N 
HETATM   16  C   UNL     1     -40.371 -46.660  10.986  1.00  0.00     0.213 A 
HETATM   17  N   UNL     1     -39.703 -45.851  10.197  1.00  0.00    -0.281 N 
HETATM   18  N   UNL     1     -40.553 -44.804   9.922  1.00  0.00    -0.008 NA
ATOM     19  HN  UNL     1     -38.749 -45.973   9.858  1.00  0.00     0.184 HD
HETATM   20  N   UNL     1     -41.719 -44.967  10.535  1.00  0.00    -0.005 NA
ENDBRANCH  14  15
ENDBRANCH   2  14
TORSDOF 4
ENDMDL
MODEL 5
REMARK VINA RESULT:      -5.2      2.370      6.348
REMARK  4 active torsions:
REMARK  status: ('A' for Active; 'I' for Inactive)
REMARK    1  A    between atoms: C_2  and  C_3 
REMARK       I    between atoms: C_2  and  N_10 
REMARK    2  A    between atoms: C_3  and  N_4 
REMARK    3  A    between atoms: N_10  and  C_11 
REMARK    4  A    between atoms: N_14  and  C_17 
ROOT
HETATM    1  O   UNL     1     -44.295 -55.016  15.732  1.00  0.00    -0.272 OA
HETATM    2  C   UNL     1     -44.043 -54.570  14.613  1.00  0.00     0.237 C 
HETATM    3  N   UNL     1     -42.820 -54.004  14.389  1.00  0.00    -0.355 N 
HETATM    4  H   UNL     1     -42.202 -54.070  15.191  1.00  0.00     0.162 HD
ENDROOT
BRANCH   3   5
HETATM    5  C   UNL     1     -42.278 -53.461  13.142  1.00  0.00     0.087 C 
HETATM    6  C   UNL     1     -40.815 -53.868  12.953  1.00  0.00     0.055 C 
HETATM    7  C   UNL     1     -39.884 -53.056  13.851  1.00  0.00     0.275 C 
HETATM    8  N   UNL     1     -40.033 -51.609  13.663  1.00  0.00     0.093 N 
HETATM    9  C   UNL     1     -41.418 -51.192  13.928  1.00  0.00     0.275 C 
HETATM   10  C   UNL     1     -42.455 -51.940  13.085  1.00  0.00     0.055 C 
BRANCH   8  11
HETATM   11  C   UNL     1     -39.524 -51.131  12.362  1.00  0.00     0.223 A 
HETATM   12  C   UNL     1     -38.252 -50.331  12.300  1.00  0.00     0.038 A 
HETATM   13  C   UNL     1     -39.569 -49.658  12.062  1.00  0.00     0.038 A 
ENDBRANCH   8  11
ENDBRANCH   3   5
BRANCH   2  14
HETATM   14  C   UNL     1     -45.072 -54.612  13.510  1.00  0.00     0.249 C 
BRANCH  14  15
HETATM   15  N   UNL     1     -45.725 -53.339  13.379  1.00  0.00    -0.264 N 
HETATM   16  C   UNL     1     -46.189 -52.512  14.351  1.00  0.00     0.213 A 
HETATM   17  N   UNL     1     -46.712 -51.454  13.777  1.00  0.00    -0.281 N 
HETATM   18  N   UNL     1     -46.572 -51.650  12.423  1.00  0.00    -0.008 NA
ATOM     19  HN  UNL     1     -47.137 -50.651  14.241  1.00  0.00     0.184 HD
HETATM   20  N   UNL     1     -45.977 -52.809  12.170  1.00  0.00    -0.005 NA
ENDBRANCH  14  15
ENDBRANCH   2  14
TORSDOF 4
ENDMDL
MODEL 6
REMARK VINA RESULT:      -5.2      4.938      7.407
REMARK  4 active torsions:
REMARK  status: ('A' for Active; 'I' for Inactive)
REMARK    1  A    between atoms: C_2  and  C_3 
REMARK       I    between atoms: C_2  and  N_10 
REMARK    2  A    between atoms: C_3  and  N_4 
REMARK    3  A    between atoms: N_10  and  C_11 
REMARK    4  A    between atoms: N_14  and  C_17 
ROOT
HETATM    1  O   UNL     1     -39.955 -44.823   9.804  1.00  0.00    -0.272 OA
HETATM    2  C   UNL     1     -40.566 -45.603  10.535  1.00  0.00     0.237 C 
HETATM    3  N   UNL     1     -39.917 -46.709  11.006  1.00  0.00    -0.355 N 
HETATM    4  H   UNL     1     -38.939 -46.737  10.738  1.00  0.00     0.162 HD
ENDROOT
BRANCH   3   5
HETATM    5  C   UNL     1     -40.412 -47.739  11.921  1.00  0.00     0.087 C 
HETATM    6  C   UNL     1     -40.099 -47.381  13.376  1.00  0.00     0.055 C 
HETATM    7  C   UNL     1     -38.629 -47.620  13.711  1.00  0.00     0.275 C 
HETATM    8  N   UNL     1     -38.198 -48.993  13.426  1.00  0.00     0.093 N 
HETATM    9  C   UNL     1     -38.412 -49.320  12.008  1.00  0.00     0.275 C 
HETATM   10  C   UNL     1     -39.857 -49.117  11.545  1.00  0.00     0.055 C 
BRANCH   8  11
HETATM   11  C   UNL     1     -38.778 -49.993  14.344  1.00  0.00     0.223 A 
HETATM   12  C   UNL     1     -37.896 -50.713  15.327  1.00  0.00     0.038 A 
HETATM   13  C   UNL     1     -38.445 -51.446  14.140  1.00  0.00     0.038 A 
ENDBRANCH   8  11
ENDBRANCH   3   5
BRANCH   2  14
HETATM   14  C   UNL     1     -42.014 -45.368  10.884  1.00  0.00     0.249 C 
BRANCH  14  15
HETATM   15  N   UNL     1     -42.869 -46.189  10.070  1.00  0.00    -0.264 N 
HETATM   16  C   UNL     1     -43.540 -47.320  10.407  1.00  0.00     0.213 A 
HETATM   17  N   UNL     1     -44.200 -47.737   9.351  1.00  0.00    -0.281 N 
HETATM   18  N   UNL     1     -43.912 -46.841   8.347  1.00  0.00    -0.008 NA
ATOM     19  HN  UNL     1     -44.802 -48.558   9.288  1.00  0.00     0.184 HD
HETATM   20  N   UNL     1     -43.088 -45.895   8.778  1.00  0.00    -0.005 NA
ENDBRANCH  14  15
ENDBRANCH   2  14
TORSDOF 4
ENDMDL
MODEL 7
REMARK VINA RESULT:      -5.0      2.831      6.626
REMARK  4 active torsions:
REMARK  status: ('A' for Active; 'I' for Inactive)
REMARK    1  A    between atoms: C_2  and  C_3 
REMARK       I    between atoms: C_2  and  N_10 
REMARK    2  A    between atoms: C_3  and  N_4 
REMARK    3  A    between atoms: N_10  and  C_11 
REMARK    4  A    between atoms: N_14  and  C_17 
ROOT
HETATM    1  O   UNL     1     -45.818 -52.747  12.136  1.00  0.00    -0.272 OA
HETATM    2  C   UNL     1     -44.782 -53.231  12.593  1.00  0.00     0.237 C 
HETATM    3  N   UNL     1     -43.609 -52.550  12.431  1.00  0.00    -0.355 N 
HETATM    4  H   UNL     1     -43.735 -51.648  11.983  1.00  0.00     0.162 HD
ENDROOT
BRANCH   3   5
HETATM    5  C   UNL     1     -42.276 -52.895  12.928  1.00  0.00     0.087 C 
HETATM    6  C   UNL     1     -42.005 -52.237  14.284  1.00  0.00     0.055 C 
HETATM    7  C   UNL     1     -41.696 -50.749  14.136  1.00  0.00     0.275 C 
HETATM    8  N   UNL     1     -40.582 -50.489  13.218  1.00  0.00     0.093 N 
HETATM    9  C   UNL     1     -40.869 -51.040  11.885  1.00  0.00     0.275 C 
HETATM   10  C   UNL     1     -41.199 -52.535  11.899  1.00  0.00     0.055 C 
BRANCH   8  11
HETATM   11  C   UNL     1     -39.272 -50.914  13.749  1.00  0.00     0.223 A 
HETATM   12  C   UNL     1     -38.237 -49.884  14.112  1.00  0.00     0.038 A 
HETATM   13  C   UNL     1     -38.048 -50.735  12.893  1.00  0.00     0.038 A 
ENDBRANCH   8  11
ENDBRANCH   3   5
BRANCH   2  14
HETATM   14  C   UNL     1     -44.792 -54.568  13.292  1.00  0.00     0.249 C 
BRANCH  14  15
HETATM   15  N   UNL     1     -45.021 -54.399  14.701  1.00  0.00    -0.264 N 
HETATM   16  C   UNL     1     -46.044 -53.767  15.331  1.00  0.00     0.213 A 
HETATM   17  N   UNL     1     -45.850 -53.857  16.626  1.00  0.00    -0.281 N 
HETATM   18  N   UNL     1     -44.674 -54.554  16.784  1.00  0.00    -0.008 NA
ATOM     19  HN  UNL     1     -46.448 -53.487  17.364  1.00  0.00     0.184 HD
HETATM   20  N   UNL     1     -44.154 -54.880  15.608  1.00  0.00    -0.005 NA
ENDBRANCH  14  15
ENDBRANCH   2  14
TORSDOF 4
ENDMDL
MODEL 8
REMARK VINA RESULT:      -5.0      2.875      4.089
REMARK  4 active torsions:
REMARK  status: ('A' for Active; 'I' for Inactive)
REMARK    1  A    between atoms: C_2  and  C_3 
REMARK       I    between atoms: C_2  and  N_10 
REMARK    2  A    between atoms: C_3  and  N_4 
REMARK    3  A    between atoms: N_10  and  C_11 
REMARK    4  A    between atoms: N_14  and  C_17 
ROOT
HETATM    1  O   UNL     1     -37.672 -50.165  11.202  1.00  0.00    -0.272 OA
HETATM    2  C   UNL     1     -38.622 -50.074  11.980  1.00  0.00     0.237 C 
HETATM    3  N   UNL     1     -39.264 -51.214  12.374  1.00  0.00    -0.355 N 
HETATM    4  H   UNL     1     -38.830 -52.056  12.011  1.00  0.00     0.162 HD
ENDROOT
BRANCH   3   5
HETATM    5  C   UNL     1     -40.370 -51.359  13.321  1.00  0.00     0.087 C 
HETATM    6  C   UNL     1     -39.864 -51.797  14.697  1.00  0.00     0.055 C 
HETATM    7  C   UNL     1     -39.495 -53.280  14.716  1.00  0.00     0.275 C 
HETATM    8  N   UNL     1     -40.599 -54.144  14.285  1.00  0.00     0.093 N 
HETATM    9  C   UNL     1     -41.037 -53.790  12.927  1.00  0.00     0.275 C 
HETATM   10  C   UNL     1     -41.434 -52.319  12.777  1.00  0.00     0.055 C 
BRANCH   8  11
HETATM   11  C   UNL     1     -41.711 -54.203  15.255  1.00  0.00     0.223 A 
HETATM   12  C   UNL     1     -41.997 -55.479  15.997  1.00  0.00     0.038 A 
HETATM   13  C   UNL     1     -42.928 -55.020  14.916  1.00  0.00     0.038 A 
ENDBRANCH   8  11
ENDBRANCH   3   5
BRANCH   2  14
HETATM   14  C   UNL     1     -39.097 -48.728  12.472  1.00  0.00     0.249 C 
BRANCH  14  15
HETATM   15  N   UNL     1     -40.042 -48.160  11.551  1.00  0.00    -0.264 N 
HETATM   16  C   UNL     1     -40.143 -46.879  11.112  1.00  0.00     0.213 A 
HETATM   17  N   UNL     1     -41.153 -46.808  10.277  1.00  0.00    -0.281 N 
HETATM   18  N   UNL     1     -41.684 -48.076  10.217  1.00  0.00    -0.008 NA
ATOM     19  HN  UNL     1     -41.478 -45.982   9.775  1.00  0.00     0.184 HD
HETATM   20  N   UNL     1     -41.015 -48.908  11.005  1.00  0.00    -0.005 NA
ENDBRANCH  14  15
ENDBRANCH   2  14
TORSDOF 4
ENDMDL
MODEL 9
REMARK VINA RESULT:      -5.0      4.417      5.912
REMARK  4 active torsions:
REMARK  status: ('A' for Active; 'I' for Inactive)
REMARK    1  A    between atoms: C_2  and  C_3 
REMARK       I    between atoms: C_2  and  N_10 
REMARK    2  A    between atoms: C_3  and  N_4 
REMARK    3  A    between atoms: N_10  and  C_11 
REMARK    4  A    between atoms: N_14  and  C_17 
ROOT
HETATM    1  O   UNL     1     -39.841 -46.335  11.138  1.00  0.00    -0.272 OA
HETATM    2  C   UNL     1     -40.700 -47.030  11.681  1.00  0.00     0.237 C 
HETATM    3  N   UNL     1     -40.312 -48.158  12.348  1.00  0.00    -0.355 N 
HETATM    4  H   UNL     1     -39.305 -48.273  12.374  1.00  0.00     0.162 HD
ENDROOT
BRANCH   3   5
HETATM    5  C   UNL     1     -41.136 -49.100  13.107  1.00  0.00     0.087 C 
HETATM    6  C   UNL     1     -40.338 -49.733  14.250  1.00  0.00     0.055 C 
HETATM    7  C   UNL     1     -39.373 -50.801  13.740  1.00  0.00     0.275 C 
HETATM    8  N   UNL     1     -40.045 -51.843  12.956  1.00  0.00     0.093 N 
HETATM    9  C   UNL     1     -40.742 -51.257  11.802  1.00  0.00     0.275 C 
HETATM   10  C   UNL     1     -41.743 -50.162  12.184  1.00  0.00     0.055 C 
BRANCH   8  11
HETATM   11  C   UNL     1     -40.908 -52.724  13.767  1.00  0.00     0.223 A 
HETATM   12  C   UNL     1     -40.530 -54.165  13.975  1.00  0.00     0.038 A 
HETATM   13  C   UNL     1     -41.681 -53.817  13.080  1.00  0.00     0.038 A 
ENDBRANCH   8  11
ENDBRANCH   3   5
BRANCH   2  14
HETATM   14  C   UNL     1     -42.163 -46.668  11.591  1.00  0.00     0.249 C 
BRANCH  14  15
HETATM   15  N   UNL     1     -42.598 -46.663  10.222  1.00  0.00    -0.264 N 
HETATM   16  C   UNL     1     -42.844 -47.715   9.400  1.00  0.00     0.213 A 
HETATM   17  N   UNL     1     -43.223 -47.247   8.233  1.00  0.00    -0.281 N 
HETATM   18  N   UNL     1     -43.196 -45.876   8.350  1.00  0.00    -0.008 NA
ATOM     19  HN  UNL     1     -43.484 -47.788   7.410  1.00  0.00     0.184 HD
HETATM   20  N   UNL     1     -42.803 -45.510   9.563  1.00  0.00    -0.005 NA
ENDBRANCH  14  15
ENDBRANCH   2  14
TORSDOF 4
ENDMDL
