MODEL 1
REMARK VINA RESULT:      -6.6      0.000      0.000
REMARK  5 active torsions:
REMARK  status: ('A' for Active; 'I' for Inactive)
REMARK    1  A    between atoms: O_2  and  C_3 
REMARK    2  A    between atoms: C_3  and  C_4 
REMARK    3  A    between atoms: C_4  and  N_5 
REMARK    4  A    between atoms: C_8  and  C_13 
REMARK       I    between atoms: C_13  and  N_15 
REMARK    5  A    between atoms: N_15  and  C_16 
ROOT
HETATM    1  N   UNL     1     -41.898 -47.733  10.690  1.00  0.00    -0.255 N 
HETATM    2  N   UNL     1     -42.408 -48.952  11.139  1.00  0.00    -0.290 N 
ATOM      3  HN  UNL     1     -43.311 -49.306  10.822  1.00  0.00     0.187 HD
HETATM    4  C   UNL     1     -41.671 -49.612  11.982  1.00  0.00     0.116 A 
HETATM    5  C   UNL     1     -40.370 -49.160  12.514  1.00  0.00     0.042 A 
HETATM    6  C   UNL     1     -39.891 -48.012  12.041  1.00  0.00     0.078 A 
HETATM    7  C   UNL     1     -40.647 -47.229  11.045  1.00  0.00     0.262 A 
HETATM    8  O   UNL     1     -40.132 -46.209  10.596  1.00  0.00    -0.267 OA
ENDROOT
BRANCH   4   9
HETATM    9  C   UNL     1     -42.136 -50.972  12.501  1.00  0.00     0.269 C 
HETATM   10  O   UNL     1     -41.295 -51.812  12.794  1.00  0.00    -0.266 OA
HETATM   11  N   UNL     1     -43.498 -51.122  12.650  1.00  0.00    -0.351 N 
HETATM   12  H   UNL     1     -44.084 -50.409  12.233  1.00  0.00     0.163 HD
BRANCH  11  13
HETATM   13  C   UNL     1     -44.091 -52.323  13.241  1.00  0.00     0.085 C 
HETATM   14  C   UNL     1     -45.412 -52.691  12.553  1.00  0.00     0.025 C 
HETATM   15  C   UNL     1     -46.531 -51.689  12.853  1.00  0.00     0.002 C 
HETATM   16  C   UNL     1     -46.710 -51.432  14.350  1.00  0.00     0.004 C 
HETATM   17  C   UNL     1     -45.384 -51.073  15.032  1.00  0.00    -0.017 C 
HETATM   18  C   UNL     1     -45.568 -50.862  16.533  1.00  0.00     0.010 C 
HETATM   19  C   UNL     1     -44.343 -52.165  14.755  1.00  0.00     0.029 C 
ENDBRANCH  11  13
ENDBRANCH   4   9
BRANCH   1  20
HETATM   20  C   UNL     1     -42.707 -46.992   9.723  1.00  0.00     0.178 C 
BRANCH  20  21
HETATM   21  C   UNL     1     -44.181 -47.397   9.732  1.00  0.00     0.189 C 
BRANCH  21  22
HETATM   22  O   UNL     1     -44.592 -47.837   8.436  1.00  0.00    -0.394 OA
HETATM   23  C   UNL     1     -43.488 -47.944   7.548  1.00  0.00     0.201 C 
ENDBRANCH  21  22
ENDBRANCH  20  21
ENDBRANCH   1  20
TORSDOF 5
ENDMDL
MODEL 2
REMARK VINA RESULT:      -6.6      1.537      1.935
REMARK  5 active torsions:
REMARK  status: ('A' for Active; 'I' for Inactive)
REMARK    1  A    between atoms: O_2  and  C_3 
REMARK    2  A    between atoms: C_3  and  C_4 
REMARK    3  A    between atoms: C_4  and  N_5 
REMARK    4  A    between atoms: C_8  and  C_13 
REMARK       I    between atoms: C_13  and  N_15 
REMARK    5  A    between atoms: N_15  and  C_16 
ROOT
HETATM    1  N   UNL     1     -43.066 -47.281   9.893  1.00  0.00    -0.255 N 
HETATM    2  N   UNL     1     -42.957 -48.506  10.554  1.00  0.00    -0.290 N 
ATOM      3  HN  UNL     1     -43.120 -49.391  10.074  1.00  0.00     0.187 HD
HETATM    4  C   UNL     1     -42.636 -48.457  11.812  1.00  0.00     0.116 A 
HETATM    5  C   UNL     1     -42.414 -47.222  12.589  1.00  0.00     0.042 A 
HETATM    6  C   UNL     1     -42.488 -46.071  11.926  1.00  0.00     0.078 A 
HETATM    7  C   UNL     1     -42.799 -46.046  10.484  1.00  0.00     0.262 A 
HETATM    8  O   UNL     1     -42.795 -44.962   9.907  1.00  0.00    -0.267 OA
ENDROOT
BRANCH   4   9
HETATM    9  C   UNL     1     -42.463 -49.752  12.606  1.00  0.00     0.269 C 
HETATM   10  O   UNL     1     -41.353 -50.037  13.036  1.00  0.00    -0.266 OA
HETATM   11  N   UNL     1     -43.613 -50.480  12.821  1.00  0.00    -0.351 N 
HETATM   12  H   UNL     1     -44.431 -50.211  12.288  1.00  0.00     0.163 HD
BRANCH  11  13
HETATM   13  C   UNL     1     -43.631 -51.681  13.658  1.00  0.00     0.085 C 
HETATM   14  C   UNL     1     -44.001 -52.927  12.841  1.00  0.00     0.025 C 
HETATM   15  C   UNL     1     -45.463 -52.919  12.387  1.00  0.00     0.002 C 
HETATM   16  C   UNL     1     -46.439 -52.672  13.538  1.00  0.00     0.004 C 
HETATM   17  C   UNL     1     -46.058 -51.431  14.356  1.00  0.00    -0.017 C 
HETATM   18  C   UNL     1     -47.013 -51.220  15.528  1.00  0.00     0.010 C 
HETATM   19  C   UNL     1     -44.608 -51.554  14.844  1.00  0.00     0.029 C 
ENDBRANCH  11  13
ENDBRANCH   4   9
BRANCH   1  20
HETATM   20  C   UNL     1     -43.404 -47.323   8.470  1.00  0.00     0.178 C 
BRANCH  20  21
HETATM   21  C   UNL     1     -44.794 -47.895   8.196  1.00  0.00     0.189 C 
BRANCH  21  22
HETATM   22  O   UNL     1     -45.608 -47.829   9.370  1.00  0.00    -0.394 OA
HETATM   23  C   UNL     1     -46.821 -47.132   9.123  1.00  0.00     0.201 C 
ENDBRANCH  21  22
ENDBRANCH  20  21
ENDBRANCH   1  20
TORSDOF 5
ENDMDL
MODEL 3
REMARK VINA RESULT:      -6.1      2.383      6.344
REMARK  5 active torsions:
REMARK  status: ('A' for Active; 'I' for Inactive)
REMARK    1  A    between atoms: O_2  and  C_3 
REMARK    2  A    between atoms: C_3  and  C_4 
REMARK    3  A    between atoms: C_4  and  N_5 
REMARK    4  A    between atoms: C_8  and  C_13 
REMARK       I    between atoms: C_13  and  N_15 
REMARK    5  A    between atoms: N_15  and  C_16 
ROOT
HETATM    1  N   UNL     1     -44.395 -53.241  13.061  1.00  0.00    -0.255 N 
HETATM    2  N   UNL     1     -43.603 -52.216  12.542  1.00  0.00    -0.290 N 
ATOM      3  HN  UNL     1     -44.009 -51.418  12.053  1.00  0.00     0.187 HD
HETATM    4  C   UNL     1     -42.320 -52.331  12.715  1.00  0.00     0.116 A 
HETATM    5  C   UNL     1     -41.648 -53.464  13.382  1.00  0.00     0.042 A 
HETATM    6  C   UNL     1     -42.429 -54.409  13.900  1.00  0.00     0.078 A 
HETATM    7  C   UNL     1     -43.897 -54.323  13.787  1.00  0.00     0.262 A 
HETATM    8  O   UNL     1     -44.574 -55.189  14.336  1.00  0.00    -0.267 OA
ENDROOT
BRANCH   4   9
HETATM    9  C   UNL     1     -41.379 -51.239  12.207  1.00  0.00     0.269 C 
HETATM   10  O   UNL     1     -40.177 -51.467  12.166  1.00  0.00    -0.266 OA
HETATM   11  N   UNL     1     -41.986 -50.079  11.777  1.00  0.00    -0.351 N 
HETATM   12  H   UNL     1     -42.967 -49.966  12.003  1.00  0.00     0.163 HD
BRANCH  11  13
HETATM   13  C   UNL     1     -41.232 -48.987  11.159  1.00  0.00     0.085 C 
HETATM   14  C   UNL     1     -40.749 -47.977  12.209  1.00  0.00     0.025 C 
HETATM   15  C   UNL     1     -41.898 -47.170  12.821  1.00  0.00     0.002 C 
HETATM   16  C   UNL     1     -42.795 -46.522  11.765  1.00  0.00     0.004 C 
HETATM   17  C   UNL     1     -43.267 -47.536  10.714  1.00  0.00    -0.017 C 
HETATM   18  C   UNL     1     -44.125 -46.870   9.641  1.00  0.00     0.010 C 
HETATM   19  C   UNL     1     -42.055 -48.241  10.089  1.00  0.00     0.029 C 
ENDBRANCH  11  13
ENDBRANCH   4   9
BRANCH   1  20
HETATM   20  C   UNL     1     -45.842 -53.110  12.894  1.00  0.00     0.178 C 
BRANCH  20  21
HETATM   21  C   UNL     1     -46.325 -51.661  12.931  1.00  0.00     0.189 C 
BRANCH  21  22
HETATM   22  O   UNL     1     -46.072 -51.076  14.211  1.00  0.00    -0.394 OA
HETATM   23  C   UNL     1     -46.937 -51.608  15.206  1.00  0.00     0.201 C 
ENDBRANCH  21  22
ENDBRANCH  20  21
ENDBRANCH   1  20
TORSDOF 5
ENDMDL
MODEL 4
REMARK VINA RESULT:      -5.8      5.638      7.409
REMARK  5 active torsions:
REMARK  status: ('A' for Active; 'I' for Inactive)
REMARK    1  A    between atoms: O_2  and  C_3 
REMARK    2  A    between atoms: C_3  and  C_4 
REMARK    3  A    between atoms: C_4  and  N_5 
REMARK    4  A    between atoms: C_8  and  C_13 
REMARK       I    between atoms: C_13  and  N_15 
REMARK    5  A    between atoms: N_15  and  C_16 
ROOT
HETATM    1  N   UNL     1     -39.809 -54.597  15.388  1.00  0.00    -0.255 N 
HETATM    2  N   UNL     1     -41.044 -54.756  16.018  1.00  0.00    -0.290 N 
ATOM      3  HN  UNL     1     -41.115 -55.009  17.004  1.00  0.00     0.187 HD
HETATM    4  C   UNL     1     -42.099 -54.564  15.283  1.00  0.00     0.116 A 
HETATM    5  C   UNL     1     -42.086 -54.227  13.845  1.00  0.00     0.042 A 
HETATM    6  C   UNL     1     -40.896 -54.045  13.279  1.00  0.00     0.078 A 
HETATM    7  C   UNL     1     -39.654 -54.197  14.060  1.00  0.00     0.262 A 
HETATM    8  O   UNL     1     -38.585 -53.957  13.505  1.00  0.00    -0.267 OA
ENDROOT
BRANCH   4   9
HETATM    9  C   UNL     1     -43.492 -54.685  15.899  1.00  0.00     0.269 C 
HETATM   10  O   UNL     1     -43.616 -55.275  16.966  1.00  0.00    -0.266 OA
HETATM   11  N   UNL     1     -44.507 -54.057  15.212  1.00  0.00    -0.351 N 
HETATM   12  H   UNL     1     -44.295 -53.736  14.275  1.00  0.00     0.163 HD
BRANCH  11  13
HETATM   13  C   UNL     1     -45.874 -53.987  15.732  1.00  0.00     0.085 C 
HETATM   14  C   UNL     1     -46.893 -53.781  14.602  1.00  0.00     0.025 C 
HETATM   15  C   UNL     1     -46.796 -52.389  13.970  1.00  0.00     0.002 C 
HETATM   16  C   UNL     1     -46.844 -51.264  15.005  1.00  0.00     0.004 C 
HETATM   17  C   UNL     1     -45.830 -51.481  16.136  1.00  0.00    -0.017 C 
HETATM   18  C   UNL     1     -45.918 -50.376  17.185  1.00  0.00     0.010 C 
HETATM   19  C   UNL     1     -46.047 -52.861  16.772  1.00  0.00     0.029 C 
ENDBRANCH  11  13
ENDBRANCH   4   9
BRANCH   1  20
HETATM   20  C   UNL     1     -38.615 -54.786  16.210  1.00  0.00     0.178 C 
BRANCH  20  21
HETATM   21  C   UNL     1     -38.756 -55.920  17.226  1.00  0.00     0.189 C 
BRANCH  21  22
HETATM   22  O   UNL     1     -39.403 -57.050  16.635  1.00  0.00    -0.394 OA
HETATM   23  C   UNL     1     -39.614 -58.084  17.587  1.00  0.00     0.201 C 
ENDBRANCH  21  22
ENDBRANCH  20  21
ENDBRANCH   1  20
TORSDOF 5
ENDMDL
MODEL 5
REMARK VINA RESULT:      -5.7      2.263      3.539
REMARK  5 active torsions:
REMARK  status: ('A' for Active; 'I' for Inactive)
REMARK    1  A    between atoms: O_2  and  C_3 
REMARK    2  A    between atoms: C_3  and  C_4 
REMARK    3  A    between atoms: C_4  and  N_5 
REMARK    4  A    between atoms: C_8  and  C_13 
REMARK       I    between atoms: C_13  and  N_15 
REMARK    5  A    between atoms: N_15  and  C_16 
ROOT
HETATM    1  N   UNL     1     -40.887 -51.010  11.991  1.00  0.00    -0.255 N 
HETATM    2  N   UNL     1     -42.236 -51.366  12.032  1.00  0.00    -0.290 N 
ATOM      3  HN  UNL     1     -42.942 -50.860  11.497  1.00  0.00     0.187 HD
HETATM    4  C   UNL     1     -42.545 -52.377  12.789  1.00  0.00     0.116 A 
HETATM    5  C   UNL     1     -41.594 -53.144  13.619  1.00  0.00     0.042 A 
HETATM    6  C   UNL     1     -40.310 -52.806  13.532  1.00  0.00     0.078 A 
HETATM    7  C   UNL     1     -39.875 -51.701  12.656  1.00  0.00     0.262 A 
HETATM    8  O   UNL     1     -38.672 -51.471  12.565  1.00  0.00    -0.267 OA
ENDROOT
BRANCH   4   9
HETATM    9  C   UNL     1     -43.994 -52.856  12.869  1.00  0.00     0.269 C 
HETATM   10  O   UNL     1     -44.461 -53.485  11.928  1.00  0.00    -0.266 OA
HETATM   11  N   UNL     1     -44.652 -52.578  14.047  1.00  0.00    -0.351 N 
HETATM   12  H   UNL     1     -44.203 -51.926  14.679  1.00  0.00     0.163 HD
BRANCH  11  13
HETATM   13  C   UNL     1     -46.004 -53.068  14.320  1.00  0.00     0.085 C 
HETATM   14  C   UNL     1     -46.982 -51.910  14.559  1.00  0.00     0.025 C 
HETATM   15  C   UNL     1     -46.714 -51.175  15.876  1.00  0.00     0.002 C 
HETATM   16  C   UNL     1     -46.634 -52.122  17.076  1.00  0.00     0.004 C 
HETATM   17  C   UNL     1     -45.662 -53.282  16.826  1.00  0.00    -0.017 C 
HETATM   18  C   UNL     1     -45.624 -54.243  18.011  1.00  0.00     0.010 C 
HETATM   19  C   UNL     1     -46.048 -54.017  15.535  1.00  0.00     0.029 C 
ENDBRANCH  11  13
ENDBRANCH   4   9
BRANCH   1  20
HETATM   20  C   UNL     1     -40.524 -49.890  11.124  1.00  0.00     0.178 C 
BRANCH  20  21
HETATM   21  C   UNL     1     -41.234 -48.588  11.492  1.00  0.00     0.189 C 
BRANCH  21  22
HETATM   22  O   UNL     1     -42.534 -48.536  10.897  1.00  0.00    -0.394 OA
HETATM   23  C   UNL     1     -42.831 -47.235  10.409  1.00  0.00     0.201 C 
ENDBRANCH  21  22
ENDBRANCH  20  21
ENDBRANCH   1  20
TORSDOF 5
ENDMDL
MODEL 6
REMARK VINA RESULT:      -5.7      2.031      2.590
REMARK  5 active torsions:
REMARK  status: ('A' for Active; 'I' for Inactive)
REMARK    1  A    between atoms: O_2  and  C_3 
REMARK    2  A    between atoms: C_3  and  C_4 
REMARK    3  A    between atoms: C_4  and  N_5 
REMARK    4  A    between atoms: C_8  and  C_13 
REMARK       I    between atoms: C_13  and  N_15 
REMARK    5  A    between atoms: N_15  and  C_16 
ROOT
HETATM    1  N   UNL     1     -40.775 -49.502  11.452  1.00  0.00    -0.255 N 
HETATM    2  N   UNL     1     -41.777 -50.445  11.685  1.00  0.00    -0.290 N 
ATOM      3  HN  UNL     1     -42.737 -50.296  11.374  1.00  0.00     0.187 HD
HETATM    4  C   UNL     1     -41.422 -51.523  12.318  1.00  0.00     0.116 A 
HETATM    5  C   UNL     1     -40.065 -51.805  12.828  1.00  0.00     0.042 A 
HETATM    6  C   UNL     1     -39.121 -50.906  12.560  1.00  0.00     0.078 A 
HETATM    7  C   UNL     1     -39.437 -49.679  11.804  1.00  0.00     0.262 A 
HETATM    8  O   UNL     1     -38.517 -48.913  11.530  1.00  0.00    -0.267 OA
ENDROOT
BRANCH   4   9
HETATM    9  C   UNL     1     -42.448 -52.623  12.587  1.00  0.00     0.269 C 
HETATM   10  O   UNL     1     -42.049 -53.750  12.856  1.00  0.00    -0.266 OA
HETATM   11  N   UNL     1     -43.768 -52.231  12.556  1.00  0.00    -0.351 N 
HETATM   12  H   UNL     1     -43.963 -51.312  12.178  1.00  0.00     0.163 HD
BRANCH  11  13
HETATM   13  C   UNL     1     -44.861 -53.141  12.904  1.00  0.00     0.085 C 
HETATM   14  C   UNL     1     -46.199 -52.652  12.334  1.00  0.00     0.025 C 
HETATM   15  C   UNL     1     -46.704 -51.382  13.025  1.00  0.00     0.002 C 
HETATM   16  C   UNL     1     -46.738 -51.511  14.549  1.00  0.00     0.004 C 
HETATM   17  C   UNL     1     -45.400 -52.008  15.111  1.00  0.00    -0.017 C 
HETATM   18  C   UNL     1     -45.458 -52.175  16.627  1.00  0.00     0.010 C 
HETATM   19  C   UNL     1     -45.005 -53.325  14.429  1.00  0.00     0.029 C 
ENDBRANCH  11  13
ENDBRANCH   4   9
BRANCH   1  20
HETATM   20  C   UNL     1     -41.157 -48.295  10.719  1.00  0.00     0.178 C 
BRANCH  20  21
HETATM   21  C   UNL     1     -41.601 -47.152  11.630  1.00  0.00     0.189 C 
BRANCH  21  22
HETATM   22  O   UNL     1     -40.985 -45.923  11.237  1.00  0.00    -0.394 OA
HETATM   23  C   UNL     1     -39.837 -45.640  12.026  1.00  0.00     0.201 C 
ENDBRANCH  21  22
ENDBRANCH  20  21
ENDBRANCH   1  20
TORSDOF 5
ENDMDL
MODEL 7
REMARK VINA RESULT:      -5.6      3.476      6.892
REMARK  5 active torsions:
REMARK  status: ('A' for Active; 'I' for Inactive)
REMARK    1  A    between atoms: O_2  and  C_3 
REMARK    2  A    between atoms: C_3  and  C_4 
REMARK    3  A    between atoms: C_4  and  N_5 
REMARK    4  A    between atoms: C_8  and  C_13 
REMARK       I    between atoms: C_13  and  N_15 
REMARK    5  A    between atoms: N_15  and  C_16 
ROOT
HETATM    1  N   UNL     1     -43.906 -53.492  13.376  1.00  0.00    -0.255 N 
HETATM    2  N   UNL     1     -42.643 -52.993  13.056  1.00  0.00    -0.290 N 
ATOM      3  HN  UNL     1     -42.516 -52.263  12.354  1.00  0.00     0.187 HD
HETATM    4  C   UNL     1     -41.637 -53.506  13.699  1.00  0.00     0.116 A 
HETATM    5  C   UNL     1     -41.727 -54.584  14.704  1.00  0.00     0.042 A 
HETATM    6  C   UNL     1     -42.947 -55.016  15.017  1.00  0.00     0.078 A 
HETATM    7  C   UNL     1     -44.142 -54.447  14.365  1.00  0.00     0.262 A 
HETATM    8  O   UNL     1     -45.246 -54.837  14.735  1.00  0.00    -0.267 OA
ENDROOT
BRANCH   4   9
HETATM    9  C   UNL     1     -40.221 -52.996  13.434  1.00  0.00     0.269 C 
HETATM   10  O   UNL     1     -39.293 -53.795  13.446  1.00  0.00    -0.266 OA
HETATM   11  N   UNL     1     -40.113 -51.653  13.144  1.00  0.00    -0.351 N 
HETATM   12  H   UNL     1     -40.932 -51.082  13.314  1.00  0.00     0.163 HD
BRANCH  11  13
HETATM   13  C   UNL     1     -38.842 -51.038  12.758  1.00  0.00     0.085 C 
HETATM   14  C   UNL     1     -38.045 -50.581  13.988  1.00  0.00     0.025 C 
HETATM   15  C   UNL     1     -38.693 -49.388  14.698  1.00  0.00     0.002 C 
HETATM   16  C   UNL     1     -39.004 -48.231  13.747  1.00  0.00     0.004 C 
HETATM   17  C   UNL     1     -39.792 -48.697  12.516  1.00  0.00    -0.017 C 
HETATM   18  C   UNL     1     -40.059 -47.542  11.554  1.00  0.00     0.010 C 
HETATM   19  C   UNL     1     -39.038 -49.834  11.814  1.00  0.00     0.029 C 
ENDBRANCH  11  13
ENDBRANCH   4   9
BRANCH   1  20
HETATM   20  C   UNL     1     -45.049 -52.906  12.677  1.00  0.00     0.178 C 
BRANCH  20  21
HETATM   21  C   UNL     1     -45.433 -51.523  13.203  1.00  0.00     0.189 C 
BRANCH  21  22
HETATM   22  O   UNL     1     -46.741 -51.547  13.778  1.00  0.00    -0.394 OA
HETATM   23  C   UNL     1     -46.691 -51.410  15.192  1.00  0.00     0.201 C 
ENDBRANCH  21  22
ENDBRANCH  20  21
ENDBRANCH   1  20
TORSDOF 5
ENDMDL
MODEL 8
REMARK VINA RESULT:      -5.5      3.985      7.816
REMARK  5 active torsions:
REMARK  status: ('A' for Active; 'I' for Inactive)
REMARK    1  A    between atoms: O_2  and  C_3 
REMARK    2  A    between atoms: C_3  and  C_4 
REMARK    3  A    between atoms: C_4  and  N_5 
REMARK    4  A    between atoms: C_8  and  C_13 
REMARK       I    between atoms: C_13  and  N_15 
REMARK    5  A    between atoms: N_15  and  C_16 
ROOT
HETATM    1  N   UNL     1     -46.087 -52.886  16.383  1.00  0.00    -0.255 N 
HETATM    2  N   UNL     1     -45.090 -53.402  15.553  1.00  0.00    -0.290 N 
ATOM      3  HN  UNL     1     -44.425 -54.102  15.883  1.00  0.00     0.187 HD
HETATM    4  C   UNL     1     -45.053 -52.942  14.338  1.00  0.00     0.116 A 
HETATM    5  C   UNL     1     -45.954 -51.909  13.789  1.00  0.00     0.042 A 
HETATM    6  C   UNL     1     -46.918 -51.462  14.590  1.00  0.00     0.078 A 
HETATM    7  C   UNL     1     -47.054 -51.971  15.968  1.00  0.00     0.262 A 
HETATM    8  O   UNL     1     -47.998 -51.571  16.644  1.00  0.00    -0.267 OA
ENDROOT
BRANCH   4   9
HETATM    9  C   UNL     1     -44.015 -53.475  13.351  1.00  0.00     0.269 C 
HETATM   10  O   UNL     1     -44.399 -53.967  12.298  1.00  0.00    -0.266 OA
HETATM   11  N   UNL     1     -42.698 -53.303  13.718  1.00  0.00    -0.351 N 
HETATM   12  H   UNL     1     -42.523 -53.019  14.674  1.00  0.00     0.163 HD
BRANCH  11  13
HETATM   13  C   UNL     1     -41.588 -53.656  12.830  1.00  0.00     0.085 C 
HETATM   14  C   UNL     1     -40.358 -54.113  13.627  1.00  0.00     0.025 C 
HETATM   15  C   UNL     1     -39.701 -52.967  14.402  1.00  0.00     0.002 C 
HETATM   16  C   UNL     1     -39.402 -51.752  13.521  1.00  0.00     0.004 C 
HETATM   17  C   UNL     1     -40.633 -51.307  12.721  1.00  0.00    -0.017 C 
HETATM   18  C   UNL     1     -40.311 -50.123  11.814  1.00  0.00     0.010 C 
HETATM   19  C   UNL     1     -41.182 -52.488  11.909  1.00  0.00     0.029 C 
ENDBRANCH  11  13
ENDBRANCH   4   9
BRANCH   1  20
HETATM   20  C   UNL     1     -46.153 -53.413  17.746  1.00  0.00     0.178 C 
BRANCH  20  21
HETATM   21  C   UNL     1     -44.783 -53.760  18.326  1.00  0.00     0.189 C 
BRANCH  21  22
HETATM   22  O   UNL     1     -44.425 -55.107  18.005  1.00  0.00    -0.394 OA
HETATM   23  C   UNL     1     -43.015 -55.271  17.948  1.00  0.00     0.201 C 
ENDBRANCH  21  22
ENDBRANCH  20  21
ENDBRANCH   1  20
TORSDOF 5
ENDMDL
MODEL 9
REMARK VINA RESULT:      -5.5      1.644      3.132
REMARK  5 active torsions:
REMARK  status: ('A' for Active; 'I' for Inactive)
REMARK    1  A    between atoms: O_2  and  C_3 
REMARK    2  A    between atoms: C_3  and  C_4 
REMARK    3  A    between atoms: C_4  and  N_5 
REMARK    4  A    between atoms: C_8  and  C_13 
REMARK       I    between atoms: C_13  and  N_15 
REMARK    5  A    between atoms: N_15  and  C_16 
ROOT
HETATM    1  N   UNL     1     -41.202 -46.742  10.848  1.00  0.00    -0.255 N 
HETATM    2  N   UNL     1     -41.049 -47.969  11.496  1.00  0.00    -0.290 N 
ATOM      3  HN  UNL     1     -40.138 -48.298  11.815  1.00  0.00     0.187 HD
HETATM    4  C   UNL     1     -42.130 -48.669  11.671  1.00  0.00     0.116 A 
HETATM    5  C   UNL     1     -43.480 -48.283  11.215  1.00  0.00     0.042 A 
HETATM    6  C   UNL     1     -43.603 -47.092  10.634  1.00  0.00     0.078 A 
HETATM    7  C   UNL     1     -42.429 -46.218  10.443  1.00  0.00     0.262 A 
HETATM    8  O   UNL     1     -42.608 -45.104   9.958  1.00  0.00    -0.267 OA
ENDROOT
BRANCH   4   9
HETATM    9  C   UNL     1     -42.061 -50.011  12.400  1.00  0.00     0.269 C 
HETATM   10  O   UNL     1     -41.000 -50.352  12.910  1.00  0.00    -0.266 OA
HETATM   11  N   UNL     1     -43.242 -50.716  12.470  1.00  0.00    -0.351 N 
HETATM   12  H   UNL     1     -44.002 -50.394  11.883  1.00  0.00     0.163 HD
BRANCH  11  13
HETATM   13  C   UNL     1     -43.363 -51.962  13.230  1.00  0.00     0.085 C 
HETATM   14  C   UNL     1     -44.271 -52.970  12.511  1.00  0.00     0.025 C 
HETATM   15  C   UNL     1     -45.740 -52.538  12.505  1.00  0.00     0.002 C 
HETATM   16  C   UNL     1     -46.260 -52.185  13.900  1.00  0.00     0.004 C 
HETATM   17  C   UNL     1     -45.343 -51.184  14.615  1.00  0.00    -0.017 C 
HETATM   18  C   UNL     1     -45.847 -50.873  16.022  1.00  0.00     0.010 C 
HETATM   19  C   UNL     1     -43.908 -51.727  14.653  1.00  0.00     0.029 C 
ENDBRANCH  11  13
ENDBRANCH   4   9
BRANCH   1  20
HETATM   20  C   UNL     1     -39.997 -45.934  10.666  1.00  0.00     0.178 C 
BRANCH  20  21
HETATM   21  C   UNL     1     -39.676 -45.049  11.870  1.00  0.00     0.189 C 
BRANCH  21  22
HETATM   22  O   UNL     1     -39.754 -45.800  13.085  1.00  0.00    -0.394 OA
HETATM   23  C   UNL     1     -40.355 -45.043  14.127  1.00  0.00     0.201 C 
ENDBRANCH  21  22
ENDBRANCH  20  21
ENDBRANCH   1  20
TORSDOF 5
ENDMDL
