MODEL 1
REMARK VINA RESULT:      -6.5      0.000      0.000
REMARK  6 active torsions:
REMARK  status: ('A' for Active; 'I' for Inactive)
REMARK    1  A    between atoms: C_2  and  O_3 
REMARK    2  A    between atoms: C_2  and  C_4 
REMARK    3  A    between atoms: N_13  and  C_14 
REMARK    4  A    between atoms: C_14  and  C_15 
REMARK    5  A    between atoms: C_15  and  O_16 
REMARK    6  A    between atoms: O_16  and  C_17 
ROOT
HETATM    1  C   UNL     1     -42.142 -52.662  12.947  1.00  0.00     0.113 A 
HETATM    2  N   UNL     1     -43.166 -53.124  12.254  1.00  0.00    -0.342 N 
ATOM      3  HN  UNL     1     -43.126 -53.746  11.446  1.00  0.00     0.167 HD
HETATM    4  C   UNL     1     -44.288 -52.606  12.830  1.00  0.00     0.060 A 
HETATM    5  C   UNL     1     -45.628 -52.790  12.462  1.00  0.00     0.032 A 
HETATM    6  C   UNL     1     -46.623 -52.138  13.194  1.00  0.00     0.002 A 
HETATM    7  C   UNL     1     -46.284 -51.326  14.276  1.00  0.00     0.002 A 
HETATM    8  C   UNL     1     -44.948 -51.142  14.668  1.00  0.00     0.032 A 
HETATM    9  C   UNL     1     -43.964 -51.801  13.918  1.00  0.00     0.062 A 
HETATM   10  N   UNL     1     -42.584 -51.864  13.991  1.00  0.00    -0.331 N 
ENDROOT
BRANCH  10  11
HETATM   11  C   UNL     1     -41.765 -51.226  15.010  1.00  0.00     0.157 C 
BRANCH  11  12
HETATM   12  C   UNL     1     -41.437 -49.779  14.651  1.00  0.00     0.196 C 
BRANCH  12  13
HETATM   13  O   UNL     1     -40.045 -49.510  14.858  1.00  0.00    -0.346 OA
BRANCH  13  14
HETATM   14  C   UNL     1     -39.211 -49.758  13.792  1.00  0.00     0.107 A 
HETATM   15  C   UNL     1     -39.273 -49.099  12.558  1.00  0.00     0.040 A 
HETATM   16  C   UNL     1     -38.381 -49.430  11.530  1.00  0.00     0.003 A 
HETATM   17  C   UNL     1     -37.415 -50.416  11.722  1.00  0.00     0.003 A 
HETATM   18  C   UNL     1     -37.339 -51.072  12.949  1.00  0.00     0.045 A 
HETATM   19  C   UNL     1     -38.227 -50.738  13.970  1.00  0.00     0.149 A 
HETATM   20  F   UNL     1     -38.126 -51.390  15.140  1.00  0.00    -0.203 F 
ENDBRANCH  13  14
ENDBRANCH  12  13
ENDBRANCH  11  12
ENDBRANCH  10  11
BRANCH   1  21
HETATM   21  C   UNL     1     -40.710 -52.992  12.647  1.00  0.00     0.181 C 
HETATM   22  C   UNL     1     -40.216 -54.170  13.486  1.00  0.00     0.047 C 
BRANCH  21  23
HETATM   23  O   UNL     1     -40.621 -53.338  11.267  1.00  0.00    -0.388 OA
HETATM   24  H   UNL     1     -40.042 -52.674  10.851  1.00  0.00     0.210 HD
ENDBRANCH  21  23
ENDBRANCH   1  21
TORSDOF 6
ENDMDL
MODEL 2
REMARK VINA RESULT:      -6.2      1.492      1.800
REMARK  6 active torsions:
REMARK  status: ('A' for Active; 'I' for Inactive)
REMARK    1  A    between atoms: C_2  and  O_3 
REMARK    2  A    between atoms: C_2  and  C_4 
REMARK    3  A    between atoms: N_13  and  C_14 
REMARK    4  A    between atoms: C_14  and  C_15 
REMARK    5  A    between atoms: C_15  and  O_16 
REMARK    6  A    between atoms: O_16  and  C_17 
ROOT
HETATM    1  C   UNL     1     -42.230 -52.871  13.021  1.00  0.00     0.113 A 
HETATM    2  N   UNL     1     -43.034 -53.854  13.381  1.00  0.00    -0.342 N 
ATOM      3  HN  UNL     1     -42.790 -54.840  13.473  1.00  0.00     0.167 HD
HETATM    4  C   UNL     1     -44.256 -53.291  13.606  1.00  0.00     0.060 A 
HETATM    5  C   UNL     1     -45.448 -53.913  14.003  1.00  0.00     0.032 A 
HETATM    6  C   UNL     1     -46.595 -53.133  14.155  1.00  0.00     0.002 A 
HETATM    7  C   UNL     1     -46.549 -51.758  13.924  1.00  0.00     0.002 A 
HETATM    8  C   UNL     1     -45.360 -51.116  13.540  1.00  0.00     0.032 A 
HETATM    9  C   UNL     1     -44.220 -51.918  13.387  1.00  0.00     0.062 A 
HETATM   10  N   UNL     1     -42.908 -51.662  13.032  1.00  0.00    -0.331 N 
ENDROOT
BRANCH  10  11
HETATM   11  C   UNL     1     -42.352 -50.346  12.757  1.00  0.00     0.157 C 
BRANCH  11  12
HETATM   12  C   UNL     1     -41.816 -49.680  14.022  1.00  0.00     0.196 C 
BRANCH  12  13
HETATM   13  O   UNL     1     -40.682 -48.858  13.718  1.00  0.00    -0.346 OA
BRANCH  13  14
HETATM   14  C   UNL     1     -39.553 -49.514  13.283  1.00  0.00     0.107 A 
HETATM   15  C   UNL     1     -38.843 -50.465  14.026  1.00  0.00     0.040 A 
HETATM   16  C   UNL     1     -37.698 -51.071  13.495  1.00  0.00     0.003 A 
HETATM   17  C   UNL     1     -37.251 -50.743  12.217  1.00  0.00     0.003 A 
HETATM   18  C   UNL     1     -37.954 -49.803  11.465  1.00  0.00     0.045 A 
HETATM   19  C   UNL     1     -39.095 -49.204  11.996  1.00  0.00     0.149 A 
HETATM   20  F   UNL     1     -39.750 -48.303  11.244  1.00  0.00    -0.203 F 
ENDBRANCH  13  14
ENDBRANCH  12  13
ENDBRANCH  11  12
ENDBRANCH  10  11
BRANCH   1  21
HETATM   21  C   UNL     1     -40.781 -53.055  12.681  1.00  0.00     0.181 C 
HETATM   22  C   UNL     1     -40.141 -54.157  13.524  1.00  0.00     0.047 C 
BRANCH  21  23
HETATM   23  O   UNL     1     -40.698 -53.420  11.305  1.00  0.00    -0.388 OA
HETATM   24  H   UNL     1     -41.419 -52.950  10.849  1.00  0.00     0.210 HD
ENDBRANCH  21  23
ENDBRANCH   1  21
TORSDOF 6
ENDMDL
MODEL 3
REMARK VINA RESULT:      -6.1      2.057      2.728
REMARK  6 active torsions:
REMARK  status: ('A' for Active; 'I' for Inactive)
REMARK    1  A    between atoms: C_2  and  O_3 
REMARK    2  A    between atoms: C_2  and  C_4 
REMARK    3  A    between atoms: N_13  and  C_14 
REMARK    4  A    between atoms: C_14  and  C_15 
REMARK    5  A    between atoms: C_15  and  O_16 
REMARK    6  A    between atoms: O_16  and  C_17 
ROOT
HETATM    1  C   UNL     1     -42.499 -52.479  12.782  1.00  0.00     0.113 A 
HETATM    2  N   UNL     1     -43.573 -52.873  12.123  1.00  0.00    -0.342 N 
ATOM      3  HN  UNL     1     -43.595 -53.414  11.259  1.00  0.00     0.167 HD
HETATM    4  C   UNL     1     -44.648 -52.414  12.827  1.00  0.00     0.060 A 
HETATM    5  C   UNL     1     -46.012 -52.564  12.541  1.00  0.00     0.032 A 
HETATM    6  C   UNL     1     -46.947 -51.987  13.402  1.00  0.00     0.002 A 
HETATM    7  C   UNL     1     -46.527 -51.282  14.530  1.00  0.00     0.002 A 
HETATM    8  C   UNL     1     -45.165 -51.135  14.840  1.00  0.00     0.032 A 
HETATM    9  C   UNL     1     -44.241 -51.717  13.961  1.00  0.00     0.062 A 
HETATM   10  N   UNL     1     -42.860 -51.786  13.927  1.00  0.00    -0.331 N 
ENDROOT
BRANCH  10  11
HETATM   11  C   UNL     1     -41.966 -51.248  14.941  1.00  0.00     0.157 C 
BRANCH  11  12
HETATM   12  C   UNL     1     -41.789 -49.738  14.799  1.00  0.00     0.196 C 
BRANCH  12  13
HETATM   13  O   UNL     1     -40.933 -49.432  13.692  1.00  0.00    -0.346 OA
BRANCH  13  14
HETATM   14  C   UNL     1     -41.496 -48.700  12.671  1.00  0.00     0.107 A 
HETATM   15  C   UNL     1     -42.870 -48.593  12.425  1.00  0.00     0.040 A 
HETATM   16  C   UNL     1     -43.343 -47.827  11.352  1.00  0.00     0.003 A 
HETATM   17  C   UNL     1     -42.454 -47.155  10.516  1.00  0.00     0.003 A 
HETATM   18  C   UNL     1     -41.084 -47.249  10.756  1.00  0.00     0.045 A 
HETATM   19  C   UNL     1     -40.617 -48.009  11.827  1.00  0.00     0.149 A 
HETATM   20  F   UNL     1     -39.291 -48.078  12.029  1.00  0.00    -0.203 F 
ENDBRANCH  13  14
ENDBRANCH  12  13
ENDBRANCH  11  12
ENDBRANCH  10  11
BRANCH   1  21
HETATM   21  C   UNL     1     -41.095 -52.777  12.349  1.00  0.00     0.181 C 
HETATM   22  C   UNL     1     -40.603 -54.111  12.909  1.00  0.00     0.047 C 
BRANCH  21  23
HETATM   23  O   UNL     1     -41.081 -52.841  10.925  1.00  0.00    -0.388 OA
HETATM   24  H   UNL     1     -42.012 -52.847  10.638  1.00  0.00     0.210 HD
ENDBRANCH  21  23
ENDBRANCH   1  21
TORSDOF 6
ENDMDL
MODEL 4
REMARK VINA RESULT:      -6.1      3.536      6.477
REMARK  6 active torsions:
REMARK  status: ('A' for Active; 'I' for Inactive)
REMARK    1  A    between atoms: C_2  and  O_3 
REMARK    2  A    between atoms: C_2  and  C_4 
REMARK    3  A    between atoms: N_13  and  C_14 
REMARK    4  A    between atoms: C_14  and  C_15 
REMARK    5  A    between atoms: C_15  and  O_16 
REMARK    6  A    between atoms: O_16  and  C_17 
ROOT
HETATM    1  C   UNL     1     -43.500 -54.428  14.817  1.00  0.00     0.113 A 
HETATM    2  N   UNL     1     -42.796 -55.123  15.690  1.00  0.00    -0.342 N 
ATOM      3  HN  UNL     1     -43.160 -55.689  16.457  1.00  0.00     0.167 HD
HETATM    4  C   UNL     1     -41.485 -54.938  15.364  1.00  0.00     0.060 A 
HETATM    5  C   UNL     1     -40.343 -55.460  15.989  1.00  0.00     0.032 A 
HETATM    6  C   UNL     1     -39.086 -55.116  15.489  1.00  0.00     0.002 A 
HETATM    7  C   UNL     1     -38.973 -54.275  14.381  1.00  0.00     0.002 A 
HETATM    8  C   UNL     1     -40.106 -53.756  13.734  1.00  0.00     0.032 A 
HETATM    9  C   UNL     1     -41.359 -54.108  14.254  1.00  0.00     0.062 A 
HETATM   10  N   UNL     1     -42.663 -53.806  13.904  1.00  0.00    -0.331 N 
ENDROOT
BRANCH  10  11
HETATM   11  C   UNL     1     -43.062 -53.004  12.757  1.00  0.00     0.157 C 
BRANCH  11  12
HETATM   12  C   UNL     1     -42.967 -51.509  13.050  1.00  0.00     0.196 C 
BRANCH  12  13
HETATM   13  O   UNL     1     -44.266 -50.907  13.031  1.00  0.00    -0.346 OA
BRANCH  13  14
HETATM   14  C   UNL     1     -44.983 -50.968  14.204  1.00  0.00     0.107 A 
HETATM   15  C   UNL     1     -44.458 -50.714  15.478  1.00  0.00     0.040 A 
HETATM   16  C   UNL     1     -45.271 -50.810  16.614  1.00  0.00     0.003 A 
HETATM   17  C   UNL     1     -46.615 -51.154  16.495  1.00  0.00     0.003 A 
HETATM   18  C   UNL     1     -47.151 -51.401  15.232  1.00  0.00     0.045 A 
HETATM   19  C   UNL     1     -46.339 -51.301  14.103  1.00  0.00     0.149 A 
HETATM   20  F   UNL     1     -46.887 -51.546  12.902  1.00  0.00    -0.203 F 
ENDBRANCH  13  14
ENDBRANCH  12  13
ENDBRANCH  11  12
ENDBRANCH  10  11
BRANCH   1  21
HETATM   21  C   UNL     1     -44.998 -54.358  14.814  1.00  0.00     0.181 C 
HETATM   22  C   UNL     1     -45.608 -55.366  13.841  1.00  0.00     0.047 C 
BRANCH  21  23
HETATM   23  O   UNL     1     -45.452 -54.657  16.132  1.00  0.00    -0.388 OA
HETATM   24  H   UNL     1     -45.640 -53.803  16.562  1.00  0.00     0.210 HD
ENDBRANCH  21  23
ENDBRANCH   1  21
TORSDOF 6
ENDMDL
MODEL 5
REMARK VINA RESULT:      -6.0      3.368      6.864
REMARK  6 active torsions:
REMARK  status: ('A' for Active; 'I' for Inactive)
REMARK    1  A    between atoms: C_2  and  O_3 
REMARK    2  A    between atoms: C_2  and  C_4 
REMARK    3  A    between atoms: N_13  and  C_14 
REMARK    4  A    between atoms: C_14  and  C_15 
REMARK    5  A    between atoms: C_15  and  O_16 
REMARK    6  A    between atoms: O_16  and  C_17 
ROOT
HETATM    1  C   UNL     1     -40.434 -53.758  13.958  1.00  0.00     0.113 A 
HETATM    2  N   UNL     1     -39.206 -54.188  14.181  1.00  0.00    -0.342 N 
ATOM      3  HN  UNL     1     -38.376 -53.983  13.625  1.00  0.00     0.167 HD
HETATM    4  C   UNL     1     -39.266 -54.960  15.303  1.00  0.00     0.060 A 
HETATM    5  C   UNL     1     -38.231 -55.650  15.950  1.00  0.00     0.032 A 
HETATM    6  C   UNL     1     -38.531 -56.403  17.086  1.00  0.00     0.002 A 
HETATM    7  C   UNL     1     -39.838 -56.457  17.572  1.00  0.00     0.002 A 
HETATM    8  C   UNL     1     -40.884 -55.760  16.946  1.00  0.00     0.032 A 
HETATM    9  C   UNL     1     -40.564 -55.015  15.803  1.00  0.00     0.062 A 
HETATM   10  N   UNL     1     -41.296 -54.221  14.938  1.00  0.00    -0.331 N 
ENDROOT
BRANCH  10  11
HETATM   11  C   UNL     1     -42.712 -53.914  15.074  1.00  0.00     0.157 C 
BRANCH  11  12
HETATM   12  C   UNL     1     -43.582 -54.884  14.277  1.00  0.00     0.196 C 
BRANCH  12  13
HETATM   13  O   UNL     1     -44.910 -54.927  14.813  1.00  0.00    -0.346 OA
BRANCH  13  14
HETATM   14  C   UNL     1     -45.607 -53.741  14.812  1.00  0.00     0.107 A 
HETATM   15  C   UNL     1     -45.844 -52.952  13.679  1.00  0.00     0.040 A 
HETATM   16  C   UNL     1     -46.560 -51.754  13.785  1.00  0.00     0.003 A 
HETATM   17  C   UNL     1     -47.053 -51.330  15.017  1.00  0.00     0.003 A 
HETATM   18  C   UNL     1     -46.830 -52.110  16.150  1.00  0.00     0.045 A 
HETATM   19  C   UNL     1     -46.119 -53.305  16.041  1.00  0.00     0.149 A 
HETATM   20  F   UNL     1     -45.922 -54.033  17.152  1.00  0.00    -0.203 F 
ENDBRANCH  13  14
ENDBRANCH  12  13
ENDBRANCH  11  12
ENDBRANCH  10  11
BRANCH   1  21
HETATM   21  C   UNL     1     -40.814 -52.868  12.812  1.00  0.00     0.181 C 
HETATM   22  C   UNL     1     -39.973 -51.592  12.786  1.00  0.00     0.047 C 
BRANCH  21  23
HETATM   23  O   UNL     1     -40.591 -53.591  11.603  1.00  0.00    -0.388 OA
HETATM   24  H   UNL     1     -41.461 -53.693  11.177  1.00  0.00     0.210 HD
ENDBRANCH  21  23
ENDBRANCH   1  21
TORSDOF 6
ENDMDL
MODEL 6
REMARK VINA RESULT:      -6.0      2.545      3.384
REMARK  6 active torsions:
REMARK  status: ('A' for Active; 'I' for Inactive)
REMARK    1  A    between atoms: C_2  and  O_3 
REMARK    2  A    between atoms: C_2  and  C_4 
REMARK    3  A    between atoms: N_13  and  C_14 
REMARK    4  A    between atoms: C_14  and  C_15 
REMARK    5  A    between atoms: C_15  and  O_16 
REMARK    6  A    between atoms: O_16  and  C_17 
ROOT
HETATM    1  C   UNL     1     -40.829 -53.999  13.960  1.00  0.00     0.113 A 
HETATM    2  N   UNL     1     -41.636 -54.673  14.758  1.00  0.00    -0.342 N 
ATOM      3  HN  UNL     1     -41.370 -55.217  15.578  1.00  0.00     0.167 HD
HETATM    4  C   UNL     1     -42.897 -54.499  14.268  1.00  0.00     0.060 A 
HETATM    5  C   UNL     1     -44.107 -55.014  14.756  1.00  0.00     0.032 A 
HETATM    6  C   UNL     1     -45.288 -54.716  14.074  1.00  0.00     0.002 A 
HETATM    7  C   UNL     1     -45.262 -53.912  12.935  1.00  0.00     0.002 A 
HETATM    8  C   UNL     1     -44.061 -53.375  12.441  1.00  0.00     0.032 A 
HETATM    9  C   UNL     1     -42.885 -53.690  13.136  1.00  0.00     0.062 A 
HETATM   10  N   UNL     1     -41.552 -53.362  12.964  1.00  0.00    -0.331 N 
ENDROOT
BRANCH  10  11
HETATM   11  C   UNL     1     -41.029 -52.477  11.935  1.00  0.00     0.157 C 
BRANCH  11  12
HETATM   12  C   UNL     1     -41.018 -51.020  12.391  1.00  0.00     0.196 C 
BRANCH  12  13
HETATM   13  O   UNL     1     -40.112 -50.248  11.593  1.00  0.00    -0.346 OA
BRANCH  13  14
HETATM   14  C   UNL     1     -40.473 -48.943  11.351  1.00  0.00     0.107 A 
HETATM   15  C   UNL     1     -41.603 -48.546  10.625  1.00  0.00     0.040 A 
HETATM   16  C   UNL     1     -41.880 -47.188  10.427  1.00  0.00     0.003 A 
HETATM   17  C   UNL     1     -41.039 -46.210  10.955  1.00  0.00     0.003 A 
HETATM   18  C   UNL     1     -39.916 -46.593  11.686  1.00  0.00     0.045 A 
HETATM   19  C   UNL     1     -39.645 -47.946  11.883  1.00  0.00     0.149 A 
HETATM   20  F   UNL     1     -38.555 -48.281  12.593  1.00  0.00    -0.203 F 
ENDBRANCH  13  14
ENDBRANCH  12  13
ENDBRANCH  11  12
ENDBRANCH  10  11
BRANCH   1  21
HETATM   21  C   UNL     1     -39.342 -53.924  14.143  1.00  0.00     0.181 C 
HETATM   22  C   UNL     1     -38.937 -54.214  15.587  1.00  0.00     0.047 C 
BRANCH  21  23
HETATM   23  O   UNL     1     -38.747 -54.900  13.291  1.00  0.00    -0.388 OA
HETATM   24  H   UNL     1     -38.910 -55.766  13.706  1.00  0.00     0.210 HD
ENDBRANCH  21  23
ENDBRANCH   1  21
TORSDOF 6
ENDMDL
MODEL 7
REMARK VINA RESULT:      -6.0      2.026      2.797
REMARK  6 active torsions:
REMARK  status: ('A' for Active; 'I' for Inactive)
REMARK    1  A    between atoms: C_2  and  O_3 
REMARK    2  A    between atoms: C_2  and  C_4 
REMARK    3  A    between atoms: N_13  and  C_14 
REMARK    4  A    between atoms: C_14  and  C_15 
REMARK    5  A    between atoms: C_15  and  O_16 
REMARK    6  A    between atoms: O_16  and  C_17 
ROOT
HETATM    1  C   UNL     1     -40.862 -53.855  13.919  1.00  0.00     0.113 A 
HETATM    2  N   UNL     1     -41.630 -54.562  14.727  1.00  0.00    -0.342 N 
ATOM      3  HN  UNL     1     -41.331 -55.092  15.546  1.00  0.00     0.167 HD
HETATM    4  C   UNL     1     -42.902 -54.444  14.251  1.00  0.00     0.060 A 
HETATM    5  C   UNL     1     -44.082 -55.011  14.752  1.00  0.00     0.032 A 
HETATM    6  C   UNL     1     -45.283 -54.768  14.083  1.00  0.00     0.002 A 
HETATM    7  C   UNL     1     -45.304 -53.966  12.941  1.00  0.00     0.002 A 
HETATM    8  C   UNL     1     -44.134 -53.378  12.434  1.00  0.00     0.032 A 
HETATM    9  C   UNL     1     -42.938 -53.639  13.116  1.00  0.00     0.062 A 
HETATM   10  N   UNL     1     -41.622 -53.253  12.930  1.00  0.00    -0.331 N 
ENDROOT
BRANCH  10  11
HETATM   11  C   UNL     1     -41.150 -52.349  11.893  1.00  0.00     0.157 C 
BRANCH  11  12
HETATM   12  C   UNL     1     -41.524 -50.899  12.191  1.00  0.00     0.196 C 
BRANCH  12  13
HETATM   13  O   UNL     1     -40.362 -50.061  12.160  1.00  0.00    -0.346 OA
BRANCH  13  14
HETATM   14  C   UNL     1     -39.541 -50.117  13.263  1.00  0.00     0.107 A 
HETATM   15  C   UNL     1     -39.966 -49.954  14.587  1.00  0.00     0.040 A 
HETATM   16  C   UNL     1     -39.047 -50.021  15.642  1.00  0.00     0.003 A 
HETATM   17  C   UNL     1     -37.698 -50.258  15.391  1.00  0.00     0.003 A 
HETATM   18  C   UNL     1     -37.265 -50.431  14.078  1.00  0.00     0.045 A 
HETATM   19  C   UNL     1     -38.182 -50.366  13.030  1.00  0.00     0.149 A 
HETATM   20  F   UNL     1     -37.731 -50.537  11.777  1.00  0.00    -0.203 F 
ENDBRANCH  13  14
ENDBRANCH  12  13
ENDBRANCH  11  12
ENDBRANCH  10  11
BRANCH   1  21
HETATM   21  C   UNL     1     -39.378 -53.714  14.086  1.00  0.00     0.181 C 
HETATM   22  C   UNL     1     -38.967 -53.786  15.556  1.00  0.00     0.047 C 
BRANCH  21  23
HETATM   23  O   UNL     1     -38.754 -54.784  13.379  1.00  0.00    -0.388 OA
HETATM   24  H   UNL     1     -39.372 -55.536  13.412  1.00  0.00     0.210 HD
ENDBRANCH  21  23
ENDBRANCH   1  21
TORSDOF 6
ENDMDL
MODEL 8
REMARK VINA RESULT:      -5.9      2.441      5.568
REMARK  6 active torsions:
REMARK  status: ('A' for Active; 'I' for Inactive)
REMARK    1  A    between atoms: C_2  and  O_3 
REMARK    2  A    between atoms: C_2  and  C_4 
REMARK    3  A    between atoms: N_13  and  C_14 
REMARK    4  A    between atoms: C_14  and  C_15 
REMARK    5  A    between atoms: C_15  and  O_16 
REMARK    6  A    between atoms: O_16  and  C_17 
ROOT
HETATM    1  C   UNL     1     -40.941 -51.488  12.470  1.00  0.00     0.113 A 
HETATM    2  N   UNL     1     -41.152 -50.903  11.306  1.00  0.00    -0.342 N 
ATOM      3  HN  UNL     1     -41.298 -51.364  10.408  1.00  0.00     0.167 HD
HETATM    4  C   UNL     1     -41.136 -49.559  11.541  1.00  0.00     0.060 A 
HETATM    5  C   UNL     1     -41.308 -48.507  10.630  1.00  0.00     0.032 A 
HETATM    6  C   UNL     1     -41.232 -47.194  11.097  1.00  0.00     0.002 A 
HETATM    7  C   UNL     1     -41.000 -46.938  12.448  1.00  0.00     0.002 A 
HETATM    8  C   UNL     1     -40.841 -47.980  13.377  1.00  0.00     0.032 A 
HETATM    9  C   UNL     1     -40.915 -49.291  12.888  1.00  0.00     0.062 A 
HETATM   10  N   UNL     1     -40.811 -50.541  13.473  1.00  0.00    -0.331 N 
ENDROOT
BRANCH  10  11
HETATM   11  C   UNL     1     -40.633 -50.792  14.895  1.00  0.00     0.157 C 
BRANCH  11  12
HETATM   12  C   UNL     1     -41.958 -51.096  15.589  1.00  0.00     0.196 C 
BRANCH  12  13
HETATM   13  O   UNL     1     -42.954 -50.134  15.221  1.00  0.00    -0.346 OA
BRANCH  13  14
HETATM   14  C   UNL     1     -44.255 -50.581  15.201  1.00  0.00     0.107 A 
HETATM   15  C   UNL     1     -45.071 -50.724  16.331  1.00  0.00     0.040 A 
HETATM   16  C   UNL     1     -46.383 -51.195  16.204  1.00  0.00     0.003 A 
HETATM   17  C   UNL     1     -46.900 -51.523  14.953  1.00  0.00     0.003 A 
HETATM   18  C   UNL     1     -46.100 -51.377  13.821  1.00  0.00     0.045 A 
HETATM   19  C   UNL     1     -44.795 -50.905  13.950  1.00  0.00     0.149 A 
HETATM   20  F   UNL     1     -44.052 -50.776  12.839  1.00  0.00    -0.203 F 
ENDBRANCH  13  14
ENDBRANCH  12  13
ENDBRANCH  11  12
ENDBRANCH  10  11
BRANCH   1  21
HETATM   21  C   UNL     1     -40.883 -52.974  12.662  1.00  0.00     0.181 C 
HETATM   22  C   UNL     1     -42.255 -53.552  13.005  1.00  0.00     0.047 C 
BRANCH  21  23
HETATM   23  O   UNL     1     -40.430 -53.555  11.441  1.00  0.00    -0.388 OA
HETATM   24  H   UNL     1     -41.226 -53.753  10.915  1.00  0.00     0.210 HD
ENDBRANCH  21  23
ENDBRANCH   1  21
TORSDOF 6
ENDMDL
MODEL 9
REMARK VINA RESULT:      -5.9      3.266      3.948
REMARK  6 active torsions:
REMARK  status: ('A' for Active; 'I' for Inactive)
REMARK    1  A    between atoms: C_2  and  O_3 
REMARK    2  A    between atoms: C_2  and  C_4 
REMARK    3  A    between atoms: N_13  and  C_14 
REMARK    4  A    between atoms: C_14  and  C_15 
REMARK    5  A    between atoms: C_15  and  O_16 
REMARK    6  A    between atoms: O_16  and  C_17 
ROOT
HETATM    1  C   UNL     1     -42.147 -52.907  13.121  1.00  0.00     0.113 A 
HETATM    2  N   UNL     1     -43.052 -53.866  13.185  1.00  0.00    -0.342 N 
ATOM      3  HN  UNL     1     -42.899 -54.862  13.026  1.00  0.00     0.167 HD
HETATM    4  C   UNL     1     -44.232 -53.263  13.506  1.00  0.00     0.060 A 
HETATM    5  C   UNL     1     -45.495 -53.846  13.686  1.00  0.00     0.032 A 
HETATM    6  C   UNL     1     -46.578 -53.022  13.996  1.00  0.00     0.002 A 
HETATM    7  C   UNL     1     -46.401 -51.645  14.132  1.00  0.00     0.002 A 
HETATM    8  C   UNL     1     -45.140 -51.046  13.969  1.00  0.00     0.032 A 
HETATM    9  C   UNL     1     -44.067 -51.889  13.653  1.00  0.00     0.062 A 
HETATM   10  N   UNL     1     -42.718 -51.681  13.422  1.00  0.00    -0.331 N 
ENDROOT
BRANCH  10  11
HETATM   11  C   UNL     1     -42.037 -50.400  13.518  1.00  0.00     0.157 C 
BRANCH  11  12
HETATM   12  C   UNL     1     -41.981 -49.684  12.170  1.00  0.00     0.196 C 
BRANCH  12  13
HETATM   13  O   UNL     1     -43.122 -48.835  12.002  1.00  0.00    -0.346 OA
BRANCH  13  14
HETATM   14  C   UNL     1     -42.862 -47.499  11.797  1.00  0.00     0.107 A 
HETATM   15  C   UNL     1     -42.707 -46.548  12.813  1.00  0.00     0.040 A 
HETATM   16  C   UNL     1     -42.451 -45.207  12.499  1.00  0.00     0.003 A 
HETATM   17  C   UNL     1     -42.342 -44.800  11.171  1.00  0.00     0.003 A 
HETATM   18  C   UNL     1     -42.487 -45.739  10.152  1.00  0.00     0.045 A 
HETATM   19  C   UNL     1     -42.738 -47.073  10.468  1.00  0.00     0.149 A 
HETATM   20  F   UNL     1     -42.873 -47.952   9.461  1.00  0.00    -0.203 F 
ENDBRANCH  13  14
ENDBRANCH  12  13
ENDBRANCH  11  12
ENDBRANCH  10  11
BRANCH   1  21
HETATM   21  C   UNL     1     -40.702 -53.140  12.795  1.00  0.00     0.181 C 
HETATM   22  C   UNL     1     -40.109 -54.268  13.638  1.00  0.00     0.047 C 
BRANCH  21  23
HETATM   23  O   UNL     1     -40.616 -53.500  11.418  1.00  0.00    -0.388 OA
HETATM   24  H   UNL     1     -41.471 -53.262  11.015  1.00  0.00     0.210 HD
ENDBRANCH  21  23
ENDBRANCH   1  21
TORSDOF 6
ENDMDL
