MODEL 1
REMARK VINA RESULT:      -6.7      0.000      0.000
REMARK  7 active torsions:
REMARK  status: ('A' for Active; 'I' for Inactive)
REMARK    1  A    between atoms: N_2  and  C_14 
REMARK    2  A    between atoms: N_4  and  C_7 
REMARK    3  A    between atoms: C_11  and  C_21 
REMARK    4  A    between atoms: C_11  and  O_24 
REMARK    5  A    between atoms: C_14  and  C_18 
REMARK    6  A    between atoms: C_18  and  C_22 
REMARK    7  A    between atoms: C_18  and  O_25 
ROOT
HETATM    1  N   UNL     1     -39.714 -43.332  14.357  1.00  0.00    -0.197 NA
HETATM    2  C   UNL     1     -40.098 -42.614  13.529  1.00  0.00     0.062 C 
HETATM    3  C   UNL     1     -40.575 -41.730  12.451  1.00  0.00     0.165 C 
ENDROOT
BRANCH   3   4
HETATM    4  C   UNL     1     -41.182 -42.537  11.312  1.00  0.00     0.102 C 
HETATM    5  C   UNL     1     -42.185 -43.658  11.724  1.00  0.00     0.165 C 
HETATM    6  N   UNL     1     -41.512 -44.499  10.790  1.00  0.00    -0.359 N 
HETATM    7  C   UNL     1     -40.313 -43.728  10.796  1.00  0.00     0.165 C 
BRANCH   6   8
HETATM    8  C   UNL     1     -41.699 -45.861  10.538  1.00  0.00     0.135 A 
HETATM    9  C   UNL     1     -40.995 -46.865  11.238  1.00  0.00     0.122 A 
HETATM   10  C   UNL     1     -41.247 -48.186  10.891  1.00  0.00     0.140 A 
HETATM   11  N   UNL     1     -40.026 -46.795  12.218  1.00  0.00    -0.346 N 
HETATM   12  N   UNL     1     -40.375 -48.922  11.652  1.00  0.00    -0.325 N 
HETATM   13  N   UNL     1     -42.122 -48.626   9.971  1.00  0.00    -0.336 N 
HETATM   14  C   UNL     1     -39.675 -48.042  12.437  1.00  0.00     0.185 A 
HETATM   15  C   UNL     1     -42.759 -47.592   9.381  1.00  0.00     0.183 A 
ATOM     16  HN  UNL     1     -42.284 -49.608   9.748  1.00  0.00     0.168 HD
HETATM   17  N   UNL     1     -42.592 -46.268   9.592  1.00  0.00    -0.337 N 
ATOM     18  HN  UNL     1     -43.124 -45.585   9.053  1.00  0.00     0.168 HD
ATOM     19  HN  UNL     1     -39.662 -45.958  12.673  1.00  0.00     0.167 HD
BRANCH  12  20
HETATM   20  C   UNL     1     -40.061 -50.334  11.499  1.00  0.00     0.165 C 
BRANCH  20  21
HETATM   21  C   UNL     1     -39.156 -50.917  12.596  1.00  0.00     0.165 C 
BRANCH  21  22
HETATM   22  C   UNL     1     -39.796 -52.088  13.363  1.00  0.00     0.151 C 
HETATM   23  O   UNL     1     -38.781 -53.054  13.719  1.00  0.00    -0.383 OA
HETATM   24  C   UNL     1     -39.414 -54.343  13.819  1.00  0.00     0.168 C 
HETATM   25  C   UNL     1     -40.882 -54.152  13.486  1.00  0.00     0.029 C 
HETATM   26  C   UNL     1     -40.876 -52.884  12.662  1.00  0.00     0.036 C 
ENDBRANCH  21  22
BRANCH  21  27
HETATM   27  O   UNL     1     -37.943 -51.427  12.007  1.00  0.00    -0.391 OA
HETATM   28  H   UNL     1     -38.171 -52.288  11.599  1.00  0.00     0.210 HD
ENDBRANCH  21  27
ENDBRANCH  20  21
ENDBRANCH  12  20
ENDBRANCH   6   8
BRANCH   4  29
HETATM   29  O   UNL     1     -41.629 -41.628  10.263  1.00  0.00    -0.386 OA
HETATM   30  H   UNL     1     -42.586 -41.785  10.173  1.00  0.00     0.210 HD
ENDBRANCH   4  29
ENDBRANCH   3   4
TORSDOF 7
ENDMDL
MODEL 2
REMARK VINA RESULT:      -6.5      4.017      8.663
REMARK  7 active torsions:
REMARK  status: ('A' for Active; 'I' for Inactive)
REMARK    1  A    between atoms: N_2  and  C_14 
REMARK    2  A    between atoms: N_4  and  C_7 
REMARK    3  A    between atoms: C_11  and  C_21 
REMARK    4  A    between atoms: C_11  and  O_24 
REMARK    5  A    between atoms: C_14  and  C_18 
REMARK    6  A    between atoms: C_18  and  C_22 
REMARK    7  A    between atoms: C_18  and  O_25 
ROOT
HETATM    1  N   UNL     1     -46.850 -51.371  15.411  1.00  0.00    -0.197 NA
HETATM    2  C   UNL     1     -46.876 -52.499  15.139  1.00  0.00     0.062 C 
HETATM    3  C   UNL     1     -46.887 -53.924  14.762  1.00  0.00     0.165 C 
ENDROOT
BRANCH   3   4
HETATM    4  C   UNL     1     -45.576 -54.321  14.096  1.00  0.00     0.102 C 
HETATM    5  C   UNL     1     -44.290 -53.631  14.645  1.00  0.00     0.165 C 
HETATM    6  N   UNL     1     -43.904 -53.438  13.287  1.00  0.00    -0.359 N 
HETATM    7  C   UNL     1     -45.232 -53.552  12.781  1.00  0.00     0.165 C 
BRANCH   6   8
HETATM    8  C   UNL     1     -42.807 -52.739  12.774  1.00  0.00     0.135 A 
HETATM    9  C   UNL     1     -42.798 -51.333  12.644  1.00  0.00     0.122 A 
HETATM   10  C   UNL     1     -41.661 -50.746  12.105  1.00  0.00     0.140 A 
HETATM   11  N   UNL     1     -43.755 -50.378  12.921  1.00  0.00    -0.346 N 
HETATM   12  N   UNL     1     -41.963 -49.411  12.015  1.00  0.00    -0.325 N 
HETATM   13  N   UNL     1     -40.538 -51.372  11.713  1.00  0.00    -0.336 N 
HETATM   14  C   UNL     1     -43.224 -49.243  12.528  1.00  0.00     0.185 A 
HETATM   15  C   UNL     1     -40.641 -52.705  11.902  1.00  0.00     0.183 A 
ATOM     16  HN  UNL     1     -39.719 -50.904  11.326  1.00  0.00     0.168 HD
HETATM   17  N   UNL     1     -41.688 -53.411  12.382  1.00  0.00    -0.337 N 
ATOM     18  HN  UNL     1     -41.642 -54.427  12.448  1.00  0.00     0.168 HD
ATOM     19  HN  UNL     1     -44.674 -50.523  13.340  1.00  0.00     0.167 HD
BRANCH  12  20
HETATM   20  C   UNL     1     -41.212 -48.394  11.298  1.00  0.00     0.165 C 
BRANCH  20  21
HETATM   21  C   UNL     1     -42.030 -47.159  10.885  1.00  0.00     0.165 C 
BRANCH  21  22
HETATM   22  C   UNL     1     -41.332 -45.824  11.206  1.00  0.00     0.151 C 
HETATM   23  O   UNL     1     -40.759 -45.268  10.002  1.00  0.00    -0.383 OA
HETATM   24  C   UNL     1     -39.634 -44.455  10.381  1.00  0.00     0.168 C 
HETATM   25  C   UNL     1     -39.505 -44.541  11.891  1.00  0.00     0.029 C 
HETATM   26  C   UNL     1     -40.202 -45.844  12.213  1.00  0.00     0.036 C 
ENDBRANCH  21  22
BRANCH  21  27
HETATM   27  O   UNL     1     -42.249 -47.173   9.461  1.00  0.00    -0.391 OA
HETATM   28  H   UNL     1     -43.218 -47.227   9.328  1.00  0.00     0.210 HD
ENDBRANCH  21  27
ENDBRANCH  20  21
ENDBRANCH  12  20
ENDBRANCH   6   8
BRANCH   4  29
HETATM   29  O   UNL     1     -45.522 -55.773  13.967  1.00  0.00    -0.386 OA
HETATM   30  H   UNL     1     -45.425 -55.947  13.014  1.00  0.00     0.210 HD
ENDBRANCH   4  29
ENDBRANCH   3   4
TORSDOF 7
ENDMDL
MODEL 3
REMARK VINA RESULT:      -6.4      4.094      7.924
REMARK  7 active torsions:
REMARK  status: ('A' for Active; 'I' for Inactive)
REMARK    1  A    between atoms: N_2  and  C_14 
REMARK    2  A    between atoms: N_4  and  C_7 
REMARK    3  A    between atoms: C_11  and  C_21 
REMARK    4  A    between atoms: C_11  and  O_24 
REMARK    5  A    between atoms: C_14  and  C_18 
REMARK    6  A    between atoms: C_18  and  C_22 
REMARK    7  A    between atoms: C_18  and  O_25 
ROOT
HETATM    1  N   UNL     1     -46.709 -51.192  15.715  1.00  0.00    -0.197 NA
HETATM    2  C   UNL     1     -46.889 -52.288  15.378  1.00  0.00     0.062 C 
HETATM    3  C   UNL     1     -47.097 -53.673  14.917  1.00  0.00     0.165 C 
ENDROOT
BRANCH   3   4
HETATM    4  C   UNL     1     -45.878 -54.185  14.163  1.00  0.00     0.102 C 
HETATM    5  C   UNL     1     -44.490 -53.722  14.705  1.00  0.00     0.165 C 
HETATM    6  N   UNL     1     -44.129 -53.470  13.350  1.00  0.00    -0.359 N 
HETATM    7  C   UNL     1     -45.477 -53.362  12.898  1.00  0.00     0.165 C 
BRANCH   6   8
HETATM    8  C   UNL     1     -42.965 -52.883  12.844  1.00  0.00     0.135 A 
HETATM    9  C   UNL     1     -42.830 -51.488  12.677  1.00  0.00     0.122 A 
HETATM   10  C   UNL     1     -41.636 -51.017  12.148  1.00  0.00     0.140 A 
HETATM   11  N   UNL     1     -43.706 -50.446  12.906  1.00  0.00    -0.346 N 
HETATM   12  N   UNL     1     -41.818 -49.665  12.015  1.00  0.00    -0.325 N 
HETATM   13  N   UNL     1     -40.564 -51.749  11.799  1.00  0.00    -0.336 N 
HETATM   14  C   UNL     1     -43.070 -49.372  12.494  1.00  0.00     0.185 A 
HETATM   15  C   UNL     1     -40.787 -53.062  12.021  1.00  0.00     0.183 A 
ATOM     16  HN  UNL     1     -39.699 -51.365  11.418  1.00  0.00     0.168 HD
HETATM   17  N   UNL     1     -41.901 -53.661  12.495  1.00  0.00    -0.337 N 
ATOM     18  HN  UNL     1     -41.945 -54.675  12.591  1.00  0.00     0.168 HD
ATOM     19  HN  UNL     1     -44.642 -50.498  13.306  1.00  0.00     0.167 HD
BRANCH  12  20
HETATM   20  C   UNL     1     -40.967 -48.737  11.288  1.00  0.00     0.165 C 
BRANCH  20  21
HETATM   21  C   UNL     1     -40.075 -47.850  12.173  1.00  0.00     0.165 C 
BRANCH  21  22
HETATM   22  C   UNL     1     -38.754 -48.526  12.587  1.00  0.00     0.151 C 
HETATM   23  O   UNL     1     -38.327 -49.441  11.553  1.00  0.00    -0.383 OA
HETATM   24  C   UNL     1     -37.542 -50.475  12.175  1.00  0.00     0.168 C 
HETATM   25  C   UNL     1     -37.511 -50.183  13.664  1.00  0.00     0.029 C 
HETATM   26  C   UNL     1     -38.748 -49.336  13.865  1.00  0.00     0.036 C 
ENDBRANCH  21  22
BRANCH  21  27
HETATM   27  O   UNL     1     -39.715 -46.653  11.458  1.00  0.00    -0.391 OA
HETATM   28  H   UNL     1     -39.063 -46.919  10.776  1.00  0.00     0.210 HD
ENDBRANCH  21  27
ENDBRANCH  20  21
ENDBRANCH  12  20
ENDBRANCH   6   8
BRANCH   4  29
HETATM   29  O   UNL     1     -46.028 -55.615  13.919  1.00  0.00    -0.386 OA
HETATM   30  H   UNL     1     -45.446 -55.813  13.163  1.00  0.00     0.210 HD
ENDBRANCH   4  29
ENDBRANCH   3   4
TORSDOF 7
ENDMDL
MODEL 4
REMARK VINA RESULT:      -6.4      2.212      3.440
REMARK  7 active torsions:
REMARK  status: ('A' for Active; 'I' for Inactive)
REMARK    1  A    between atoms: N_2  and  C_14 
REMARK    2  A    between atoms: N_4  and  C_7 
REMARK    3  A    between atoms: C_11  and  C_21 
REMARK    4  A    between atoms: C_11  and  O_24 
REMARK    5  A    between atoms: C_14  and  C_18 
REMARK    6  A    between atoms: C_18  and  C_22 
REMARK    7  A    between atoms: C_18  and  O_25 
ROOT
HETATM    1  N   UNL     1     -39.464 -42.458  13.199  1.00  0.00    -0.197 NA
HETATM    2  C   UNL     1     -40.062 -42.965  12.342  1.00  0.00     0.062 C 
HETATM    3  C   UNL     1     -40.807 -43.643  11.266  1.00  0.00     0.165 C 
ENDROOT
BRANCH   3   4
HETATM    4  C   UNL     1     -41.287 -45.016  11.717  1.00  0.00     0.102 C 
HETATM    5  C   UNL     1     -40.330 -45.800  12.666  1.00  0.00     0.165 C 
HETATM    6  N   UNL     1     -40.592 -46.946  11.859  1.00  0.00    -0.359 N 
HETATM    7  C   UNL     1     -41.001 -46.186  10.724  1.00  0.00     0.165 C 
BRANCH   6   8
HETATM    8  C   UNL     1     -40.017 -48.219  11.924  1.00  0.00     0.135 A 
HETATM    9  C   UNL     1     -40.632 -49.294  12.602  1.00  0.00     0.122 A 
HETATM   10  C   UNL     1     -39.962 -50.510  12.617  1.00  0.00     0.140 A 
HETATM   11  N   UNL     1     -41.805 -49.375  13.324  1.00  0.00    -0.346 N 
HETATM   12  N   UNL     1     -40.731 -51.326  13.407  1.00  0.00    -0.325 N 
HETATM   13  N   UNL     1     -38.789 -50.793  12.025  1.00  0.00    -0.336 N 
HETATM   14  C   UNL     1     -41.829 -50.601  13.795  1.00  0.00     0.185 A 
HETATM   15  C   UNL     1     -38.301 -49.708  11.386  1.00  0.00     0.183 A 
ATOM     16  HN  UNL     1     -38.330 -51.703  12.054  1.00  0.00     0.168 HD
HETATM   17  N   UNL     1     -38.823 -48.464  11.315  1.00  0.00    -0.337 N 
ATOM     18  HN  UNL     1     -38.332 -47.723  10.816  1.00  0.00     0.168 HD
ATOM     19  HN  UNL     1     -42.501 -48.642  13.463  1.00  0.00     0.167 HD
BRANCH  12  20
HETATM   20  C   UNL     1     -40.359 -52.625  13.942  1.00  0.00     0.165 C 
BRANCH  20  21
HETATM   21  C   UNL     1     -40.688 -53.818  13.030  1.00  0.00     0.165 C 
BRANCH  21  22
HETATM   22  C   UNL     1     -42.106 -54.380  13.241  1.00  0.00     0.151 C 
HETATM   23  O   UNL     1     -43.064 -53.580  12.512  1.00  0.00    -0.383 OA
HETATM   24  C   UNL     1     -44.329 -53.676  13.191  1.00  0.00     0.168 C 
HETATM   25  C   UNL     1     -44.122 -54.563  14.405  1.00  0.00     0.029 C 
HETATM   26  C   UNL     1     -42.636 -54.444  14.657  1.00  0.00     0.036 C 
ENDBRANCH  21  22
BRANCH  21  27
HETATM   27  O   UNL     1     -40.609 -53.414  11.650  1.00  0.00    -0.391 OA
HETATM   28  H   UNL     1     -40.777 -54.215  11.113  1.00  0.00     0.210 HD
ENDBRANCH  21  27
ENDBRANCH  20  21
ENDBRANCH  12  20
ENDBRANCH   6   8
BRANCH   4  29
HETATM   29  O   UNL     1     -42.679 -44.923  12.142  1.00  0.00    -0.386 OA
HETATM   30  H   UNL     1     -42.820 -45.677  12.742  1.00  0.00     0.210 HD
ENDBRANCH   4  29
ENDBRANCH   3   4
TORSDOF 7
ENDMDL
MODEL 5
REMARK VINA RESULT:      -6.4      2.926      4.427
REMARK  7 active torsions:
REMARK  status: ('A' for Active; 'I' for Inactive)
REMARK    1  A    between atoms: N_2  and  C_14 
REMARK    2  A    between atoms: N_4  and  C_7 
REMARK    3  A    between atoms: C_11  and  C_21 
REMARK    4  A    between atoms: C_11  and  O_24 
REMARK    5  A    between atoms: C_14  and  C_18 
REMARK    6  A    between atoms: C_18  and  C_22 
REMARK    7  A    between atoms: C_18  and  O_25 
ROOT
HETATM    1  N   UNL     1     -46.992 -47.196   8.838  1.00  0.00    -0.197 NA
HETATM    2  C   UNL     1     -46.106 -46.445   8.859  1.00  0.00     0.062 C 
HETATM    3  C   UNL     1     -44.966 -45.513   8.915  1.00  0.00     0.165 C 
ENDROOT
BRANCH   3   4
HETATM    4  C   UNL     1     -43.679 -46.248   9.267  1.00  0.00     0.102 C 
HETATM    5  C   UNL     1     -43.845 -47.693   9.828  1.00  0.00     0.165 C 
HETATM    6  N   UNL     1     -42.876 -47.341  10.813  1.00  0.00    -0.359 N 
HETATM    7  C   UNL     1     -43.095 -45.938  10.682  1.00  0.00     0.165 C 
BRANCH   6   8
HETATM    8  C   UNL     1     -42.432 -48.079  11.915  1.00  0.00     0.135 A 
HETATM    9  C   UNL     1     -41.437 -49.075  11.808  1.00  0.00     0.122 A 
HETATM   10  C   UNL     1     -41.087 -49.757  12.966  1.00  0.00     0.140 A 
HETATM   11  N   UNL     1     -40.736 -49.562  10.724  1.00  0.00    -0.346 N 
HETATM   12  N   UNL     1     -40.186 -50.707  12.556  1.00  0.00    -0.325 N 
HETATM   13  N   UNL     1     -41.573 -49.553  14.202  1.00  0.00    -0.336 N 
HETATM   14  C   UNL     1     -40.002 -50.539  11.207  1.00  0.00     0.185 A 
HETATM   15  C   UNL     1     -42.495 -48.566  14.198  1.00  0.00     0.183 A 
ATOM     16  HN  UNL     1     -41.285 -50.072  15.031  1.00  0.00     0.168 HD
HETATM   17  N   UNL     1     -42.955 -47.846  13.152  1.00  0.00    -0.337 N 
ATOM     18  HN  UNL     1     -43.680 -47.141  13.285  1.00  0.00     0.168 HD
ATOM     19  HN  UNL     1     -40.779 -49.235   9.759  1.00  0.00     0.167 HD
BRANCH  12  20
HETATM   20  C   UNL     1     -39.695 -51.835  13.330  1.00  0.00     0.165 C 
BRANCH  20  21
HETATM   21  C   UNL     1     -40.459 -53.151  13.109  1.00  0.00     0.165 C 
BRANCH  21  22
HETATM   22  C   UNL     1     -41.925 -53.096  13.576  1.00  0.00     0.151 C 
HETATM   23  O   UNL     1     -42.268 -54.322  14.262  1.00  0.00    -0.383 OA
HETATM   24  C   UNL     1     -43.683 -54.534  14.108  1.00  0.00     0.168 C 
HETATM   25  C   UNL     1     -44.221 -53.391  13.268  1.00  0.00     0.029 C 
HETATM   26  C   UNL     1     -42.995 -52.918  12.520  1.00  0.00     0.036 C 
ENDBRANCH  21  22
BRANCH  21  27
HETATM   27  O   UNL     1     -40.489 -53.468  11.704  1.00  0.00    -0.391 OA
HETATM   28  H   UNL     1     -40.827 -54.384  11.631  1.00  0.00     0.210 HD
ENDBRANCH  21  27
ENDBRANCH  20  21
ENDBRANCH  12  20
ENDBRANCH   6   8
BRANCH   4  29
HETATM   29  O   UNL     1     -42.720 -46.087   8.180  1.00  0.00    -0.386 OA
HETATM   30  H   UNL     1     -42.181 -46.899   8.184  1.00  0.00     0.210 HD
ENDBRANCH   4  29
ENDBRANCH   3   4
TORSDOF 7
ENDMDL
MODEL 6
REMARK VINA RESULT:      -6.4      3.159      8.626
REMARK  7 active torsions:
REMARK  status: ('A' for Active; 'I' for Inactive)
REMARK    1  A    between atoms: N_2  and  C_14 
REMARK    2  A    between atoms: N_4  and  C_7 
REMARK    3  A    between atoms: C_11  and  C_21 
REMARK    4  A    between atoms: C_11  and  O_24 
REMARK    5  A    between atoms: C_14  and  C_18 
REMARK    6  A    between atoms: C_18  and  C_22 
REMARK    7  A    between atoms: C_18  and  O_25 
ROOT
HETATM    1  N   UNL     1     -46.114 -54.557  15.192  1.00  0.00    -0.197 NA
HETATM    2  C   UNL     1     -45.237 -54.535  14.431  1.00  0.00     0.062 C 
HETATM    3  C   UNL     1     -44.144 -54.481  13.444  1.00  0.00     0.165 C 
ENDROOT
BRANCH   3   4
HETATM    4  C   UNL     1     -44.012 -53.083  12.853  1.00  0.00     0.102 C 
HETATM    5  C   UNL     1     -42.596 -52.689  12.331  1.00  0.00     0.165 C 
HETATM    6  N   UNL     1     -42.785 -51.438  12.988  1.00  0.00    -0.359 N 
HETATM    7  C   UNL     1     -43.774 -51.937  13.886  1.00  0.00     0.165 C 
BRANCH   6   8
HETATM    8  C   UNL     1     -41.883 -50.382  13.147  1.00  0.00     0.135 A 
HETATM    9  C   UNL     1     -41.807 -49.307  12.234  1.00  0.00     0.122 A 
HETATM   10  C   UNL     1     -40.861 -48.321  12.482  1.00  0.00     0.140 A 
HETATM   11  N   UNL     1     -42.489 -49.045  11.064  1.00  0.00    -0.346 N 
HETATM   12  N   UNL     1     -40.948 -47.472  11.409  1.00  0.00    -0.325 N 
HETATM   13  N   UNL     1     -40.015 -48.258  13.525  1.00  0.00    -0.336 N 
HETATM   14  C   UNL     1     -41.946 -47.944  10.595  1.00  0.00     0.185 A 
HETATM   15  C   UNL     1     -40.187 -49.315  14.347  1.00  0.00     0.183 A 
ATOM     16  HN  UNL     1     -39.336 -47.512  13.676  1.00  0.00     0.168 HD
HETATM   17  N   UNL     1     -41.038 -50.357  14.215  1.00  0.00    -0.337 N 
ATOM     18  HN  UNL     1     -41.047 -51.110  14.903  1.00  0.00     0.168 HD
ATOM     19  HN  UNL     1     -43.248 -49.587  10.652  1.00  0.00     0.167 HD
BRANCH  12  20
HETATM   20  C   UNL     1     -40.016 -46.414  11.056  1.00  0.00     0.165 C 
BRANCH  20  21
HETATM   21  C   UNL     1     -40.630 -45.251  10.260  1.00  0.00     0.165 C 
BRANCH  21  22
HETATM   22  C   UNL     1     -41.284 -44.176  11.148  1.00  0.00     0.151 C 
HETATM   23  O   UNL     1     -42.567 -43.799  10.598  1.00  0.00    -0.383 OA
HETATM   24  C   UNL     1     -42.840 -42.445  11.000  1.00  0.00     0.168 C 
HETATM   25  C   UNL     1     -41.653 -41.969  11.817  1.00  0.00     0.029 C 
HETATM   26  C   UNL     1     -40.537 -42.874  11.345  1.00  0.00     0.036 C 
ENDBRANCH  21  22
BRANCH  21  27
HETATM   27  O   UNL     1     -39.604 -44.584   9.500  1.00  0.00    -0.391 OA
HETATM   28  H   UNL     1     -39.896 -43.656   9.389  1.00  0.00     0.210 HD
ENDBRANCH  21  27
ENDBRANCH  20  21
ENDBRANCH  12  20
ENDBRANCH   6   8
BRANCH   4  29
HETATM   29  O   UNL     1     -45.124 -52.840  11.940  1.00  0.00    -0.386 OA
HETATM   30  H   UNL     1     -45.350 -53.711  11.567  1.00  0.00     0.210 HD
ENDBRANCH   4  29
ENDBRANCH   3   4
TORSDOF 7
ENDMDL
MODEL 7
REMARK VINA RESULT:      -6.2      1.965      2.719
REMARK  7 active torsions:
REMARK  status: ('A' for Active; 'I' for Inactive)
REMARK    1  A    between atoms: N_2  and  C_14 
REMARK    2  A    between atoms: N_4  and  C_7 
REMARK    3  A    between atoms: C_11  and  C_21 
REMARK    4  A    between atoms: C_11  and  O_24 
REMARK    5  A    between atoms: C_14  and  C_18 
REMARK    6  A    between atoms: C_18  and  C_22 
REMARK    7  A    between atoms: C_18  and  O_25 
ROOT
HETATM    1  N   UNL     1     -39.683 -43.249  13.658  1.00  0.00    -0.197 NA
HETATM    2  C   UNL     1     -40.008 -43.271  12.544  1.00  0.00     0.062 C 
HETATM    3  C   UNL     1     -40.396 -43.330  11.124  1.00  0.00     0.165 C 
ENDROOT
BRANCH   3   4
HETATM    4  C   UNL     1     -40.377 -44.764  10.612  1.00  0.00     0.102 C 
HETATM    5  C   UNL     1     -41.755 -45.495  10.567  1.00  0.00     0.165 C 
HETATM    6  N   UNL     1     -41.091 -46.620  11.138  1.00  0.00    -0.359 N 
HETATM    7  C   UNL     1     -40.017 -45.851  11.675  1.00  0.00     0.165 C 
BRANCH   6   8
HETATM    8  C   UNL     1     -41.633 -47.831  11.579  1.00  0.00     0.135 A 
HETATM    9  C   UNL     1     -40.879 -49.024  11.632  1.00  0.00     0.122 A 
HETATM   10  C   UNL     1     -41.525 -50.172  12.070  1.00  0.00     0.140 A 
HETATM   11  N   UNL     1     -39.575 -49.304  11.278  1.00  0.00    -0.346 N 
HETATM   12  N   UNL     1     -40.597 -51.173  11.932  1.00  0.00    -0.325 N 
HETATM   13  N   UNL     1     -42.800 -50.273  12.486  1.00  0.00    -0.336 N 
HETATM   14  C   UNL     1     -39.443 -50.597  11.466  1.00  0.00     0.185 A 
HETATM   15  C   UNL     1     -43.421 -49.076  12.420  1.00  0.00     0.183 A 
ATOM     16  HN  UNL     1     -43.238 -51.136  12.807  1.00  0.00     0.168 HD
HETATM   17  N   UNL     1     -42.932 -47.893  11.987  1.00  0.00    -0.337 N 
ATOM     18  HN  UNL     1     -43.523 -47.063  11.966  1.00  0.00     0.168 HD
ATOM     19  HN  UNL     1     -38.868 -48.649  10.944  1.00  0.00     0.167 HD
BRANCH  12  20
HETATM   20  C   UNL     1     -40.838 -52.604  12.023  1.00  0.00     0.165 C 
BRANCH  20  21
HETATM   21  C   UNL     1     -40.513 -53.228  13.390  1.00  0.00     0.165 C 
BRANCH  21  22
HETATM   22  C   UNL     1     -41.764 -53.589  14.213  1.00  0.00     0.151 C 
HETATM   23  O   UNL     1     -41.469 -54.697  15.092  1.00  0.00    -0.383 OA
HETATM   24  C   UNL     1     -42.697 -55.408  15.335  1.00  0.00     0.168 C 
HETATM   25  C   UNL     1     -43.787 -54.707  14.546  1.00  0.00     0.029 C 
HETATM   26  C   UNL     1     -43.010 -54.000  13.458  1.00  0.00     0.036 C 
ENDBRANCH  21  22
BRANCH  21  27
HETATM   27  O   UNL     1     -39.778 -54.454  13.204  1.00  0.00    -0.391 OA
HETATM   28  H   UNL     1     -38.925 -54.341  13.671  1.00  0.00     0.210 HD
ENDBRANCH  21  27
ENDBRANCH  20  21
ENDBRANCH  12  20
ENDBRANCH   6   8
BRANCH   4  29
HETATM   29  O   UNL     1     -39.574 -44.832   9.397  1.00  0.00    -0.386 OA
HETATM   30  H   UNL     1     -38.648 -44.769   9.693  1.00  0.00     0.210 HD
ENDBRANCH   4  29
ENDBRANCH   3   4
TORSDOF 7
ENDMDL
MODEL 8
REMARK VINA RESULT:      -6.2      5.553      7.359
REMARK  7 active torsions:
REMARK  status: ('A' for Active; 'I' for Inactive)
REMARK    1  A    between atoms: N_2  and  C_14 
REMARK    2  A    between atoms: N_4  and  C_7 
REMARK    3  A    between atoms: C_11  and  C_21 
REMARK    4  A    between atoms: C_11  and  O_24 
REMARK    5  A    between atoms: C_14  and  C_18 
REMARK    6  A    between atoms: C_18  and  C_22 
REMARK    7  A    between atoms: C_18  and  O_25 
ROOT
HETATM    1  N   UNL     1     -34.835 -47.641  16.729  1.00  0.00    -0.197 NA
HETATM    2  C   UNL     1     -35.851 -47.976  16.278  1.00  0.00     0.062 C 
HETATM    3  C   UNL     1     -37.123 -48.430  15.687  1.00  0.00     0.165 C 
ENDROOT
BRANCH   3   4
HETATM    4  C   UNL     1     -37.129 -49.941  15.502  1.00  0.00     0.102 C 
HETATM    5  C   UNL     1     -37.516 -50.458  14.082  1.00  0.00     0.165 C 
HETATM    6  N   UNL     1     -38.340 -51.418  14.738  1.00  0.00    -0.359 N 
HETATM    7  C   UNL     1     -38.438 -50.666  15.946  1.00  0.00     0.165 C 
BRANCH   6   8
HETATM    8  C   UNL     1     -39.232 -52.339  14.182  1.00  0.00     0.135 A 
HETATM    9  C   UNL     1     -40.450 -51.948  13.583  1.00  0.00     0.122 A 
HETATM   10  C   UNL     1     -41.268 -52.951  13.079  1.00  0.00     0.140 A 
HETATM   11  N   UNL     1     -41.042 -50.712  13.427  1.00  0.00    -0.346 N 
HETATM   12  N   UNL     1     -42.397 -52.302  12.651  1.00  0.00    -0.325 N 
HETATM   13  N   UNL     1     -41.014 -54.271  13.069  1.00  0.00    -0.336 N 
HETATM   14  C   UNL     1     -42.206 -50.962  12.871  1.00  0.00     0.185 A 
HETATM   15  C   UNL     1     -39.818 -54.534  13.640  1.00  0.00     0.183 A 
ATOM     16  HN  UNL     1     -41.639 -54.978  12.683  1.00  0.00     0.168 HD
HETATM   17  N   UNL     1     -38.941 -53.670  14.197  1.00  0.00    -0.337 N 
ATOM     18  HN  UNL     1     -38.078 -54.009  14.621  1.00  0.00     0.168 HD
ATOM     19  HN  UNL     1     -40.660 -49.802  13.686  1.00  0.00     0.167 HD
BRANCH  12  20
HETATM   20  C   UNL     1     -43.659 -52.911  12.263  1.00  0.00     0.165 C 
BRANCH  20  21
HETATM   21  C   UNL     1     -44.381 -53.672  13.387  1.00  0.00     0.165 C 
BRANCH  21  22
HETATM   22  C   UNL     1     -45.148 -52.754  14.357  1.00  0.00     0.151 C 
HETATM   23  O   UNL     1     -46.121 -53.525  15.097  1.00  0.00    -0.383 OA
HETATM   24  C   UNL     1     -47.197 -52.644  15.465  1.00  0.00     0.168 C 
HETATM   25  C   UNL     1     -46.871 -51.274  14.900  1.00  0.00     0.029 C 
HETATM   26  C   UNL     1     -45.924 -51.596  13.766  1.00  0.00     0.036 C 
ENDBRANCH  21  22
BRANCH  21  27
HETATM   27  O   UNL     1     -45.354 -54.572  12.821  1.00  0.00    -0.391 OA
HETATM   28  H   UNL     1     -45.492 -55.284  13.479  1.00  0.00     0.210 HD
ENDBRANCH  21  27
ENDBRANCH  20  21
ENDBRANCH  12  20
ENDBRANCH   6   8
BRANCH   4  29
HETATM   29  O   UNL     1     -35.913 -50.502  16.081  1.00  0.00    -0.386 OA
HETATM   30  H   UNL     1     -35.577 -51.134  15.420  1.00  0.00     0.210 HD
ENDBRANCH   4  29
ENDBRANCH   3   4
TORSDOF 7
ENDMDL
MODEL 9
REMARK VINA RESULT:      -6.1      5.041      6.504
REMARK  7 active torsions:
REMARK  status: ('A' for Active; 'I' for Inactive)
REMARK    1  A    between atoms: N_2  and  C_14 
REMARK    2  A    between atoms: N_4  and  C_7 
REMARK    3  A    between atoms: C_11  and  C_21 
REMARK    4  A    between atoms: C_11  and  O_24 
REMARK    5  A    between atoms: C_14  and  C_18 
REMARK    6  A    between atoms: C_18  and  C_22 
REMARK    7  A    between atoms: C_18  and  O_25 
ROOT
HETATM    1  N   UNL     1     -33.987 -47.615  19.212  1.00  0.00    -0.197 NA
HETATM    2  C   UNL     1     -35.002 -47.752  18.665  1.00  0.00     0.062 C 
HETATM    3  C   UNL     1     -36.273 -47.916  17.938  1.00  0.00     0.165 C 
ENDROOT
BRANCH   3   4
HETATM    4  C   UNL     1     -36.030 -48.417  16.521  1.00  0.00     0.102 C 
HETATM    5  C   UNL     1     -36.915 -47.780  15.406  1.00  0.00     0.165 C 
HETATM    6  N   UNL     1     -37.096 -49.100  14.900  1.00  0.00    -0.359 N 
HETATM    7  C   UNL     1     -36.777 -49.733  16.137  1.00  0.00     0.165 C 
BRANCH   6   8
HETATM    8  C   UNL     1     -37.915 -49.538  13.855  1.00  0.00     0.135 A 
HETATM    9  C   UNL     1     -39.325 -49.469  13.917  1.00  0.00     0.122 A 
HETATM   10  C   UNL     1     -40.038 -49.950  12.827  1.00  0.00     0.140 A 
HETATM   11  N   UNL     1     -40.181 -49.037  14.908  1.00  0.00    -0.346 N 
HETATM   12  N   UNL     1     -41.355 -49.845  13.195  1.00  0.00    -0.325 N 
HETATM   13  N   UNL     1     -39.531 -50.455  11.689  1.00  0.00    -0.336 N 
HETATM   14  C   UNL     1     -41.386 -49.281  14.445  1.00  0.00     0.185 A 
HETATM   15  C   UNL     1     -38.182 -50.452  11.723  1.00  0.00     0.183 A 
ATOM     16  HN  UNL     1     -40.090 -50.794  10.907  1.00  0.00     0.168 HD
HETATM   17  N   UNL     1     -37.363 -50.050  12.719  1.00  0.00    -0.337 N 
ATOM     18  HN  UNL     1     -36.351 -50.127  12.623  1.00  0.00     0.168 HD
ATOM     19  HN  UNL     1     -39.933 -48.619  15.805  1.00  0.00     0.167 HD
BRANCH  12  20
HETATM   20  C   UNL     1     -42.500 -50.431  12.517  1.00  0.00     0.165 C 
BRANCH  20  21
HETATM   21  C   UNL     1     -42.755 -51.912  12.843  1.00  0.00     0.165 C 
BRANCH  21  22
HETATM   22  C   UNL     1     -44.173 -52.188  13.375  1.00  0.00     0.151 C 
HETATM   23  O   UNL     1     -44.974 -52.803  12.341  1.00  0.00    -0.383 OA
HETATM   24  C   UNL     1     -46.351 -52.466  12.589  1.00  0.00     0.168 C 
HETATM   25  C   UNL     1     -46.384 -51.585  13.824  1.00  0.00     0.029 C 
HETATM   26  C   UNL     1     -44.986 -51.008  13.861  1.00  0.00     0.036 C 
ENDBRANCH  21  22
BRANCH  21  27
HETATM   27  O   UNL     1     -42.603 -52.707  11.652  1.00  0.00    -0.391 OA
HETATM   28  H   UNL     1     -42.620 -53.644  11.936  1.00  0.00     0.210 HD
ENDBRANCH  21  27
ENDBRANCH  20  21
ENDBRANCH  12  20
ENDBRANCH   6   8
BRANCH   4  29
HETATM   29  O   UNL     1     -34.595 -48.450  16.262  1.00  0.00    -0.386 OA
HETATM   30  H   UNL     1     -34.181 -48.025  17.034  1.00  0.00     0.210 HD
ENDBRANCH   4  29
ENDBRANCH   3   4
TORSDOF 7
ENDMDL
