MODEL 1
REMARK VINA RESULT:      -5.9      0.000      0.000
REMARK  4 active torsions:
REMARK  status: ('A' for Active; 'I' for Inactive)
REMARK    1  A    between atoms: C_2  and  C_3 
REMARK    2  A    between atoms: C_6  and  C_7 
REMARK    3  A    between atoms: C_7  and  C_8 
REMARK    4  A    between atoms: C_8  and  N_9 
REMARK       I    between atoms: N_9  and  C_10 
REMARK       I    between atoms: C_10  and  N_12 
ROOT
HETATM    1  C   UNL     1     -40.530 -49.935  11.112  1.00  0.00     0.131 C 
ENDROOT
BRANCH   1   2
HETATM    2  C   UNL     1     -40.851 -48.515  11.590  1.00  0.00     0.084 C 
BRANCH   2   3
HETATM    3  C   UNL     1     -41.813 -47.837  10.666  1.00  0.00     0.053 A 
HETATM    4  N   UNL     1     -42.304 -48.373   9.571  1.00  0.00    -0.356 N 
HETATM    5  C   UNL     1     -43.155 -47.480   8.940  1.00  0.00     0.022 A 
ATOM      6  HN  UNL     1     -42.090 -49.311   9.234  1.00  0.00     0.166 HD
HETATM    7  C   UNL     1     -43.311 -46.267   9.591  1.00  0.00     0.003 A 
HETATM    8  S   UNL     1     -42.364 -46.248  11.016  1.00  0.00    -0.080 SA
HETATM    9  C   UNL     1     -44.137 -45.089   9.212  1.00  0.00     0.058 C 
BRANCH   5  10
HETATM   10  C   UNL     1     -43.800 -47.912   7.663  1.00  0.00     0.054 C 
HETATM   11  C   UNL     1     -45.267 -48.263   7.853  1.00  0.00     0.011 C 
ENDBRANCH   5  10
ENDBRANCH   2   3
ENDBRANCH   1   2
BRANCH   1  12
HETATM   12  N   UNL     1     -41.449 -50.962  11.591  1.00  0.00    -0.343 N 
HETATM   13  C   UNL     1     -40.974 -52.098  12.201  1.00  0.00     0.318 C 
HETATM   14  O   UNL     1     -39.776 -52.265  12.415  1.00  0.00    -0.247 OA
HETATM   15  N   UNL     1     -41.933 -53.019  12.580  1.00  0.00    -0.333 N 
HETATM   16  C   UNL     1     -43.390 -52.876  12.458  1.00  0.00     0.137 C 
HETATM   17  C   UNL     1     -41.485 -54.208  13.320  1.00  0.00     0.137 C 
HETATM   18  C   UNL     1     -44.093 -52.761  13.814  1.00  0.00     0.093 C 
HETATM   19  S   UNL     1     -43.787 -54.211  14.874  1.00  0.00    -0.166 SA
HETATM   20  C   UNL     1     -41.964 -54.206  14.773  1.00  0.00     0.093 C 
HETATM   21  H   UNL     1     -42.220 -51.131  10.969  1.00  0.00     0.164 HD
ENDBRANCH   1  12
TORSDOF 4
ENDMDL
MODEL 2
REMARK VINA RESULT:      -5.8      2.111      3.027
REMARK  4 active torsions:
REMARK  status: ('A' for Active; 'I' for Inactive)
REMARK    1  A    between atoms: C_2  and  C_3 
REMARK    2  A    between atoms: C_6  and  C_7 
REMARK    3  A    between atoms: C_7  and  C_8 
REMARK    4  A    between atoms: C_8  and  N_9 
REMARK       I    between atoms: N_9  and  C_10 
REMARK       I    between atoms: C_10  and  N_12 
ROOT
HETATM    1  C   UNL     1     -41.242 -52.392  11.770  1.00  0.00     0.131 C 
ENDROOT
BRANCH   1   2
HETATM    2  C   UNL     1     -40.576 -51.286  12.594  1.00  0.00     0.084 C 
BRANCH   2   3
HETATM    3  C   UNL     1     -40.747 -49.949  11.945  1.00  0.00     0.053 A 
HETATM    4  N   UNL     1     -41.732 -49.630  11.134  1.00  0.00    -0.356 N 
HETATM    5  C   UNL     1     -41.591 -48.322  10.699  1.00  0.00     0.022 A 
ATOM      6  HN  UNL     1     -42.491 -50.256  10.865  1.00  0.00     0.166 HD
HETATM    7  C   UNL     1     -40.490 -47.655  11.211  1.00  0.00     0.003 A 
HETATM    8  S   UNL     1     -39.616 -48.693  12.252  1.00  0.00    -0.080 SA
HETATM    9  C   UNL     1     -40.033 -46.260  10.970  1.00  0.00     0.058 C 
BRANCH   5  10
HETATM   10  C   UNL     1     -42.616 -47.786   9.753  1.00  0.00     0.054 C 
HETATM   11  C   UNL     1     -43.868 -47.312  10.474  1.00  0.00     0.011 C 
ENDBRANCH   5  10
ENDBRANCH   2   3
ENDBRANCH   1   2
BRANCH   1  12
HETATM   12  N   UNL     1     -42.656 -52.604  12.064  1.00  0.00    -0.343 N 
HETATM   13  C   UNL     1     -43.052 -53.613  12.908  1.00  0.00     0.318 C 
HETATM   14  O   UNL     1     -42.239 -54.330  13.486  1.00  0.00    -0.247 OA
HETATM   15  N   UNL     1     -44.418 -53.744  13.084  1.00  0.00    -0.333 N 
HETATM   16  C   UNL     1     -45.466 -52.885  12.519  1.00  0.00     0.137 C 
HETATM   17  C   UNL     1     -44.889 -54.748  14.049  1.00  0.00     0.137 C 
HETATM   18  C   UNL     1     -46.201 -52.064  13.583  1.00  0.00     0.093 C 
HETATM   19  S   UNL     1     -46.996 -53.118  14.839  1.00  0.00    -0.166 SA
HETATM   20  C   UNL     1     -45.531 -54.112  15.285  1.00  0.00     0.093 C 
HETATM   21  H   UNL     1     -43.252 -52.492  11.263  1.00  0.00     0.164 HD
ENDBRANCH   1  12
TORSDOF 4
ENDMDL
MODEL 3
REMARK VINA RESULT:      -5.7      2.221      2.532
REMARK  4 active torsions:
REMARK  status: ('A' for Active; 'I' for Inactive)
REMARK    1  A    between atoms: C_2  and  C_3 
REMARK    2  A    between atoms: C_6  and  C_7 
REMARK    3  A    between atoms: C_7  and  C_8 
REMARK    4  A    between atoms: C_8  and  N_9 
REMARK       I    between atoms: N_9  and  C_10 
REMARK       I    between atoms: C_10  and  N_12 
ROOT
HETATM    1  C   UNL     1     -42.339 -48.931  13.212  1.00  0.00     0.131 C 
ENDROOT
BRANCH   1   2
HETATM    2  C   UNL     1     -42.699 -47.513  12.755  1.00  0.00     0.084 C 
BRANCH   2   3
HETATM    3  C   UNL     1     -43.219 -47.512  11.352  1.00  0.00     0.053 A 
HETATM    4  N   UNL     1     -44.459 -47.236  11.013  1.00  0.00    -0.356 N 
HETATM    5  C   UNL     1     -44.613 -47.334   9.639  1.00  0.00     0.022 A 
ATOM      6  HN  UNL     1     -45.200 -46.985  11.666  1.00  0.00     0.166 HD
HETATM    7  C   UNL     1     -43.461 -47.673   8.948  1.00  0.00     0.003 A 
HETATM    8  S   UNL     1     -42.165 -47.876  10.046  1.00  0.00    -0.080 SA
HETATM    9  C   UNL     1     -43.256 -47.860   7.486  1.00  0.00     0.058 C 
BRANCH   5  10
HETATM   10  C   UNL     1     -45.968 -47.067   9.067  1.00  0.00     0.054 C 
HETATM   11  C   UNL     1     -46.749 -48.349   8.826  1.00  0.00     0.011 C 
ENDBRANCH   5  10
ENDBRANCH   2   3
ENDBRANCH   1   2
BRANCH   1  12
HETATM   12  N   UNL     1     -43.468 -49.853  13.287  1.00  0.00    -0.343 N 
HETATM   13  C   UNL     1     -43.308 -51.182  12.980  1.00  0.00     0.318 C 
HETATM   14  O   UNL     1     -42.211 -51.652  12.689  1.00  0.00    -0.247 OA
HETATM   15  N   UNL     1     -44.453 -51.954  13.049  1.00  0.00    -0.333 N 
HETATM   16  C   UNL     1     -45.788 -51.515  13.475  1.00  0.00     0.137 C 
HETATM   17  C   UNL     1     -44.318 -53.400  12.820  1.00  0.00     0.137 C 
HETATM   18  C   UNL     1     -46.228 -52.146  14.800  1.00  0.00     0.093 C 
HETATM   19  S   UNL     1     -46.268 -53.966  14.716  1.00  0.00    -0.166 SA
HETATM   20  C   UNL     1     -44.572 -54.218  14.088  1.00  0.00     0.093 C 
HETATM   21  H   UNL     1     -44.328 -49.461  12.946  1.00  0.00     0.164 HD
ENDBRANCH   1  12
TORSDOF 4
ENDMDL
MODEL 4
REMARK VINA RESULT:      -5.7      2.702      7.112
REMARK  4 active torsions:
REMARK  status: ('A' for Active; 'I' for Inactive)
REMARK    1  A    between atoms: C_2  and  C_3 
REMARK    2  A    between atoms: C_6  and  C_7 
REMARK    3  A    between atoms: C_7  and  C_8 
REMARK    4  A    between atoms: C_8  and  N_9 
REMARK       I    between atoms: N_9  and  C_10 
REMARK       I    between atoms: C_10  and  N_12 
ROOT
HETATM    1  C   UNL     1     -40.862 -50.068  11.371  1.00  0.00     0.131 C 
ENDROOT
BRANCH   1   2
HETATM    2  C   UNL     1     -41.212 -50.408  12.824  1.00  0.00     0.084 C 
BRANCH   2   3
HETATM    3  C   UNL     1     -42.454 -51.237  12.903  1.00  0.00     0.053 A 
HETATM    4  N   UNL     1     -43.678 -50.759  12.861  1.00  0.00    -0.356 N 
HETATM    5  C   UNL     1     -44.599 -51.789  12.969  1.00  0.00     0.022 A 
ATOM      6  HN  UNL     1     -43.916 -49.772  12.764  1.00  0.00     0.166 HD
HETATM    7  C   UNL     1     -44.047 -53.054  13.074  1.00  0.00     0.003 A 
HETATM    8  S   UNL     1     -42.339 -52.945  13.043  1.00  0.00    -0.080 SA
HETATM    9  C   UNL     1     -44.721 -54.374  13.200  1.00  0.00     0.058 C 
BRANCH   5  10
HETATM   10  C   UNL     1     -46.051 -51.432  12.955  1.00  0.00     0.054 C 
HETATM   11  C   UNL     1     -46.644 -51.395  14.355  1.00  0.00     0.011 C 
ENDBRANCH   5  10
ENDBRANCH   2   3
ENDBRANCH   1   2
BRANCH   1  12
HETATM   12  N   UNL     1     -40.614 -48.652  11.118  1.00  0.00    -0.343 N 
HETATM   13  C   UNL     1     -41.656 -47.792  10.870  1.00  0.00     0.318 C 
HETATM   14  O   UNL     1     -42.826 -48.164  10.907  1.00  0.00    -0.247 OA
HETATM   15  N   UNL     1     -41.300 -46.482  10.607  1.00  0.00    -0.333 N 
HETATM   16  C   UNL     1     -39.946 -45.914  10.632  1.00  0.00     0.137 C 
HETATM   17  C   UNL     1     -42.382 -45.502  10.426  1.00  0.00     0.137 C 
HETATM   18  C   UNL     1     -39.740 -44.914  11.774  1.00  0.00     0.093 C 
HETATM   19  S   UNL     1     -40.903 -43.514  11.682  1.00  0.00    -0.166 SA
HETATM   20  C   UNL     1     -42.445 -44.486  11.569  1.00  0.00     0.093 C 
HETATM   21  H   UNL     1     -39.807 -48.484  10.544  1.00  0.00     0.164 HD
ENDBRANCH   1  12
TORSDOF 4
ENDMDL
MODEL 5
REMARK VINA RESULT:      -5.4      3.875      6.389
REMARK  4 active torsions:
REMARK  status: ('A' for Active; 'I' for Inactive)
REMARK    1  A    between atoms: C_2  and  C_3 
REMARK    2  A    between atoms: C_6  and  C_7 
REMARK    3  A    between atoms: C_7  and  C_8 
REMARK    4  A    between atoms: C_8  and  N_9 
REMARK       I    between atoms: N_9  and  C_10 
REMARK       I    between atoms: C_10  and  N_12 
ROOT
HETATM    1  C   UNL     1     -41.659 -54.037  13.323  1.00  0.00     0.131 C 
ENDROOT
BRANCH   1   2
HETATM    2  C   UNL     1     -42.648 -53.990  14.493  1.00  0.00     0.084 C 
BRANCH   2   3
HETATM    3  C   UNL     1     -43.916 -53.300  14.103  1.00  0.00     0.053 A 
HETATM    4  N   UNL     1     -44.719 -52.678  14.938  1.00  0.00    -0.356 N 
HETATM    5  C   UNL     1     -45.809 -52.158  14.259  1.00  0.00     0.022 A 
ATOM      6  HN  UNL     1     -44.562 -52.592  15.943  1.00  0.00     0.166 HD
HETATM    7  C   UNL     1     -45.803 -52.382  12.892  1.00  0.00     0.003 A 
HETATM    8  S   UNL     1     -44.406 -53.270  12.457  1.00  0.00    -0.080 SA
HETATM    9  C   UNL     1     -46.793 -51.971  11.861  1.00  0.00     0.058 C 
BRANCH   5  10
HETATM   10  C   UNL     1     -46.842 -51.425  15.052  1.00  0.00     0.054 C 
HETATM   11  C   UNL     1     -46.338 -51.045  16.435  1.00  0.00     0.011 C 
ENDBRANCH   5  10
ENDBRANCH   2   3
ENDBRANCH   1   2
BRANCH   1  12
HETATM   12  N   UNL     1     -40.543 -53.101  13.430  1.00  0.00    -0.343 N 
HETATM   13  C   UNL     1     -40.421 -52.055  12.549  1.00  0.00     0.318 C 
HETATM   14  O   UNL     1     -41.264 -51.835  11.683  1.00  0.00    -0.247 OA
HETATM   15  N   UNL     1     -39.305 -51.255  12.721  1.00  0.00    -0.333 N 
HETATM   16  C   UNL     1     -38.291 -51.373  13.777  1.00  0.00     0.137 C 
HETATM   17  C   UNL     1     -39.175 -50.068  11.863  1.00  0.00     0.137 C 
HETATM   18  C   UNL     1     -38.314 -50.197  14.759  1.00  0.00     0.093 C 
HETATM   19  S   UNL     1     -38.036 -48.600  13.928  1.00  0.00    -0.166 SA
HETATM   20  C   UNL     1     -39.327 -48.763  12.648  1.00  0.00     0.093 C 
HETATM   21  H   UNL     1     -39.670 -53.544  13.654  1.00  0.00     0.164 HD
ENDBRANCH   1  12
TORSDOF 4
ENDMDL
MODEL 6
REMARK VINA RESULT:      -5.2      3.902      6.341
REMARK  4 active torsions:
REMARK  status: ('A' for Active; 'I' for Inactive)
REMARK    1  A    between atoms: C_2  and  C_3 
REMARK    2  A    between atoms: C_6  and  C_7 
REMARK    3  A    between atoms: C_7  and  C_8 
REMARK    4  A    between atoms: C_8  and  N_9 
REMARK       I    between atoms: N_9  and  C_10 
REMARK       I    between atoms: C_10  and  N_12 
ROOT
HETATM    1  C   UNL     1     -41.369 -52.188  11.977  1.00  0.00     0.131 C 
ENDROOT
BRANCH   1   2
HETATM    2  C   UNL     1     -41.901 -53.479  12.607  1.00  0.00     0.084 C 
BRANCH   2   3
HETATM    3  C   UNL     1     -43.338 -53.336  13.002  1.00  0.00     0.053 A 
HETATM    4  N   UNL     1     -44.149 -52.405  12.552  1.00  0.00    -0.356 N 
HETATM    5  C   UNL     1     -45.404 -52.547  13.121  1.00  0.00     0.022 A 
ATOM      6  HN  UNL     1     -43.892 -51.682  11.879  1.00  0.00     0.166 HD
HETATM    7  C   UNL     1     -45.529 -53.614  13.996  1.00  0.00     0.003 A 
HETATM    8  S   UNL     1     -44.039 -54.448  14.107  1.00  0.00    -0.080 SA
HETATM    9  C   UNL     1     -46.712 -54.065  14.776  1.00  0.00     0.058 C 
BRANCH   5  10
HETATM   10  C   UNL     1     -46.461 -51.562  12.737  1.00  0.00     0.054 C 
HETATM   11  C   UNL     1     -47.089 -51.892  11.393  1.00  0.00     0.011 C 
ENDBRANCH   5  10
ENDBRANCH   2   3
ENDBRANCH   1   2
BRANCH   1  12
HETATM   12  N   UNL     1     -40.969 -51.161  12.934  1.00  0.00    -0.343 N 
HETATM   13  C   UNL     1     -39.646 -50.982  13.257  1.00  0.00     0.318 C 
HETATM   14  O   UNL     1     -38.754 -51.631  12.718  1.00  0.00    -0.247 OA
HETATM   15  N   UNL     1     -39.388 -50.006  14.204  1.00  0.00    -0.333 N 
HETATM   16  C   UNL     1     -40.367 -49.112  14.837  1.00  0.00     0.137 C 
HETATM   17  C   UNL     1     -37.982 -49.711  14.516  1.00  0.00     0.137 C 
HETATM   18  C   UNL     1     -40.190 -47.648  14.424  1.00  0.00     0.093 C 
HETATM   19  S   UNL     1     -38.536 -47.008  14.841  1.00  0.00    -0.166 SA
HETATM   20  C   UNL     1     -37.557 -48.322  14.035  1.00  0.00     0.093 C 
HETATM   21  H   UNL     1     -41.590 -51.083  13.720  1.00  0.00     0.164 HD
ENDBRANCH   1  12
TORSDOF 4
ENDMDL
MODEL 7
REMARK VINA RESULT:      -5.2      2.756      3.628
REMARK  4 active torsions:
REMARK  status: ('A' for Active; 'I' for Inactive)
REMARK    1  A    between atoms: C_2  and  C_3 
REMARK    2  A    between atoms: C_6  and  C_7 
REMARK    3  A    between atoms: C_7  and  C_8 
REMARK    4  A    between atoms: C_8  and  N_9 
REMARK       I    between atoms: N_9  and  C_10 
REMARK       I    between atoms: C_10  and  N_12 
ROOT
HETATM    1  C   UNL     1     -43.008 -48.420  11.803  1.00  0.00     0.131 C 
ENDROOT
BRANCH   1   2
HETATM    2  C   UNL     1     -42.903 -47.685  10.462  1.00  0.00     0.084 C 
BRANCH   2   3
HETATM    3  C   UNL     1     -41.960 -46.526  10.553  1.00  0.00     0.053 A 
HETATM    4  N   UNL     1     -40.720 -46.534  10.116  1.00  0.00    -0.356 N 
HETATM    5  C   UNL     1     -40.118 -45.310  10.362  1.00  0.00     0.022 A 
ATOM      6  HN  UNL     1     -40.266 -47.327   9.662  1.00  0.00     0.166 HD
HETATM    7  C   UNL     1     -40.934 -44.374  10.975  1.00  0.00     0.003 A 
HETATM    8  S   UNL     1     -42.482 -45.048  11.253  1.00  0.00    -0.080 SA
HETATM    9  C   UNL     1     -40.630 -42.975  11.380  1.00  0.00     0.058 C 
BRANCH   5  10
HETATM   10  C   UNL     1     -38.693 -45.136   9.945  1.00  0.00     0.054 C 
HETATM   11  C   UNL     1     -38.573 -44.493   8.573  1.00  0.00     0.011 C 
ENDBRANCH   5  10
ENDBRANCH   2   3
ENDBRANCH   1   2
BRANCH   1  12
HETATM   12  N   UNL     1     -42.353 -49.725  11.836  1.00  0.00    -0.343 N 
HETATM   13  C   UNL     1     -41.092 -49.861  12.363  1.00  0.00     0.318 C 
HETATM   14  O   UNL     1     -40.496 -48.915  12.871  1.00  0.00    -0.247 OA
HETATM   15  N   UNL     1     -40.555 -51.135  12.307  1.00  0.00    -0.333 N 
HETATM   16  C   UNL     1     -41.216 -52.349  11.810  1.00  0.00     0.137 C 
HETATM   17  C   UNL     1     -39.246 -51.354  12.940  1.00  0.00     0.137 C 
HETATM   18  C   UNL     1     -41.501 -53.368  12.917  1.00  0.00     0.093 C 
HETATM   19  S   UNL     1     -39.983 -53.900  13.772  1.00  0.00    -0.166 SA
HETATM   20  C   UNL     1     -39.341 -52.241  14.184  1.00  0.00     0.093 C 
HETATM   21  H   UNL     1     -42.504 -50.269  11.005  1.00  0.00     0.164 HD
ENDBRANCH   1  12
TORSDOF 4
ENDMDL
MODEL 8
REMARK VINA RESULT:      -5.2      4.359      6.567
REMARK  4 active torsions:
REMARK  status: ('A' for Active; 'I' for Inactive)
REMARK    1  A    between atoms: C_2  and  C_3 
REMARK    2  A    between atoms: C_6  and  C_7 
REMARK    3  A    between atoms: C_7  and  C_8 
REMARK    4  A    between atoms: C_8  and  N_9 
REMARK       I    between atoms: N_9  and  C_10 
REMARK       I    between atoms: C_10  and  N_12 
ROOT
HETATM    1  C   UNL     1     -41.327 -52.456  11.681  1.00  0.00     0.131 C 
ENDROOT
BRANCH   1   2
HETATM    2  C   UNL     1     -40.581 -51.335  12.413  1.00  0.00     0.084 C 
BRANCH   2   3
HETATM    3  C   UNL     1     -39.914 -51.846  13.650  1.00  0.00     0.053 A 
HETATM    4  N   UNL     1     -39.762 -53.118  13.949  1.00  0.00    -0.356 N 
HETATM    5  C   UNL     1     -39.116 -53.251  15.167  1.00  0.00     0.022 A 
ATOM      6  HN  UNL     1     -40.076 -53.895  13.367  1.00  0.00     0.166 HD
HETATM    7  C   UNL     1     -38.766 -52.055  15.773  1.00  0.00     0.003 A 
HETATM    8  S   UNL     1     -39.267 -50.743  14.796  1.00  0.00    -0.080 SA
HETATM    9  C   UNL     1     -38.068 -51.817  17.065  1.00  0.00     0.058 C 
BRANCH   5  10
HETATM   10  C   UNL     1     -38.867 -54.632  15.679  1.00  0.00     0.054 C 
HETATM   11  C   UNL     1     -40.158 -55.347  16.047  1.00  0.00     0.011 C 
ENDBRANCH   5  10
ENDBRANCH   2   3
ENDBRANCH   1   2
BRANCH   1  12
HETATM   12  N   UNL     1     -42.742 -52.572  12.023  1.00  0.00    -0.343 N 
HETATM   13  C   UNL     1     -43.181 -53.576  12.851  1.00  0.00     0.318 C 
HETATM   14  O   UNL     1     -42.405 -54.371  13.374  1.00  0.00    -0.247 OA
HETATM   15  N   UNL     1     -44.546 -53.611  13.076  1.00  0.00    -0.333 N 
HETATM   16  C   UNL     1     -45.546 -52.657  12.579  1.00  0.00     0.137 C 
HETATM   17  C   UNL     1     -45.056 -54.609  14.028  1.00  0.00     0.137 C 
HETATM   18  C   UNL     1     -46.177 -51.821  13.696  1.00  0.00     0.093 C 
HETATM   19  S   UNL     1     -47.003 -52.855  14.949  1.00  0.00    -0.166 SA
HETATM   20  C   UNL     1     -45.602 -53.969  15.307  1.00  0.00     0.093 C 
HETATM   21  H   UNL     1     -43.357 -52.388  11.250  1.00  0.00     0.164 HD
ENDBRANCH   1  12
TORSDOF 4
ENDMDL
MODEL 9
REMARK VINA RESULT:      -5.1      4.066      6.819
REMARK  4 active torsions:
REMARK  status: ('A' for Active; 'I' for Inactive)
REMARK    1  A    between atoms: C_2  and  C_3 
REMARK    2  A    between atoms: C_6  and  C_7 
REMARK    3  A    between atoms: C_7  and  C_8 
REMARK    4  A    between atoms: C_8  and  N_9 
REMARK       I    between atoms: N_9  and  C_10 
REMARK       I    between atoms: C_10  and  N_12 
ROOT
HETATM    1  C   UNL     1     -41.518 -50.365  12.364  1.00  0.00     0.131 C 
ENDROOT
BRANCH   1   2
HETATM    2  C   UNL     1     -41.591 -51.881  12.147  1.00  0.00     0.084 C 
BRANCH   2   3
HETATM    3  C   UNL     1     -42.915 -52.427  12.581  1.00  0.00     0.053 A 
HETATM    4  N   UNL     1     -44.048 -51.760  12.548  1.00  0.00    -0.356 N 
HETATM    5  C   UNL     1     -45.082 -52.547  13.027  1.00  0.00     0.022 A 
ATOM      6  HN  UNL     1     -44.150 -50.800  12.216  1.00  0.00     0.166 HD
HETATM    7  C   UNL     1     -44.711 -53.827  13.405  1.00  0.00     0.003 A 
HETATM    8  S   UNL     1     -43.031 -54.039  13.159  1.00  0.00    -0.080 SA
HETATM    9  C   UNL     1     -45.545 -54.931  13.953  1.00  0.00     0.058 C 
BRANCH   5  10
HETATM   10  C   UNL     1     -46.451 -51.948  13.078  1.00  0.00     0.054 C 
HETATM   11  C   UNL     1     -46.783 -51.398  14.456  1.00  0.00     0.011 C 
ENDBRANCH   5  10
ENDBRANCH   2   3
ENDBRANCH   1   2
BRANCH   1  12
HETATM   12  N   UNL     1     -40.232 -49.881  12.856  1.00  0.00    -0.343 N 
HETATM   13  C   UNL     1     -40.109 -48.609  13.359  1.00  0.00     0.318 C 
HETATM   14  O   UNL     1     -41.076 -47.858  13.464  1.00  0.00    -0.247 OA
HETATM   15  N   UNL     1     -38.837 -48.245  13.761  1.00  0.00    -0.333 N 
HETATM   16  C   UNL     1     -37.638 -49.093  13.767  1.00  0.00     0.137 C 
HETATM   17  C   UNL     1     -38.670 -46.927  14.392  1.00  0.00     0.137 C 
HETATM   18  C   UNL     1     -37.142 -49.414  15.180  1.00  0.00     0.093 C 
HETATM   19  S   UNL     1     -36.735 -47.911  16.126  1.00  0.00    -0.166 SA
HETATM   20  C   UNL     1     -38.316 -47.032  15.877  1.00  0.00     0.093 C 
HETATM   21  H   UNL     1     -39.453 -50.168  12.290  1.00  0.00     0.164 HD
ENDBRANCH   1  12
TORSDOF 4
ENDMDL
