MODEL 1
REMARK VINA RESULT:      -5.3      0.000      0.000
REMARK  4 active torsions:
REMARK  status: ('A' for Active; 'I' for Inactive)
REMARK    1  A    between atoms: C_2  and  C_3 
REMARK       I    between atoms: C_2  and  N_12 
REMARK    2  A    between atoms: C_3  and  N_4 
REMARK    3  A    between atoms: N_12  and  C_13 
REMARK    4  A    between atoms: C_13  and  C_14 
ROOT
HETATM    1  N   UNL     1     -44.190 -54.326  13.481  1.00  0.00    -0.301 N 
HETATM    2  C   UNL     1     -42.964 -54.580  14.065  1.00  0.00     0.102 A 
HETATM    3  C   UNL     1     -41.850 -53.972  13.653  1.00  0.00     0.092 A 
HETATM    4  C   UNL     1     -41.937 -53.003  12.550  1.00  0.00     0.250 A 
HETATM    5  O   UNL     1     -40.945 -52.400  12.157  1.00  0.00    -0.268 OA
HETATM    6  N   UNL     1     -43.179 -52.822  12.012  1.00  0.00    -0.275 N 
HETATM    7  C   UNL     1     -44.338 -53.407  12.453  1.00  0.00     0.329 A 
HETATM    8  O   UNL     1     -45.425 -53.112  11.958  1.00  0.00    -0.246 OA
HETATM    9  H   UNL     1     -43.260 -52.150  11.266  1.00  0.00     0.173 HD
ENDROOT
BRANCH   1  10
HETATM   10  C   UNL     1     -45.385 -55.000  13.979  1.00  0.00     0.235 C 
BRANCH  10  11
HETATM   11  C   UNL     1     -45.966 -54.250  15.176  1.00  0.00     0.235 C 
HETATM   12  O   UNL     1     -45.750 -54.611  16.331  1.00  0.00    -0.272 OA
HETATM   13  N   UNL     1     -46.689 -53.124  14.845  1.00  0.00    -0.359 N 
HETATM   14  H   UNL     1     -46.635 -52.780  13.890  1.00  0.00     0.162 HD
BRANCH  13  15
HETATM   15  C   UNL     1     -47.294 -52.273  15.845  1.00  0.00     0.127 C 
BRANCH  15  16
HETATM   16  C   UNL     1     -46.584 -50.957  15.882  1.00  0.00     0.003 A 
HETATM   17  C   UNL     1     -45.077 -50.896  15.862  1.00  0.00     0.007 A 
HETATM   18  C   UNL     1     -45.823 -50.533  17.115  1.00  0.00     0.007 A 
ENDBRANCH  15  16
ENDBRANCH  13  15
ENDBRANCH  10  11
ENDBRANCH   1  10
TORSDOF 4
ENDMDL
MODEL 2
REMARK VINA RESULT:      -5.0      4.171      6.321
REMARK  4 active torsions:
REMARK  status: ('A' for Active; 'I' for Inactive)
REMARK    1  A    between atoms: C_2  and  C_3 
REMARK       I    between atoms: C_2  and  N_12 
REMARK    2  A    between atoms: C_3  and  N_4 
REMARK    3  A    between atoms: N_12  and  C_13 
REMARK    4  A    between atoms: C_13  and  C_14 
ROOT
HETATM    1  N   UNL     1     -42.453 -51.012  12.746  1.00  0.00    -0.301 N 
HETATM    2  C   UNL     1     -43.663 -50.657  13.309  1.00  0.00     0.102 A 
HETATM    3  C   UNL     1     -44.725 -51.463  13.259  1.00  0.00     0.092 A 
HETATM    4  C   UNL     1     -44.596 -52.766  12.589  1.00  0.00     0.250 A 
HETATM    5  O   UNL     1     -45.536 -53.551  12.542  1.00  0.00    -0.268 OA
HETATM    6  N   UNL     1     -43.375 -53.035  12.040  1.00  0.00    -0.275 N 
HETATM    7  C   UNL     1     -42.264 -52.235  12.121  1.00  0.00     0.329 A 
HETATM    8  O   UNL     1     -41.182 -52.606  11.668  1.00  0.00    -0.246 OA
HETATM    9  H   UNL     1     -43.263 -53.930  11.591  1.00  0.00     0.173 HD
ENDROOT
BRANCH   1  10
HETATM   10  C   UNL     1     -41.312 -50.106  12.844  1.00  0.00     0.235 C 
BRANCH  10  11
HETATM   11  C   UNL     1     -41.656 -48.742  12.248  1.00  0.00     0.235 C 
HETATM   12  O   UNL     1     -41.725 -47.732  12.945  1.00  0.00    -0.272 OA
HETATM   13  N   UNL     1     -41.818 -48.745  10.879  1.00  0.00    -0.359 N 
HETATM   14  H   UNL     1     -41.531 -49.571  10.362  1.00  0.00     0.162 HD
BRANCH  13  15
HETATM   15  C   UNL     1     -42.121 -47.543  10.136  1.00  0.00     0.127 C 
BRANCH  15  16
HETATM   16  C   UNL     1     -43.462 -47.679   9.486  1.00  0.00     0.003 A 
HETATM   17  C   UNL     1     -43.590 -47.700   7.984  1.00  0.00     0.007 A 
HETATM   18  C   UNL     1     -44.082 -46.511   8.760  1.00  0.00     0.007 A 
ENDBRANCH  15  16
ENDBRANCH  13  15
ENDBRANCH  10  11
ENDBRANCH   1  10
TORSDOF 4
ENDMDL
MODEL 3
REMARK VINA RESULT:      -5.0      2.183      5.350
REMARK  4 active torsions:
REMARK  status: ('A' for Active; 'I' for Inactive)
REMARK    1  A    between atoms: C_2  and  C_3 
REMARK       I    between atoms: C_2  and  N_12 
REMARK    2  A    between atoms: C_3  and  N_4 
REMARK    3  A    between atoms: N_12  and  C_13 
REMARK    4  A    between atoms: C_13  and  C_14 
ROOT
HETATM    1  N   UNL     1     -45.334 -53.177  13.428  1.00  0.00    -0.301 N 
HETATM    2  C   UNL     1     -45.634 -51.832  13.514  1.00  0.00     0.102 A 
HETATM    3  C   UNL     1     -46.483 -51.358  14.428  1.00  0.00     0.092 A 
HETATM    4  C   UNL     1     -47.110 -52.298  15.369  1.00  0.00     0.250 A 
HETATM    5  O   UNL     1     -47.876 -51.906  16.242  1.00  0.00    -0.268 OA
HETATM    6  N   UNL     1     -46.779 -53.613  15.207  1.00  0.00    -0.275 N 
HETATM    7  C   UNL     1     -45.876 -54.109  14.301  1.00  0.00     0.329 A 
HETATM    8  O   UNL     1     -45.577 -55.302  14.291  1.00  0.00    -0.246 OA
HETATM    9  H   UNL     1     -47.186 -54.270  15.853  1.00  0.00     0.173 HD
ENDROOT
BRANCH   1  10
HETATM   10  C   UNL     1     -44.382 -53.646  12.426  1.00  0.00     0.235 C 
BRANCH  10  11
HETATM   11  C   UNL     1     -42.970 -53.166  12.757  1.00  0.00     0.235 C 
HETATM   12  O   UNL     1     -42.451 -53.394  13.848  1.00  0.00    -0.272 OA
HETATM   13  N   UNL     1     -42.332 -52.521  11.720  1.00  0.00    -0.359 N 
HETATM   14  H   UNL     1     -42.747 -52.568  10.795  1.00  0.00     0.162 HD
BRANCH  13  15
HETATM   15  C   UNL     1     -40.982 -52.018  11.839  1.00  0.00     0.127 C 
BRANCH  15  16
HETATM   16  C   UNL     1     -41.015 -50.541  12.077  1.00  0.00     0.003 A 
HETATM   17  C   UNL     1     -40.033 -49.629  11.387  1.00  0.00     0.007 A 
HETATM   18  C   UNL     1     -39.917 -49.870  12.866  1.00  0.00     0.007 A 
ENDBRANCH  15  16
ENDBRANCH  13  15
ENDBRANCH  10  11
ENDBRANCH   1  10
TORSDOF 4
ENDMDL
MODEL 4
REMARK VINA RESULT:      -4.8      3.184      4.954
REMARK  4 active torsions:
REMARK  status: ('A' for Active; 'I' for Inactive)
REMARK    1  A    between atoms: C_2  and  C_3 
REMARK       I    between atoms: C_2  and  N_12 
REMARK    2  A    between atoms: C_3  and  N_4 
REMARK    3  A    between atoms: N_12  and  C_13 
REMARK    4  A    between atoms: C_13  and  C_14 
ROOT
HETATM    1  N   UNL     1     -40.309 -51.405  12.405  1.00  0.00    -0.301 N 
HETATM    2  C   UNL     1     -40.819 -50.197  11.973  1.00  0.00     0.102 A 
HETATM    3  C   UNL     1     -40.243 -49.037  12.294  1.00  0.00     0.092 A 
HETATM    4  C   UNL     1     -39.032 -49.052  13.128  1.00  0.00     0.250 A 
HETATM    5  O   UNL     1     -38.454 -48.012  13.425  1.00  0.00    -0.268 OA
HETATM    6  N   UNL     1     -38.602 -50.283  13.532  1.00  0.00    -0.275 N 
HETATM    7  C   UNL     1     -39.158 -51.485  13.174  1.00  0.00     0.329 A 
HETATM    8  O   UNL     1     -38.644 -52.549  13.519  1.00  0.00    -0.246 OA
HETATM    9  H   UNL     1     -37.765 -50.314  14.090  1.00  0.00     0.173 HD
ENDROOT
BRANCH   1  10
HETATM   10  C   UNL     1     -40.960 -52.651  12.011  1.00  0.00     0.235 C 
BRANCH  10  11
HETATM   11  C   UNL     1     -42.238 -52.870  12.819  1.00  0.00     0.235 C 
HETATM   12  O   UNL     1     -42.225 -52.908  14.047  1.00  0.00    -0.272 OA
HETATM   13  N   UNL     1     -43.383 -52.961  12.057  1.00  0.00    -0.359 N 
HETATM   14  H   UNL     1     -43.330 -52.704  11.076  1.00  0.00     0.162 HD
BRANCH  13  15
HETATM   15  C   UNL     1     -44.690 -53.144  12.647  1.00  0.00     0.127 C 
BRANCH  15  16
HETATM   16  C   UNL     1     -45.339 -51.812  12.854  1.00  0.00     0.003 A 
HETATM   17  C   UNL     1     -46.477 -51.654  13.830  1.00  0.00     0.007 A 
HETATM   18  C   UNL     1     -46.740 -51.558  12.354  1.00  0.00     0.007 A 
ENDBRANCH  15  16
ENDBRANCH  13  15
ENDBRANCH  10  11
ENDBRANCH   1  10
TORSDOF 4
ENDMDL
MODEL 5
REMARK VINA RESULT:      -4.8      2.927      6.049
REMARK  4 active torsions:
REMARK  status: ('A' for Active; 'I' for Inactive)
REMARK    1  A    between atoms: C_2  and  C_3 
REMARK       I    between atoms: C_2  and  N_12 
REMARK    2  A    between atoms: C_3  and  N_4 
REMARK    3  A    between atoms: N_12  and  C_13 
REMARK    4  A    between atoms: C_13  and  C_14 
ROOT
HETATM    1  N   UNL     1     -42.261 -53.928  13.281  1.00  0.00    -0.301 N 
HETATM    2  C   UNL     1     -43.395 -53.607  12.560  1.00  0.00     0.102 A 
HETATM    3  C   UNL     1     -44.614 -53.948  12.980  1.00  0.00     0.092 A 
HETATM    4  C   UNL     1     -44.749 -54.682  14.247  1.00  0.00     0.250 A 
HETATM    5  O   UNL     1     -45.851 -54.993  14.686  1.00  0.00    -0.268 OA
HETATM    6  N   UNL     1     -43.582 -54.980  14.890  1.00  0.00    -0.275 N 
HETATM    7  C   UNL     1     -42.325 -54.600  14.492  1.00  0.00     0.329 A 
HETATM    8  O   UNL     1     -41.340 -54.841  15.188  1.00  0.00    -0.246 OA
HETATM    9  H   UNL     1     -43.656 -55.469  15.767  1.00  0.00     0.173 HD
ENDROOT
BRANCH   1  10
HETATM   10  C   UNL     1     -40.949 -53.515  12.792  1.00  0.00     0.235 C 
BRANCH  10  11
HETATM   11  C   UNL     1     -40.813 -51.994  12.835  1.00  0.00     0.235 C 
HETATM   12  O   UNL     1     -41.138 -51.345  13.827  1.00  0.00    -0.272 OA
HETATM   13  N   UNL     1     -40.250 -51.442  11.705  1.00  0.00    -0.359 N 
HETATM   14  H   UNL     1     -39.814 -52.064  11.030  1.00  0.00     0.162 HD
BRANCH  13  15
HETATM   15  C   UNL     1     -40.019 -50.021  11.572  1.00  0.00     0.127 C 
BRANCH  15  16
HETATM   16  C   UNL     1     -38.548 -49.749  11.561  1.00  0.00     0.003 A 
HETATM   17  C   UNL     1     -37.589 -50.676  12.265  1.00  0.00     0.007 A 
HETATM   18  C   UNL     1     -37.843 -49.302  12.818  1.00  0.00     0.007 A 
ENDBRANCH  15  16
ENDBRANCH  13  15
ENDBRANCH  10  11
ENDBRANCH   1  10
TORSDOF 4
ENDMDL
MODEL 6
REMARK VINA RESULT:      -4.7      1.897      5.490
REMARK  4 active torsions:
REMARK  status: ('A' for Active; 'I' for Inactive)
REMARK    1  A    between atoms: C_2  and  C_3 
REMARK       I    between atoms: C_2  and  N_12 
REMARK    2  A    between atoms: C_3  and  N_4 
REMARK    3  A    between atoms: N_12  and  C_13 
REMARK    4  A    between atoms: C_13  and  C_14 
ROOT
HETATM    1  N   UNL     1     -45.371 -53.047  13.646  1.00  0.00    -0.301 N 
HETATM    2  C   UNL     1     -46.053 -51.847  13.631  1.00  0.00     0.102 A 
HETATM    3  C   UNL     1     -46.758 -51.427  14.684  1.00  0.00     0.092 A 
HETATM    4  C   UNL     1     -46.802 -52.267  15.890  1.00  0.00     0.250 A 
HETATM    5  O   UNL     1     -47.414 -51.909  16.890  1.00  0.00    -0.268 OA
HETATM    6  N   UNL     1     -46.119 -53.447  15.819  1.00  0.00    -0.275 N 
HETATM    7  C   UNL     1     -45.356 -53.872  14.761  1.00  0.00     0.329 A 
HETATM    8  O   UNL     1     -44.705 -54.914  14.827  1.00  0.00    -0.246 OA
HETATM    9  H   UNL     1     -46.124 -54.028  16.641  1.00  0.00     0.173 HD
ENDROOT
BRANCH   1  10
HETATM   10  C   UNL     1     -44.595 -53.456  12.478  1.00  0.00     0.235 C 
BRANCH  10  11
HETATM   11  C   UNL     1     -43.139 -53.016  12.618  1.00  0.00     0.235 C 
HETATM   12  O   UNL     1     -42.821 -51.828  12.613  1.00  0.00    -0.272 OA
HETATM   13  N   UNL     1     -42.248 -54.050  12.805  1.00  0.00    -0.359 N 
HETATM   14  H   UNL     1     -42.618 -54.973  13.012  1.00  0.00     0.162 HD
BRANCH  13  15
HETATM   15  C   UNL     1     -40.831 -53.826  12.981  1.00  0.00     0.127 C 
BRANCH  15  16
HETATM   16  C   UNL     1     -40.440 -54.162  14.385  1.00  0.00     0.003 A 
HETATM   17  C   UNL     1     -39.322 -53.418  15.071  1.00  0.00     0.007 A 
HETATM   18  C   UNL     1     -39.129 -54.853  14.670  1.00  0.00     0.007 A 
ENDBRANCH  15  16
ENDBRANCH  13  15
ENDBRANCH  10  11
ENDBRANCH   1  10
TORSDOF 4
ENDMDL
MODEL 7
REMARK VINA RESULT:      -4.7      5.231      6.489
REMARK  4 active torsions:
REMARK  status: ('A' for Active; 'I' for Inactive)
REMARK    1  A    between atoms: C_2  and  C_3 
REMARK       I    between atoms: C_2  and  N_12 
REMARK    2  A    between atoms: C_3  and  N_4 
REMARK    3  A    between atoms: N_12  and  C_13 
REMARK    4  A    between atoms: C_13  and  C_14 
ROOT
HETATM    1  N   UNL     1     -41.236 -48.083  11.057  1.00  0.00    -0.301 N 
HETATM    2  C   UNL     1     -40.082 -47.496  11.536  1.00  0.00     0.102 A 
HETATM    3  C   UNL     1     -39.758 -46.236  11.239  1.00  0.00     0.092 A 
HETATM    4  C   UNL     1     -40.662 -45.455  10.381  1.00  0.00     0.250 A 
HETATM    5  O   UNL     1     -40.420 -44.286  10.103  1.00  0.00    -0.268 OA
HETATM    6  N   UNL     1     -41.772 -46.112   9.931  1.00  0.00    -0.275 N 
HETATM    7  C   UNL     1     -42.138 -47.391  10.263  1.00  0.00     0.329 A 
HETATM    8  O   UNL     1     -43.205 -47.865   9.876  1.00  0.00    -0.246 OA
HETATM    9  H   UNL     1     -42.410 -45.587   9.355  1.00  0.00     0.173 HD
ENDROOT
BRANCH   1  10
HETATM   10  C   UNL     1     -41.559 -49.458  11.427  1.00  0.00     0.235 C 
BRANCH  10  11
HETATM   11  C   UNL     1     -42.341 -49.493  12.739  1.00  0.00     0.235 C 
HETATM   12  O   UNL     1     -42.076 -48.733  13.668  1.00  0.00    -0.272 OA
HETATM   13  N   UNL     1     -43.381 -50.397  12.757  1.00  0.00    -0.359 N 
HETATM   14  H   UNL     1     -43.662 -50.825  11.879  1.00  0.00     0.162 HD
BRANCH  13  15
HETATM   15  C   UNL     1     -44.247 -50.555  13.903  1.00  0.00     0.127 C 
BRANCH  15  16
HETATM   16  C   UNL     1     -45.214 -51.669  13.653  1.00  0.00     0.003 A 
HETATM   17  C   UNL     1     -46.342 -51.501  12.666  1.00  0.00     0.007 A 
HETATM   18  C   UNL     1     -46.640 -51.568  14.137  1.00  0.00     0.007 A 
ENDBRANCH  15  16
ENDBRANCH  13  15
ENDBRANCH  10  11
ENDBRANCH   1  10
TORSDOF 4
ENDMDL
MODEL 8
REMARK VINA RESULT:      -4.7      1.851      2.440
REMARK  4 active torsions:
REMARK  status: ('A' for Active; 'I' for Inactive)
REMARK    1  A    between atoms: C_2  and  C_3 
REMARK       I    between atoms: C_2  and  N_12 
REMARK    2  A    between atoms: C_3  and  N_4 
REMARK    3  A    between atoms: N_12  and  C_13 
REMARK    4  A    between atoms: C_13  and  C_14 
ROOT
HETATM    1  N   UNL     1     -42.454 -53.955  14.306  1.00  0.00    -0.301 N 
HETATM    2  C   UNL     1     -41.767 -54.166  13.127  1.00  0.00     0.102 A 
HETATM    3  C   UNL     1     -40.779 -53.360  12.735  1.00  0.00     0.092 A 
HETATM    4  C   UNL     1     -40.414 -52.219  13.588  1.00  0.00     0.250 A 
HETATM    5  O   UNL     1     -39.495 -51.467  13.283  1.00  0.00    -0.268 OA
HETATM    6  N   UNL     1     -41.153 -52.066  14.726  1.00  0.00    -0.275 N 
HETATM    7  C   UNL     1     -42.141 -52.910  15.162  1.00  0.00     0.329 A 
HETATM    8  O   UNL     1     -42.691 -52.735  16.249  1.00  0.00    -0.246 OA
HETATM    9  H   UNL     1     -40.906 -51.299  15.331  1.00  0.00     0.173 HD
ENDROOT
BRANCH   1  10
HETATM   10  C   UNL     1     -43.514 -54.877  14.704  1.00  0.00     0.235 C 
BRANCH  10  11
HETATM   11  C   UNL     1     -44.862 -54.418  14.151  1.00  0.00     0.235 C 
HETATM   12  O   UNL     1     -45.308 -54.855  13.092  1.00  0.00    -0.272 OA
HETATM   13  N   UNL     1     -45.539 -53.534  14.964  1.00  0.00    -0.359 N 
HETATM   14  H   UNL     1     -45.201 -53.396  15.912  1.00  0.00     0.162 HD
BRANCH  13  15
HETATM   15  C   UNL     1     -46.840 -53.009  14.619  1.00  0.00     0.127 C 
BRANCH  15  16
HETATM   16  C   UNL     1     -46.950 -51.591  15.084  1.00  0.00     0.003 A 
HETATM   17  C   UNL     1     -46.167 -51.111  16.279  1.00  0.00     0.007 A 
HETATM   18  C   UNL     1     -47.659 -51.262  16.375  1.00  0.00     0.007 A 
ENDBRANCH  15  16
ENDBRANCH  13  15
ENDBRANCH  10  11
ENDBRANCH   1  10
TORSDOF 4
ENDMDL
MODEL 9
REMARK VINA RESULT:      -4.6      5.086      7.439
REMARK  4 active torsions:
REMARK  status: ('A' for Active; 'I' for Inactive)
REMARK    1  A    between atoms: C_2  and  C_3 
REMARK       I    between atoms: C_2  and  N_12 
REMARK    2  A    between atoms: C_3  and  N_4 
REMARK    3  A    between atoms: N_12  and  C_13 
REMARK    4  A    between atoms: C_13  and  C_14 
ROOT
HETATM    1  N   UNL     1     -41.839 -47.622  11.440  1.00  0.00    -0.301 N 
HETATM    2  C   UNL     1     -43.167 -47.851  11.138  1.00  0.00     0.102 A 
HETATM    3  C   UNL     1     -43.795 -47.175  10.175  1.00  0.00     0.092 A 
HETATM    4  C   UNL     1     -43.047 -46.162   9.415  1.00  0.00     0.250 A 
HETATM    5  O   UNL     1     -43.575 -45.536   8.503  1.00  0.00    -0.268 OA
HETATM    6  N   UNL     1     -41.746 -45.980   9.786  1.00  0.00    -0.275 N 
HETATM    7  C   UNL     1     -41.076 -46.697  10.744  1.00  0.00     0.329 A 
HETATM    8  O   UNL     1     -39.875 -46.518  10.946  1.00  0.00    -0.246 OA
HETATM    9  H   UNL     1     -41.213 -45.302   9.266  1.00  0.00     0.173 HD
ENDROOT
BRANCH   1  10
HETATM   10  C   UNL     1     -41.188 -48.402  12.489  1.00  0.00     0.235 C 
BRANCH  10  11
HETATM   11  C   UNL     1     -40.848 -49.803  11.985  1.00  0.00     0.235 C 
HETATM   12  O   UNL     1     -39.865 -50.014  11.279  1.00  0.00    -0.272 OA
HETATM   13  N   UNL     1     -41.698 -50.790  12.437  1.00  0.00    -0.359 N 
HETATM   14  H   UNL     1     -42.347 -50.562  13.184  1.00  0.00     0.162 HD
BRANCH  13  15
HETATM   15  C   UNL     1     -41.521 -52.181  12.086  1.00  0.00     0.127 C 
BRANCH  15  16
HETATM   16  C   UNL     1     -41.297 -52.988  13.326  1.00  0.00     0.003 A 
HETATM   17  C   UNL     1     -40.622 -54.334  13.256  1.00  0.00     0.007 A 
HETATM   18  C   UNL     1     -42.088 -54.249  13.571  1.00  0.00     0.007 A 
ENDBRANCH  15  16
ENDBRANCH  13  15
ENDBRANCH  10  11
ENDBRANCH   1  10
TORSDOF 4
ENDMDL
