MODEL 1
REMARK VINA RESULT:      -5.4      0.000      0.000
REMARK  5 active torsions:
REMARK  status: ('A' for Active; 'I' for Inactive)
REMARK    1  A    between atoms: N_1  and  S_2 
REMARK    2  A    between atoms: S_2  and  N_5 
REMARK    3  A    between atoms: N_5  and  C_6 
REMARK    4  A    between atoms: C_6  and  C_7 
REMARK    5  A    between atoms: C_13  and  N_14 
ROOT
HETATM    1  C   UNL     1     -43.215 -47.669  10.928  1.00  0.00    -0.000 A 
HETATM    2  C   UNL     1     -44.403 -47.866  10.181  1.00  0.00     0.013 A 
HETATM    3  C   UNL     1     -44.665 -47.118   9.051  1.00  0.00     0.018 A 
HETATM    4  C   UNL     1     -43.720 -46.193   8.680  1.00  0.00     0.089 A 
HETATM    5  N   UNL     1     -42.584 -45.959   9.383  1.00  0.00    -0.352 N 
ATOM      6  HN  UNL     1     -41.920 -45.257   9.057  1.00  0.00     0.166 HD
HETATM    7  C   UNL     1     -42.328 -46.654  10.518  1.00  0.00     0.110 A 
ENDROOT
BRANCH   1   8
HETATM    8  C   UNL     1     -43.040 -48.582  12.117  1.00  0.00     0.147 C 
BRANCH   8   9
HETATM    9  N   UNL     1     -42.562 -49.928  11.792  1.00  0.00    -0.203 NA
HETATM   10  H   UNL     1     -43.083 -50.648  12.296  1.00  0.00     0.141 HD
BRANCH   9  11
HETATM   11  S   UNL     1     -40.925 -50.167  11.921  1.00  0.00     0.276 S 
HETATM   12  O   UNL     1     -40.673 -51.557  12.194  1.00  0.00    -0.194 OA
HETATM   13  O   UNL     1     -40.359 -49.100  12.696  1.00  0.00    -0.194 OA
BRANCH  11  14
HETATM   14  N   UNL     1     -40.479 -49.884  10.340  1.00  0.00    -0.216 NA
HETATM   15  H   UNL     1     -39.527 -50.220  10.197  1.00  0.00     0.137 HD
HETATM   16  H   UNL     1     -40.558 -48.895  10.120  1.00  0.00     0.137 HD
ENDBRANCH  11  14
ENDBRANCH   9  11
ENDBRANCH   8   9
ENDBRANCH   1   8
BRANCH   7  17
HETATM   17  N   UNL     1     -41.260 -46.198  11.296  1.00  0.00    -0.363 N 
HETATM   18  C   UNL     1     -41.584 -45.118  12.270  1.00  0.00     0.150 C 
HETATM   19  C   UNL     1     -41.200 -43.716  11.760  1.00  0.00     0.187 C 
HETATM   20  O   UNL     1     -39.840 -43.664  11.300  1.00  0.00    -0.388 OA
HETATM   21  C   UNL     1     -39.652 -44.611  10.241  1.00  0.00     0.187 C 
HETATM   22  C   UNL     1     -39.907 -46.040  10.735  1.00  0.00     0.150 C 
ENDBRANCH   7  17
TORSDOF 5
ENDMDL
MODEL 2
REMARK VINA RESULT:      -5.4      5.915      8.470
REMARK  5 active torsions:
REMARK  status: ('A' for Active; 'I' for Inactive)
REMARK    1  A    between atoms: N_1  and  S_2 
REMARK    2  A    between atoms: S_2  and  N_5 
REMARK    3  A    between atoms: N_5  and  C_6 
REMARK    4  A    between atoms: C_6  and  C_7 
REMARK    5  A    between atoms: C_13  and  N_14 
ROOT
HETATM    1  C   UNL     1     -41.005 -53.721  13.421  1.00  0.00    -0.000 A 
HETATM    2  C   UNL     1     -39.731 -54.098  13.916  1.00  0.00     0.013 A 
HETATM    3  C   UNL     1     -39.607 -54.782  15.108  1.00  0.00     0.018 A 
HETATM    4  C   UNL     1     -40.765 -55.091  15.777  1.00  0.00     0.089 A 
HETATM    5  N   UNL     1     -41.999 -54.726  15.347  1.00  0.00    -0.352 N 
ATOM      6  HN  UNL     1     -42.823 -54.985  15.889  1.00  0.00     0.166 HD
HETATM    7  C   UNL     1     -42.141 -54.018  14.200  1.00  0.00     0.110 A 
ENDROOT
BRANCH   1   8
HETATM    8  C   UNL     1     -40.997 -53.013  12.088  1.00  0.00     0.147 C 
BRANCH   8   9
HETATM    9  N   UNL     1     -40.016 -51.931  11.973  1.00  0.00    -0.203 NA
HETATM   10  H   UNL     1     -39.257 -52.034  12.650  1.00  0.00     0.141 HD
BRANCH   9  11
HETATM   11  S   UNL     1     -40.632 -50.391  11.987  1.00  0.00     0.276 S 
HETATM   12  O   UNL     1     -39.761 -49.544  12.758  1.00  0.00    -0.194 OA
HETATM   13  O   UNL     1     -42.050 -50.458  12.197  1.00  0.00    -0.194 OA
BRANCH  11  14
HETATM   14  N   UNL     1     -40.415 -49.993  10.383  1.00  0.00    -0.216 NA
HETATM   15  H   UNL     1     -39.790 -50.673   9.951  1.00  0.00     0.137 HD
HETATM   16  H   UNL     1     -40.049 -49.049  10.298  1.00  0.00     0.137 HD
ENDBRANCH  11  14
ENDBRANCH   9  11
ENDBRANCH   8   9
ENDBRANCH   1   8
BRANCH   7  17
HETATM   17  N   UNL     1     -43.411 -53.492  13.950  1.00  0.00    -0.363 N 
HETATM   18  C   UNL     1     -44.099 -52.880  15.121  1.00  0.00     0.150 C 
HETATM   19  C   UNL     1     -45.131 -53.823  15.770  1.00  0.00     0.187 C 
HETATM   20  O   UNL     1     -46.047 -54.366  14.804  1.00  0.00    -0.388 OA
HETATM   21  C   UNL     1     -45.319 -55.090  13.804  1.00  0.00     0.187 C 
HETATM   22  C   UNL     1     -44.361 -54.162  13.046  1.00  0.00     0.150 C 
ENDBRANCH   7  17
TORSDOF 5
ENDMDL
MODEL 3
REMARK VINA RESULT:      -5.3      5.018      6.579
REMARK  5 active torsions:
REMARK  status: ('A' for Active; 'I' for Inactive)
REMARK    1  A    between atoms: N_1  and  S_2 
REMARK    2  A    between atoms: S_2  and  N_5 
REMARK    3  A    between atoms: N_5  and  C_6 
REMARK    4  A    between atoms: C_6  and  C_7 
REMARK    5  A    between atoms: C_13  and  N_14 
ROOT
HETATM    1  C   UNL     1     -41.328 -52.595  13.068  1.00  0.00    -0.000 A 
HETATM    2  C   UNL     1     -41.250 -54.006  13.176  1.00  0.00     0.013 A 
HETATM    3  C   UNL     1     -40.127 -54.617  13.696  1.00  0.00     0.018 A 
HETATM    4  C   UNL     1     -39.107 -53.800  14.115  1.00  0.00     0.089 A 
HETATM    5  N   UNL     1     -39.136 -52.448  14.005  1.00  0.00    -0.352 N 
ATOM      6  HN  UNL     1     -38.345 -51.895  14.334  1.00  0.00     0.166 HD
HETATM    7  C   UNL     1     -40.211 -51.830  13.459  1.00  0.00     0.110 A 
ENDROOT
BRANCH   1   8
HETATM    8  C   UNL     1     -42.629 -52.060  12.519  1.00  0.00     0.147 C 
BRANCH   8   9
HETATM    9  N   UNL     1     -43.545 -53.081  12.007  1.00  0.00    -0.203 NA
HETATM   10  H   UNL     1     -43.773 -52.928  11.022  1.00  0.00     0.141 HD
BRANCH   9  11
HETATM   11  S   UNL     1     -44.914 -53.343  12.907  1.00  0.00     0.276 S 
HETATM   12  O   UNL     1     -44.876 -52.504  14.076  1.00  0.00    -0.194 OA
HETATM   13  O   UNL     1     -45.172 -54.753  12.962  1.00  0.00    -0.194 OA
BRANCH  11  14
HETATM   14  N   UNL     1     -46.052 -52.699  11.873  1.00  0.00    -0.216 NA
HETATM   15  H   UNL     1     -46.978 -53.014  12.158  1.00  0.00     0.137 HD
HETATM   16  H   UNL     1     -45.850 -52.966  10.914  1.00  0.00     0.137 HD
ENDBRANCH  11  14
ENDBRANCH   9  11
ENDBRANCH   8   9
ENDBRANCH   1   8
BRANCH   7  17
HETATM   17  N   UNL     1     -40.067 -50.469  13.179  1.00  0.00    -0.363 N 
HETATM   18  C   UNL     1     -39.428 -50.143  11.873  1.00  0.00     0.150 C 
HETATM   19  C   UNL     1     -37.933 -49.794  12.008  1.00  0.00     0.187 C 
HETATM   20  O   UNL     1     -37.703 -48.789  13.010  1.00  0.00    -0.388 OA
HETATM   21  C   UNL     1     -38.189 -49.251  14.276  1.00  0.00     0.187 C 
HETATM   22  C   UNL     1     -39.702 -49.498  14.224  1.00  0.00     0.150 C 
ENDBRANCH   7  17
TORSDOF 5
ENDMDL
MODEL 4
REMARK VINA RESULT:      -5.2      3.332      4.500
REMARK  5 active torsions:
REMARK  status: ('A' for Active; 'I' for Inactive)
REMARK    1  A    between atoms: N_1  and  S_2 
REMARK    2  A    between atoms: S_2  and  N_5 
REMARK    3  A    between atoms: N_5  and  C_6 
REMARK    4  A    between atoms: C_6  and  C_7 
REMARK    5  A    between atoms: C_13  and  N_14 
ROOT
HETATM    1  C   UNL     1     -40.730 -48.429  11.588  1.00  0.00    -0.000 A 
HETATM    2  C   UNL     1     -40.016 -49.588  11.193  1.00  0.00     0.013 A 
HETATM    3  C   UNL     1     -38.794 -49.895  11.757  1.00  0.00     0.018 A 
HETATM    4  C   UNL     1     -38.317 -49.043  12.721  1.00  0.00     0.089 A 
HETATM    5  N   UNL     1     -38.960 -47.913  13.107  1.00  0.00    -0.352 N 
ATOM      6  HN  UNL     1     -38.554 -47.318  13.829  1.00  0.00     0.166 HD
HETATM    7  C   UNL     1     -40.141 -47.570  12.537  1.00  0.00     0.110 A 
ENDROOT
BRANCH   1   8
HETATM    8  C   UNL     1     -42.070 -48.236  10.919  1.00  0.00     0.147 C 
BRANCH   8   9
HETATM    9  N   UNL     1     -42.020 -48.161   9.458  1.00  0.00    -0.203 NA
HETATM   10  H   UNL     1     -41.168 -47.702   9.129  1.00  0.00     0.141 HD
BRANCH   9  11
HETATM   11  S   UNL     1     -43.366 -47.532   8.718  1.00  0.00     0.276 S 
HETATM   12  O   UNL     1     -44.445 -47.485   9.668  1.00  0.00    -0.194 OA
HETATM   13  O   UNL     1     -43.494 -48.113   7.412  1.00  0.00    -0.194 OA
BRANCH  11  14
HETATM   14  N   UNL     1     -42.845 -45.966   8.484  1.00  0.00    -0.216 NA
HETATM   15  H   UNL     1     -43.072 -45.411   9.308  1.00  0.00     0.137 HD
HETATM   16  H   UNL     1     -43.267 -45.573   7.647  1.00  0.00     0.137 HD
ENDBRANCH  11  14
ENDBRANCH   9  11
ENDBRANCH   8   9
ENDBRANCH   1   8
BRANCH   7  17
HETATM   17  N   UNL     1     -40.619 -46.289  12.825  1.00  0.00    -0.363 N 
HETATM   18  C   UNL     1     -40.005 -45.179  12.046  1.00  0.00     0.150 C 
HETATM   19  C   UNL     1     -38.905 -44.434  12.827  1.00  0.00     0.187 C 
HETATM   20  O   UNL     1     -39.355 -44.022  14.128  1.00  0.00    -0.388 OA
HETATM   21  C   UNL     1     -39.766 -45.169  14.882  1.00  0.00     0.187 C 
HETATM   22  C   UNL     1     -40.944 -45.877  14.202  1.00  0.00     0.150 C 
ENDBRANCH   7  17
TORSDOF 5
ENDMDL
MODEL 5
REMARK VINA RESULT:      -5.2      3.566      5.675
REMARK  5 active torsions:
REMARK  status: ('A' for Active; 'I' for Inactive)
REMARK    1  A    between atoms: N_1  and  S_2 
REMARK    2  A    between atoms: S_2  and  N_5 
REMARK    3  A    between atoms: N_5  and  C_6 
REMARK    4  A    between atoms: C_6  and  C_7 
REMARK    5  A    between atoms: C_13  and  N_14 
ROOT
HETATM    1  C   UNL     1     -40.599 -47.586  11.749  1.00  0.00    -0.000 A 
HETATM    2  C   UNL     1     -40.937 -46.429  12.495  1.00  0.00     0.013 A 
HETATM    3  C   UNL     1     -40.190 -46.049  13.593  1.00  0.00     0.018 A 
HETATM    4  C   UNL     1     -39.107 -46.829  13.913  1.00  0.00     0.089 A 
HETATM    5  N   UNL     1     -38.768 -47.955  13.239  1.00  0.00    -0.352 N 
ATOM      6  HN  UNL     1     -37.951 -48.493  13.527  1.00  0.00     0.166 HD
HETATM    7  C   UNL     1     -39.511 -48.369  12.184  1.00  0.00     0.110 A 
ENDROOT
BRANCH   1   8
HETATM    8  C   UNL     1     -41.476 -47.861  10.552  1.00  0.00     0.147 C 
BRANCH   8   9
HETATM    9  N   UNL     1     -41.845 -46.676   9.775  1.00  0.00    -0.203 NA
HETATM   10  H   UNL     1     -41.631 -45.811  10.278  1.00  0.00     0.141 HD
BRANCH   9  11
HETATM   11  S   UNL     1     -43.390 -46.656   9.172  1.00  0.00     0.276 S 
HETATM   12  O   UNL     1     -43.734 -45.308   8.804  1.00  0.00    -0.194 OA
HETATM   13  O   UNL     1     -44.223 -47.481   9.998  1.00  0.00    -0.194 OA
BRANCH  11  14
HETATM   14  N   UNL     1     -43.145 -47.506   7.758  1.00  0.00    -0.216 NA
HETATM   15  H   UNL     1     -42.176 -47.820   7.721  1.00  0.00     0.137 HD
HETATM   16  H   UNL     1     -43.378 -46.932   6.954  1.00  0.00     0.137 HD
ENDBRANCH  11  14
ENDBRANCH   9  11
ENDBRANCH   8   9
ENDBRANCH   1   8
BRANCH   7  17
HETATM   17  N   UNL     1     -39.231 -49.646  11.691  1.00  0.00    -0.363 N 
HETATM   18  C   UNL     1     -40.104 -50.741  12.199  1.00  0.00     0.150 C 
HETATM   19  C   UNL     1     -39.452 -51.548  13.339  1.00  0.00     0.187 C 
HETATM   20  O   UNL     1     -38.132 -52.001  12.992  1.00  0.00    -0.388 OA
HETATM   21  C   UNL     1     -37.302 -50.874  12.685  1.00  0.00     0.187 C 
HETATM   22  C   UNL     1     -37.847 -50.105  11.475  1.00  0.00     0.150 C 
ENDBRANCH   7  17
TORSDOF 5
ENDMDL
MODEL 6
REMARK VINA RESULT:      -5.2      4.444      7.247
REMARK  5 active torsions:
REMARK  status: ('A' for Active; 'I' for Inactive)
REMARK    1  A    between atoms: N_1  and  S_2 
REMARK    2  A    between atoms: S_2  and  N_5 
REMARK    3  A    between atoms: N_5  and  C_6 
REMARK    4  A    between atoms: C_6  and  C_7 
REMARK    5  A    between atoms: C_13  and  N_14 
ROOT
HETATM    1  C   UNL     1     -42.042 -51.201  12.713  1.00  0.00    -0.000 A 
HETATM    2  C   UNL     1     -42.261 -49.808  12.858  1.00  0.00     0.013 A 
HETATM    3  C   UNL     1     -43.219 -49.326  13.728  1.00  0.00     0.018 A 
HETATM    4  C   UNL     1     -43.930 -50.252  14.450  1.00  0.00     0.089 A 
HETATM    5  N   UNL     1     -43.767 -51.592  14.319  1.00  0.00    -0.352 N 
ATOM      6  HN  UNL     1     -44.327 -52.230  14.884  1.00  0.00     0.166 HD
HETATM    7  C   UNL     1     -42.861 -52.087  13.441  1.00  0.00     0.110 A 
ENDROOT
BRANCH   1   8
HETATM    8  C   UNL     1     -40.938 -51.585  11.758  1.00  0.00     0.147 C 
BRANCH   8   9
HETATM    9  N   UNL     1     -39.660 -51.909  12.395  1.00  0.00    -0.203 NA
HETATM   10  H   UNL     1     -39.789 -52.264  13.345  1.00  0.00     0.141 HD
BRANCH   9  11
HETATM   11  S   UNL     1     -38.505 -50.720  12.348  1.00  0.00     0.276 S 
HETATM   12  O   UNL     1     -37.223 -51.320  12.092  1.00  0.00    -0.194 OA
HETATM   13  O   UNL     1     -38.740 -49.799  13.422  1.00  0.00    -0.194 OA
BRANCH  11  14
HETATM   14  N   UNL     1     -38.971 -49.937  10.951  1.00  0.00    -0.216 NA
HETATM   15  H   UNL     1     -39.542 -50.568  10.390  1.00  0.00     0.137 HD
HETATM   16  H   UNL     1     -38.157 -49.617  10.435  1.00  0.00     0.137 HD
ENDBRANCH  11  14
ENDBRANCH   9  11
ENDBRANCH   8   9
ENDBRANCH   1   8
BRANCH   7  17
HETATM   17  N   UNL     1     -42.914 -53.463  13.206  1.00  0.00    -0.363 N 
HETATM   18  C   UNL     1     -44.218 -53.985  12.712  1.00  0.00     0.150 C 
HETATM   19  C   UNL     1     -45.074 -54.616  13.827  1.00  0.00     0.187 C 
HETATM   20  O   UNL     1     -44.335 -55.587  14.587  1.00  0.00    -0.388 OA
HETATM   21  C   UNL     1     -43.187 -54.966  15.176  1.00  0.00     0.187 C 
HETATM   22  C   UNL     1     -42.242 -54.426  14.096  1.00  0.00     0.150 C 
ENDBRANCH   7  17
TORSDOF 5
ENDMDL
MODEL 7
REMARK VINA RESULT:      -5.1      2.755      4.374
REMARK  5 active torsions:
REMARK  status: ('A' for Active; 'I' for Inactive)
REMARK    1  A    between atoms: N_1  and  S_2 
REMARK    2  A    between atoms: S_2  and  N_5 
REMARK    3  A    between atoms: N_5  and  C_6 
REMARK    4  A    between atoms: C_6  and  C_7 
REMARK    5  A    between atoms: C_13  and  N_14 
ROOT
HETATM    1  C   UNL     1     -38.879 -48.763  12.347  1.00  0.00    -0.000 A 
HETATM    2  C   UNL     1     -37.959 -48.955  13.408  1.00  0.00     0.013 A 
HETATM    3  C   UNL     1     -37.762 -47.979  14.364  1.00  0.00     0.018 A 
HETATM    4  C   UNL     1     -38.506 -46.831  14.248  1.00  0.00     0.089 A 
HETATM    5  N   UNL     1     -39.376 -46.601  13.234  1.00  0.00    -0.352 N 
ATOM      6  HN  UNL     1     -39.900 -45.726  13.202  1.00  0.00     0.166 HD
HETATM    7  C   UNL     1     -39.554 -47.528  12.262  1.00  0.00     0.110 A 
ENDROOT
BRANCH   1   8
HETATM    8  C   UNL     1     -39.023 -49.927  11.397  1.00  0.00     0.147 C 
BRANCH   8   9
HETATM    9  N   UNL     1     -39.056 -51.242  12.039  1.00  0.00    -0.203 NA
HETATM   10  H   UNL     1     -38.541 -51.941  11.499  1.00  0.00     0.141 HD
BRANCH   9  11
HETATM   11  S   UNL     1     -40.558 -51.801  12.469  1.00  0.00     0.276 S 
HETATM   12  O   UNL     1     -41.559 -50.911  11.944  1.00  0.00    -0.194 OA
HETATM   13  O   UNL     1     -40.523 -52.223  13.840  1.00  0.00    -0.194 OA
BRANCH  11  14
HETATM   14  N   UNL     1     -40.606 -53.194  11.553  1.00  0.00    -0.216 NA
HETATM   15  H   UNL     1     -41.575 -53.494  11.454  1.00  0.00     0.137 HD
HETATM   16  H   UNL     1     -40.037 -53.919  11.980  1.00  0.00     0.137 HD
ENDBRANCH  11  14
ENDBRANCH   9  11
ENDBRANCH   8   9
ENDBRANCH   1   8
BRANCH   7  17
HETATM   17  N   UNL     1     -40.290 -47.123  11.146  1.00  0.00    -0.363 N 
HETATM   18  C   UNL     1     -39.993 -45.755  10.638  1.00  0.00     0.150 C 
HETATM   19  C   UNL     1     -41.017 -44.705  11.110  1.00  0.00     0.187 C 
HETATM   20  O   UNL     1     -42.369 -45.116  10.850  1.00  0.00    -0.388 OA
HETATM   21  C   UNL     1     -42.633 -46.356  11.518  1.00  0.00     0.187 C 
HETATM   22  C   UNL     1     -41.715 -47.466  10.993  1.00  0.00     0.150 C 
ENDBRANCH   7  17
TORSDOF 5
ENDMDL
MODEL 8
REMARK VINA RESULT:      -5.1      5.516      7.797
REMARK  5 active torsions:
REMARK  status: ('A' for Active; 'I' for Inactive)
REMARK    1  A    between atoms: N_1  and  S_2 
REMARK    2  A    between atoms: S_2  and  N_5 
REMARK    3  A    between atoms: N_5  and  C_6 
REMARK    4  A    between atoms: C_6  and  C_7 
REMARK    5  A    between atoms: C_13  and  N_14 
ROOT
HETATM    1  C   UNL     1     -40.376 -52.398  13.706  1.00  0.00    -0.000 A 
HETATM    2  C   UNL     1     -39.260 -52.924  14.403  1.00  0.00     0.013 A 
HETATM    3  C   UNL     1     -39.360 -54.101  15.118  1.00  0.00     0.018 A 
HETATM    4  C   UNL     1     -40.575 -54.739  15.106  1.00  0.00     0.089 A 
HETATM    5  N   UNL     1     -41.670 -54.254  14.471  1.00  0.00    -0.352 N 
ATOM      6  HN  UNL     1     -42.547 -54.775  14.499  1.00  0.00     0.166 HD
HETATM    7  C   UNL     1     -41.606 -53.079  13.798  1.00  0.00     0.110 A 
ENDROOT
BRANCH   1   8
HETATM    8  C   UNL     1     -40.115 -51.126  12.935  1.00  0.00     0.147 C 
BRANCH   8   9
HETATM    9  N   UNL     1     -39.189 -51.269  11.810  1.00  0.00    -0.203 NA
HETATM   10  H   UNL     1     -39.111 -52.242  11.503  1.00  0.00     0.141 HD
BRANCH   9  11
HETATM   11  S   UNL     1     -37.694 -50.579  12.009  1.00  0.00     0.276 S 
HETATM   12  O   UNL     1     -36.727 -51.615  12.261  1.00  0.00    -0.194 OA
HETATM   13  O   UNL     1     -37.825 -49.412  12.834  1.00  0.00    -0.194 OA
BRANCH  11  14
HETATM   14  N   UNL     1     -37.434 -50.028  10.457  1.00  0.00    -0.216 NA
HETATM   15  H   UNL     1     -38.303 -49.640  10.092  1.00  0.00     0.137 HD
HETATM   16  H   UNL     1     -37.088 -50.779   9.868  1.00  0.00     0.137 HD
ENDBRANCH  11  14
ENDBRANCH   9  11
ENDBRANCH   8   9
ENDBRANCH   1   8
BRANCH   7  17
HETATM   17  N   UNL     1     -42.822 -52.544  13.368  1.00  0.00    -0.363 N 
HETATM   18  C   UNL     1     -43.600 -51.798  14.397  1.00  0.00     0.150 C 
HETATM   19  C   UNL     1     -44.728 -52.640  15.023  1.00  0.00     0.187 C 
HETATM   20  O   UNL     1     -45.563 -53.250  14.024  1.00  0.00    -0.388 OA
HETATM   21  C   UNL     1     -44.768 -54.091  13.180  1.00  0.00     0.187 C 
HETATM   22  C   UNL     1     -43.703 -53.273  12.439  1.00  0.00     0.150 C 
ENDBRANCH   7  17
TORSDOF 5
ENDMDL
MODEL 9
REMARK VINA RESULT:      -5.0      5.256      7.696
REMARK  5 active torsions:
REMARK  status: ('A' for Active; 'I' for Inactive)
REMARK    1  A    between atoms: N_1  and  S_2 
REMARK    2  A    between atoms: S_2  and  N_5 
REMARK    3  A    between atoms: N_5  and  C_6 
REMARK    4  A    between atoms: C_6  and  C_7 
REMARK    5  A    between atoms: C_13  and  N_14 
ROOT
HETATM    1  C   UNL     1     -41.161 -52.086  13.051  1.00  0.00    -0.000 A 
HETATM    2  C   UNL     1     -42.434 -52.178  12.435  1.00  0.00     0.013 A 
HETATM    3  C   UNL     1     -43.294 -53.217  12.732  1.00  0.00     0.018 A 
HETATM    4  C   UNL     1     -42.867 -54.137  13.656  1.00  0.00     0.089 A 
HETATM    5  N   UNL     1     -41.647 -54.096  14.247  1.00  0.00    -0.352 N 
ATOM      6  HN  UNL     1     -41.387 -54.811  14.927  1.00  0.00     0.166 HD
HETATM    7  C   UNL     1     -40.771 -53.109  13.939  1.00  0.00     0.110 A 
ENDROOT
BRANCH   1   8
HETATM    8  C   UNL     1     -40.341 -50.879  12.663  1.00  0.00     0.147 C 
BRANCH   8   9
HETATM    9  N   UNL     1     -39.281 -51.145  11.688  1.00  0.00    -0.203 NA
HETATM   10  H   UNL     1     -39.238 -52.135  11.434  1.00  0.00     0.141 HD
BRANCH   9  11
HETATM   11  S   UNL     1     -37.779 -50.555  12.072  1.00  0.00     0.276 S 
HETATM   12  O   UNL     1     -36.907 -51.656  12.384  1.00  0.00    -0.194 OA
HETATM   13  O   UNL     1     -37.931 -49.410  12.923  1.00  0.00    -0.194 OA
BRANCH  11  14
HETATM   14  N   UNL     1     -37.322 -49.971  10.579  1.00  0.00    -0.216 NA
HETATM   15  H   UNL     1     -36.852 -50.712  10.060  1.00  0.00     0.137 HD
HETATM   16  H   UNL     1     -36.723 -49.157  10.685  1.00  0.00     0.137 HD
ENDBRANCH  11  14
ENDBRANCH   9  11
ENDBRANCH   8   9
ENDBRANCH   1   8
BRANCH   7  17
HETATM   17  N   UNL     1     -39.468 -53.265  14.416  1.00  0.00    -0.363 N 
HETATM   18  C   UNL     1     -38.942 -54.659  14.415  1.00  0.00     0.150 C 
HETATM   19  C   UNL     1     -39.028 -55.334  15.797  1.00  0.00     0.187 C 
HETATM   20  O   UNL     1     -38.451 -54.520  16.831  1.00  0.00    -0.388 OA
HETATM   21  C   UNL     1     -39.128 -53.258  16.886  1.00  0.00     0.187 C 
HETATM   22  C   UNL     1     -38.967 -52.493  15.567  1.00  0.00     0.150 C 
ENDBRANCH   7  17
TORSDOF 5
ENDMDL
