MODEL 1
REMARK VINA RESULT:      -7.2      0.000      0.000
REMARK  4 active torsions:
REMARK  status: ('A' for Active; 'I' for Inactive)
REMARK    1  A    between atoms: N_1  and  C_10 
REMARK    2  A    between atoms: C_7  and  N_13 
REMARK    3  A    between atoms: N_13  and  C_16 
REMARK    4  A    between atoms: C_16  and  C_17 
ROOT
HETATM    1  N   UNL     1     -41.250 -47.209  11.434  1.00  0.00    -0.300 N 
HETATM    2  C   UNL     1     -40.400 -48.283  11.434  1.00  0.00     0.142 A 
HETATM    3  C   UNL     1     -41.218 -49.391  11.313  1.00  0.00     0.122 A 
HETATM    4  N   UNL     1     -42.533 -48.998  11.130  1.00  0.00    -0.346 N 
ATOM      5  HN  UNL     1     -43.344 -49.598  10.973  1.00  0.00     0.167 HD
HETATM    6  C   UNL     1     -42.513 -47.677  11.204  1.00  0.00     0.188 A 
HETATM    7  C   UNL     1     -40.588 -50.646  11.451  1.00  0.00     0.133 A 
HETATM    8  N   UNL     1     -39.073 -48.251  11.633  1.00  0.00    -0.336 N 
ATOM      9  HN  UNL     1     -38.522 -47.397  11.721  1.00  0.00     0.168 HD
HETATM   10  N   UNL     1     -39.235 -50.656  11.626  1.00  0.00    -0.337 N 
ATOM     11  HN  UNL     1     -38.733 -51.541  11.699  1.00  0.00     0.168 HD
HETATM   12  C   UNL     1     -38.568 -49.489  11.700  1.00  0.00     0.183 A 
ENDROOT
BRANCH   7  13
HETATM   13  N   UNL     1     -41.301 -51.832  11.515  1.00  0.00    -0.370 N 
HETATM   14  H   UNL     1     -41.540 -52.200  10.599  1.00  0.00     0.161 HD
BRANCH  13  15
HETATM   15  C   UNL     1     -40.898 -52.797  12.515  1.00  0.00     0.160 C 
BRANCH  15  16
HETATM   16  C   UNL     1     -42.125 -53.461  13.094  1.00  0.00    -0.041 A 
HETATM   17  C   UNL     1     -43.387 -53.275  12.518  1.00  0.00     0.009 A 
HETATM   18  C   UNL     1     -44.505 -53.925  13.047  1.00  0.00     0.001 A 
HETATM   19  C   UNL     1     -44.372 -54.766  14.152  1.00  0.00     0.000 A 
HETATM   20  C   UNL     1     -43.123 -54.961  14.733  1.00  0.00     0.001 A 
HETATM   21  C   UNL     1     -42.004 -54.315  14.204  1.00  0.00     0.009 A 
ENDBRANCH  15  16
ENDBRANCH  13  15
ENDBRANCH   7  13
BRANCH   1  22
HETATM   22  C   UNL     1     -40.826 -45.927  11.962  1.00  0.00     0.230 C 
HETATM   23  O   UNL     1     -39.913 -46.058  13.056  1.00  0.00    -0.366 OA
HETATM   24  C   UNL     1     -39.788 -44.785  13.715  1.00  0.00     0.170 C 
HETATM   25  C   UNL     1     -39.318 -43.671  12.769  1.00  0.00     0.026 C 
HETATM   26  C   UNL     1     -40.059 -43.658  11.432  1.00  0.00     0.006 C 
HETATM   27  C   UNL     1     -40.176 -45.069  10.879  1.00  0.00     0.054 C 
ENDBRANCH   1  22
TORSDOF 4
ENDMDL
MODEL 2
REMARK VINA RESULT:      -6.8      1.950      2.462
REMARK  4 active torsions:
REMARK  status: ('A' for Active; 'I' for Inactive)
REMARK    1  A    between atoms: N_1  and  C_10 
REMARK    2  A    between atoms: C_7  and  N_13 
REMARK    3  A    between atoms: N_13  and  C_16 
REMARK    4  A    between atoms: C_16  and  C_17 
ROOT
HETATM    1  N   UNL     1     -41.755 -47.086  11.200  1.00  0.00    -0.300 N 
HETATM    2  C   UNL     1     -41.061 -48.263  11.295  1.00  0.00     0.142 A 
HETATM    3  C   UNL     1     -42.021 -49.233  11.511  1.00  0.00     0.122 A 
HETATM    4  N   UNL     1     -43.288 -48.677  11.439  1.00  0.00    -0.346 N 
ATOM      5  HN  UNL     1     -44.183 -49.161  11.518  1.00  0.00     0.167 HD
HETATM    6  C   UNL     1     -43.088 -47.384  11.246  1.00  0.00     0.188 A 
HETATM    7  C   UNL     1     -41.542 -50.526  11.807  1.00  0.00     0.133 A 
HETATM    8  N   UNL     1     -39.726 -48.404  11.297  1.00  0.00    -0.336 N 
ATOM      9  HN  UNL     1     -39.064 -47.645  11.136  1.00  0.00     0.168 HD
HETATM   10  N   UNL     1     -40.191 -50.717  11.790  1.00  0.00    -0.337 N 
ATOM     11  HN  UNL     1     -39.801 -51.643  11.967  1.00  0.00     0.168 HD
HETATM   12  C   UNL     1     -39.379 -49.675  11.538  1.00  0.00     0.183 A 
ENDROOT
BRANCH   7  13
HETATM   13  N   UNL     1     -42.380 -51.557  12.203  1.00  0.00    -0.370 N 
HETATM   14  H   UNL     1     -42.263 -52.398  11.647  1.00  0.00     0.161 HD
BRANCH  13  15
HETATM   15  C   UNL     1     -42.580 -51.742  13.624  1.00  0.00     0.160 C 
BRANCH  15  16
HETATM   16  C   UNL     1     -44.052 -51.631  13.943  1.00  0.00    -0.041 A 
HETATM   17  C   UNL     1     -44.492 -51.359  15.243  1.00  0.00     0.009 A 
HETATM   18  C   UNL     1     -45.856 -51.225  15.512  1.00  0.00     0.001 A 
HETATM   19  C   UNL     1     -46.790 -51.361  14.485  1.00  0.00     0.000 A 
HETATM   20  C   UNL     1     -46.367 -51.630  13.188  1.00  0.00     0.001 A 
HETATM   21  C   UNL     1     -45.004 -51.761  12.917  1.00  0.00     0.009 A 
ENDBRANCH  15  16
ENDBRANCH  13  15
ENDBRANCH   7  13
BRANCH   1  22
HETATM   22  C   UNL     1     -41.090 -45.814  11.399  1.00  0.00     0.230 C 
HETATM   23  O   UNL     1     -40.792 -45.149  10.168  1.00  0.00    -0.366 OA
HETATM   24  C   UNL     1     -39.874 -44.073  10.427  1.00  0.00     0.170 C 
HETATM   25  C   UNL     1     -40.416 -43.064  11.450  1.00  0.00     0.026 C 
HETATM   26  C   UNL     1     -41.034 -43.723  12.682  1.00  0.00     0.006 C 
HETATM   27  C   UNL     1     -41.929 -44.880  12.270  1.00  0.00     0.054 C 
ENDBRANCH   1  22
TORSDOF 4
ENDMDL
MODEL 3
REMARK VINA RESULT:      -6.7      2.735      3.694
REMARK  4 active torsions:
REMARK  status: ('A' for Active; 'I' for Inactive)
REMARK    1  A    between atoms: N_1  and  C_10 
REMARK    2  A    between atoms: C_7  and  N_13 
REMARK    3  A    between atoms: N_13  and  C_16 
REMARK    4  A    between atoms: C_16  and  C_17 
ROOT
HETATM    1  N   UNL     1     -40.141 -49.624  12.905  1.00  0.00    -0.300 N 
HETATM    2  C   UNL     1     -40.279 -50.981  13.026  1.00  0.00     0.142 A 
HETATM    3  C   UNL     1     -41.396 -51.298  12.276  1.00  0.00     0.122 A 
HETATM    4  N   UNL     1     -41.867 -50.174  11.619  1.00  0.00    -0.346 N 
ATOM      5  HN  UNL     1     -42.650 -50.119  10.967  1.00  0.00     0.167 HD
HETATM    6  C   UNL     1     -41.083 -49.186  12.018  1.00  0.00     0.188 A 
HETATM    7  C   UNL     1     -41.849 -52.631  12.369  1.00  0.00     0.133 A 
HETATM    8  N   UNL     1     -39.549 -51.792  13.807  1.00  0.00    -0.336 N 
ATOM      9  HN  UNL     1     -38.734 -51.497  14.345  1.00  0.00     0.168 HD
HETATM   10  N   UNL     1     -41.116 -53.494  13.131  1.00  0.00    -0.337 N 
ATOM     11  HN  UNL     1     -41.388 -54.475  13.203  1.00  0.00     0.168 HD
HETATM   12  C   UNL     1     -40.033 -53.040  13.787  1.00  0.00     0.183 A 
ENDROOT
BRANCH   7  13
HETATM   13  N   UNL     1     -43.043 -53.052  11.805  1.00  0.00    -0.370 N 
HETATM   14  H   UNL     1     -42.948 -53.318  10.830  1.00  0.00     0.161 HD
BRANCH  13  15
HETATM   15  C   UNL     1     -43.909 -53.876  12.620  1.00  0.00     0.160 C 
BRANCH  15  16
HETATM   16  C   UNL     1     -44.889 -52.996  13.360  1.00  0.00    -0.041 A 
HETATM   17  C   UNL     1     -45.860 -52.259  12.673  1.00  0.00     0.009 A 
HETATM   18  C   UNL     1     -46.779 -51.477  13.377  1.00  0.00     0.001 A 
HETATM   19  C   UNL     1     -46.737 -51.427  14.770  1.00  0.00     0.000 A 
HETATM   20  C   UNL     1     -45.777 -52.155  15.465  1.00  0.00     0.001 A 
HETATM   21  C   UNL     1     -44.860 -52.940  14.764  1.00  0.00     0.009 A 
ENDBRANCH  15  16
ENDBRANCH  13  15
ENDBRANCH   7  13
BRANCH   1  22
HETATM   22  C   UNL     1     -39.363 -48.869  13.868  1.00  0.00     0.230 C 
HETATM   23  O   UNL     1     -39.501 -49.370  15.201  1.00  0.00    -0.366 OA
HETATM   24  C   UNL     1     -38.966 -48.402  16.122  1.00  0.00     0.170 C 
HETATM   25  C   UNL     1     -37.496 -48.063  15.839  1.00  0.00     0.026 C 
HETATM   26  C   UNL     1     -37.207 -47.805  14.360  1.00  0.00     0.006 C 
HETATM   27  C   UNL     1     -37.881 -48.860  13.498  1.00  0.00     0.054 C 
ENDBRANCH   1  22
TORSDOF 4
ENDMDL
MODEL 4
REMARK VINA RESULT:      -6.5      1.989      2.677
REMARK  4 active torsions:
REMARK  status: ('A' for Active; 'I' for Inactive)
REMARK    1  A    between atoms: N_1  and  C_10 
REMARK    2  A    between atoms: C_7  and  N_13 
REMARK    3  A    between atoms: N_13  and  C_16 
REMARK    4  A    between atoms: C_16  and  C_17 
ROOT
HETATM    1  N   UNL     1     -41.053 -48.573  12.804  1.00  0.00    -0.300 N 
HETATM    2  C   UNL     1     -40.671 -49.888  12.780  1.00  0.00     0.142 A 
HETATM    3  C   UNL     1     -41.715 -50.556  12.168  1.00  0.00     0.122 A 
HETATM    4  N   UNL     1     -42.668 -49.653  11.726  1.00  0.00    -0.346 N 
ATOM      5  HN  UNL     1     -43.522 -49.857  11.206  1.00  0.00     0.167 HD
HETATM    6  C   UNL     1     -42.232 -48.469  12.122  1.00  0.00     0.188 A 
HETATM    7  C   UNL     1     -41.635 -51.964  12.166  1.00  0.00     0.133 A 
HETATM    8  N   UNL     1     -39.571 -50.410  13.345  1.00  0.00    -0.336 N 
ATOM      9  HN  UNL     1     -38.834 -49.863  13.789  1.00  0.00     0.168 HD
HETATM   10  N   UNL     1     -40.518 -52.533  12.705  1.00  0.00    -0.337 N 
ATOM     11  HN  UNL     1     -40.402 -53.546  12.698  1.00  0.00     0.168 HD
HETATM   12  C   UNL     1     -39.570 -51.746  13.246  1.00  0.00     0.183 A 
ENDROOT
BRANCH   7  13
HETATM   13  N   UNL     1     -42.679 -52.767  11.736  1.00  0.00    -0.370 N 
HETATM   14  H   UNL     1     -42.483 -53.232  10.855  1.00  0.00     0.161 HD
BRANCH  13  15
HETATM   15  C   UNL     1     -43.377 -53.545  12.737  1.00  0.00     0.160 C 
BRANCH  15  16
HETATM   16  C   UNL     1     -44.544 -52.747  13.268  1.00  0.00    -0.041 A 
HETATM   17  C   UNL     1     -45.651 -52.462  12.460  1.00  0.00     0.009 A 
HETATM   18  C   UNL     1     -46.737 -51.752  12.979  1.00  0.00     0.001 A 
HETATM   19  C   UNL     1     -46.726 -51.324  14.306  1.00  0.00     0.000 A 
HETATM   20  C   UNL     1     -45.633 -51.602  15.120  1.00  0.00     0.001 A 
HETATM   21  C   UNL     1     -44.549 -52.314  14.605  1.00  0.00     0.009 A 
ENDBRANCH  15  16
ENDBRANCH  13  15
ENDBRANCH   7  13
BRANCH   1  22
HETATM   22  C   UNL     1     -40.438 -47.638  13.726  1.00  0.00     0.230 C 
HETATM   23  O   UNL     1     -39.031 -47.498  13.512  1.00  0.00    -0.366 OA
HETATM   24  C   UNL     1     -38.451 -46.816  14.638  1.00  0.00     0.170 C 
HETATM   25  C   UNL     1     -39.084 -45.439  14.887  1.00  0.00     0.026 C 
HETATM   26  C   UNL     1     -40.611 -45.455  14.831  1.00  0.00     0.006 C 
HETATM   27  C   UNL     1     -41.088 -46.259  13.634  1.00  0.00     0.054 C 
ENDBRANCH   1  22
TORSDOF 4
ENDMDL
MODEL 5
REMARK VINA RESULT:      -6.2      5.580      8.175
REMARK  4 active torsions:
REMARK  status: ('A' for Active; 'I' for Inactive)
REMARK    1  A    between atoms: N_1  and  C_10 
REMARK    2  A    between atoms: C_7  and  N_13 
REMARK    3  A    between atoms: N_13  and  C_16 
REMARK    4  A    between atoms: C_16  and  C_17 
ROOT
HETATM    1  N   UNL     1     -41.429 -55.032  16.009  1.00  0.00    -0.300 N 
HETATM    2  C   UNL     1     -41.547 -54.447  14.775  1.00  0.00     0.142 A 
HETATM    3  C   UNL     1     -42.903 -54.240  14.602  1.00  0.00     0.122 A 
HETATM    4  N   UNL     1     -43.592 -54.589  15.752  1.00  0.00    -0.346 N 
ATOM      5  HN  UNL     1     -44.594 -54.503  15.924  1.00  0.00     0.167 HD
HETATM    6  C   UNL     1     -42.671 -55.056  16.578  1.00  0.00     0.188 A 
HETATM    7  C   UNL     1     -43.304 -53.790  13.326  1.00  0.00     0.133 A 
HETATM    8  N   UNL     1     -40.558 -54.241  13.892  1.00  0.00    -0.336 N 
ATOM      9  HN  UNL     1     -39.572 -54.420  14.077  1.00  0.00     0.168 HD
HETATM   10  N   UNL     1     -42.325 -53.542  12.409  1.00  0.00    -0.337 N 
ATOM     11  HN  UNL     1     -42.566 -53.185  11.484  1.00  0.00     0.168 HD
HETATM   12  C   UNL     1     -41.040 -53.770  12.735  1.00  0.00     0.183 A 
ENDROOT
BRANCH   7  13
HETATM   13  N   UNL     1     -44.636 -53.695  12.957  1.00  0.00    -0.370 N 
HETATM   14  H   UNL     1     -45.221 -54.395  13.402  1.00  0.00     0.161 HD
BRANCH  13  15
HETATM   15  C   UNL     1     -45.198 -52.367  12.830  1.00  0.00     0.160 C 
BRANCH  15  16
HETATM   16  C   UNL     1     -45.630 -51.872  14.190  1.00  0.00    -0.041 A 
HETATM   17  C   UNL     1     -44.813 -51.021  14.942  1.00  0.00     0.009 A 
HETATM   18  C   UNL     1     -45.245 -50.546  16.183  1.00  0.00     0.001 A 
HETATM   19  C   UNL     1     -46.494 -50.916  16.681  1.00  0.00     0.000 A 
HETATM   20  C   UNL     1     -47.316 -51.761  15.943  1.00  0.00     0.001 A 
HETATM   21  C   UNL     1     -46.888 -52.234  14.701  1.00  0.00     0.009 A 
ENDBRANCH  15  16
ENDBRANCH  13  15
ENDBRANCH   7  13
BRANCH   1  22
HETATM   22  C   UNL     1     -40.239 -55.778  16.365  1.00  0.00     0.230 C 
HETATM   23  O   UNL     1     -39.098 -54.936  16.555  1.00  0.00    -0.366 OA
HETATM   24  C   UNL     1     -37.915 -55.753  16.594  1.00  0.00     0.170 C 
HETATM   25  C   UNL     1     -37.967 -56.822  17.696  1.00  0.00     0.026 C 
HETATM   26  C   UNL     1     -39.298 -57.573  17.748  1.00  0.00     0.006 C 
HETATM   27  C   UNL     1     -40.459 -56.600  17.634  1.00  0.00     0.054 C 
ENDBRANCH   1  22
TORSDOF 4
ENDMDL
MODEL 6
REMARK VINA RESULT:      -6.2      2.874      5.242
REMARK  4 active torsions:
REMARK  status: ('A' for Active; 'I' for Inactive)
REMARK    1  A    between atoms: N_1  and  C_10 
REMARK    2  A    between atoms: C_7  and  N_13 
REMARK    3  A    between atoms: N_13  and  C_16 
REMARK    4  A    between atoms: C_16  and  C_17 
ROOT
HETATM    1  N   UNL     1     -41.450 -47.678  10.892  1.00  0.00    -0.300 N 
HETATM    2  C   UNL     1     -41.136 -48.931  11.346  1.00  0.00     0.142 A 
HETATM    3  C   UNL     1     -39.783 -48.886  11.624  1.00  0.00     0.122 A 
HETATM    4  N   UNL     1     -39.300 -47.599  11.449  1.00  0.00    -0.346 N 
ATOM      5  HN  UNL     1     -38.352 -47.264  11.620  1.00  0.00     0.167 HD
HETATM    6  C   UNL     1     -40.334 -46.899  11.013  1.00  0.00     0.188 A 
HETATM    7  C   UNL     1     -39.176 -50.115  11.960  1.00  0.00     0.133 A 
HETATM    8  N   UNL     1     -41.955 -49.994  11.388  1.00  0.00    -0.336 N 
ATOM      9  HN  UNL     1     -42.949 -49.966  11.164  1.00  0.00     0.168 HD
HETATM   10  N   UNL     1     -39.981 -51.213  12.041  1.00  0.00    -0.337 N 
ATOM     11  HN  UNL     1     -39.592 -52.117  12.311  1.00  0.00     0.168 HD
HETATM   12  C   UNL     1     -41.292 -51.095  11.763  1.00  0.00     0.183 A 
ENDROOT
BRANCH   7  13
HETATM   13  N   UNL     1     -37.805 -50.252  12.105  1.00  0.00    -0.370 N 
HETATM   14  H   UNL     1     -37.285 -49.480  11.698  1.00  0.00     0.161 HD
BRANCH  13  15
HETATM   15  C   UNL     1     -37.317 -50.768  13.365  1.00  0.00     0.160 C 
BRANCH  15  16
HETATM   16  C   UNL     1     -37.594 -49.764  14.459  1.00  0.00    -0.041 A 
HETATM   17  C   UNL     1     -37.153 -48.440  14.353  1.00  0.00     0.009 A 
HETATM   18  C   UNL     1     -37.448 -47.517  15.359  1.00  0.00     0.001 A 
HETATM   19  C   UNL     1     -38.184 -47.908  16.477  1.00  0.00     0.000 A 
HETATM   20  C   UNL     1     -38.629 -49.220  16.595  1.00  0.00     0.001 A 
HETATM   21  C   UNL     1     -38.339 -50.144  15.589  1.00  0.00     0.009 A 
ENDBRANCH  15  16
ENDBRANCH  13  15
ENDBRANCH   7  13
BRANCH   1  22
HETATM   22  C   UNL     1     -42.649 -47.451  10.109  1.00  0.00     0.230 C 
HETATM   23  O   UNL     1     -43.843 -47.784  10.823  1.00  0.00    -0.366 OA
HETATM   24  C   UNL     1     -44.944 -47.833   9.898  1.00  0.00     0.170 C 
HETATM   25  C   UNL     1     -45.138 -46.513   9.138  1.00  0.00     0.026 C 
HETATM   26  C   UNL     1     -43.835 -45.931   8.592  1.00  0.00     0.006 C 
HETATM   27  C   UNL     1     -42.743 -45.999   9.647  1.00  0.00     0.054 C 
ENDBRANCH   1  22
TORSDOF 4
ENDMDL
MODEL 7
REMARK VINA RESULT:      -6.1      1.762      2.335
REMARK  4 active torsions:
REMARK  status: ('A' for Active; 'I' for Inactive)
REMARK    1  A    between atoms: N_1  and  C_10 
REMARK    2  A    between atoms: C_7  and  N_13 
REMARK    3  A    between atoms: N_13  and  C_16 
REMARK    4  A    between atoms: C_16  and  C_17 
ROOT
HETATM    1  N   UNL     1     -41.023 -48.152  11.314  1.00  0.00    -0.300 N 
HETATM    2  C   UNL     1     -40.435 -49.327  11.701  1.00  0.00     0.142 A 
HETATM    3  C   UNL     1     -41.485 -50.184  11.975  1.00  0.00     0.122 A 
HETATM    4  N   UNL     1     -42.690 -49.582  11.655  1.00  0.00    -0.346 N 
ATOM      5  HN  UNL     1     -43.623 -49.991  11.714  1.00  0.00     0.167 HD
HETATM    6  C   UNL     1     -42.372 -48.361  11.256  1.00  0.00     0.188 A 
HETATM    7  C   UNL     1     -41.140 -51.424  12.553  1.00  0.00     0.133 A 
HETATM    8  N   UNL     1     -39.123 -49.540  11.886  1.00  0.00    -0.336 N 
ATOM      9  HN  UNL     1     -38.391 -48.863  11.670  1.00  0.00     0.168 HD
HETATM   10  N   UNL     1     -39.814 -51.690  12.730  1.00  0.00    -0.337 N 
ATOM     11  HN  UNL     1     -39.516 -52.586  13.116  1.00  0.00     0.168 HD
HETATM   12  C   UNL     1     -38.902 -50.760  12.391  1.00  0.00     0.183 A 
ENDROOT
BRANCH   7  13
HETATM   13  N   UNL     1     -42.092 -52.312  13.027  1.00  0.00    -0.370 N 
HETATM   14  H   UNL     1     -41.893 -53.276  12.777  1.00  0.00     0.161 HD
BRANCH  13  15
HETATM   15  C   UNL     1     -42.610 -52.084  14.359  1.00  0.00     0.160 C 
BRANCH  15  16
HETATM   16  C   UNL     1     -44.105 -52.301  14.359  1.00  0.00    -0.041 A 
HETATM   17  C   UNL     1     -44.650 -53.580  14.518  1.00  0.00     0.009 A 
HETATM   18  C   UNL     1     -46.035 -53.757  14.550  1.00  0.00     0.001 A 
HETATM   19  C   UNL     1     -46.886 -52.659  14.425  1.00  0.00     0.000 A 
HETATM   20  C   UNL     1     -46.358 -51.382  14.268  1.00  0.00     0.001 A 
HETATM   21  C   UNL     1     -44.974 -51.202  14.239  1.00  0.00     0.009 A 
ENDBRANCH  15  16
ENDBRANCH  13  15
ENDBRANCH   7  13
BRANCH   1  22
HETATM   22  C   UNL     1     -40.287 -46.904  11.358  1.00  0.00     0.230 C 
HETATM   23  O   UNL     1     -40.769 -45.947  10.410  1.00  0.00    -0.366 OA
HETATM   24  C   UNL     1     -39.813 -44.879  10.295  1.00  0.00     0.170 C 
HETATM   25  C   UNL     1     -39.528 -44.190  11.638  1.00  0.00     0.026 C 
HETATM   26  C   UNL     1     -39.294 -45.173  12.785  1.00  0.00     0.006 C 
HETATM   27  C   UNL     1     -40.333 -46.281  12.752  1.00  0.00     0.054 C 
ENDBRANCH   1  22
TORSDOF 4
ENDMDL
MODEL 8
REMARK VINA RESULT:      -6.1      2.768      7.628
REMARK  4 active torsions:
REMARK  status: ('A' for Active; 'I' for Inactive)
REMARK    1  A    between atoms: N_1  and  C_10 
REMARK    2  A    between atoms: C_7  and  N_13 
REMARK    3  A    between atoms: N_13  and  C_16 
REMARK    4  A    between atoms: C_16  and  C_17 
ROOT
HETATM    1  N   UNL     1     -43.568 -51.023  14.066  1.00  0.00    -0.300 N 
HETATM    2  C   UNL     1     -42.577 -51.347  13.178  1.00  0.00     0.142 A 
HETATM    3  C   UNL     1     -41.808 -50.204  13.062  1.00  0.00     0.122 A 
HETATM    4  N   UNL     1     -42.255 -49.235  13.946  1.00  0.00    -0.346 N 
ATOM      5  HN  UNL     1     -41.854 -48.310  14.106  1.00  0.00     0.167 HD
HETATM    6  C   UNL     1     -43.312 -49.766  14.536  1.00  0.00     0.188 A 
HETATM    7  C   UNL     1     -40.804 -50.228  12.071  1.00  0.00     0.133 A 
HETATM    8  N   UNL     1     -42.465 -52.493  12.488  1.00  0.00    -0.336 N 
ATOM      9  HN  UNL     1     -43.070 -53.304  12.614  1.00  0.00     0.168 HD
HETATM   10  N   UNL     1     -40.641 -51.385  11.368  1.00  0.00    -0.337 N 
ATOM     11  HN  UNL     1     -39.906 -51.459  10.664  1.00  0.00     0.168 HD
HETATM   12  C   UNL     1     -41.455 -52.428  11.611  1.00  0.00     0.183 A 
ENDROOT
BRANCH   7  13
HETATM   13  N   UNL     1     -40.067 -49.104  11.732  1.00  0.00    -0.370 N 
HETATM   14  H   UNL     1     -39.127 -49.327  11.422  1.00  0.00     0.161 HD
BRANCH  13  15
HETATM   15  C   UNL     1     -40.753 -48.050  11.017  1.00  0.00     0.160 C 
BRANCH  15  16
HETATM   16  C   UNL     1     -40.242 -46.709  11.489  1.00  0.00    -0.041 A 
HETATM   17  C   UNL     1     -40.239 -45.597  10.639  1.00  0.00     0.009 A 
HETATM   18  C   UNL     1     -39.795 -44.357  11.104  1.00  0.00     0.001 A 
HETATM   19  C   UNL     1     -39.351 -44.218  12.419  1.00  0.00     0.000 A 
HETATM   20  C   UNL     1     -39.349 -45.314  13.274  1.00  0.00     0.001 A 
HETATM   21  C   UNL     1     -39.796 -46.554  12.813  1.00  0.00     0.009 A 
ENDBRANCH  15  16
ENDBRANCH  13  15
ENDBRANCH   7  13
BRANCH   1  22
HETATM   22  C   UNL     1     -44.794 -51.794  14.122  1.00  0.00     0.230 C 
HETATM   23  O   UNL     1     -44.560 -53.182  14.377  1.00  0.00    -0.366 OA
HETATM   24  C   UNL     1     -45.768 -53.917  14.110  1.00  0.00     0.170 C 
HETATM   25  C   UNL     1     -46.959 -53.424  14.944  1.00  0.00     0.026 C 
HETATM   26  C   UNL     1     -47.096 -51.902  14.964  1.00  0.00     0.006 C 
HETATM   27  C   UNL     1     -45.741 -51.252  15.191  1.00  0.00     0.054 C 
ENDBRANCH   1  22
TORSDOF 4
ENDMDL
MODEL 9
REMARK VINA RESULT:      -6.0      2.005      2.493
REMARK  4 active torsions:
REMARK  status: ('A' for Active; 'I' for Inactive)
REMARK    1  A    between atoms: N_1  and  C_10 
REMARK    2  A    between atoms: C_7  and  N_13 
REMARK    3  A    between atoms: N_13  and  C_16 
REMARK    4  A    between atoms: C_16  and  C_17 
ROOT
HETATM    1  N   UNL     1     -41.439 -46.628  10.988  1.00  0.00    -0.300 N 
HETATM    2  C   UNL     1     -40.542 -47.569  11.420  1.00  0.00     0.142 A 
HETATM    3  C   UNL     1     -41.062 -48.780  11.004  1.00  0.00     0.122 A 
HETATM    4  N   UNL     1     -42.197 -48.577  10.237  1.00  0.00    -0.346 N 
ATOM      5  HN  UNL     1     -42.762 -49.285   9.767  1.00  0.00     0.167 HD
HETATM    6  C   UNL     1     -42.390 -47.269  10.245  1.00  0.00     0.188 A 
HETATM    7  C   UNL     1     -40.397 -49.934  11.471  1.00  0.00     0.133 A 
HETATM    8  N   UNL     1     -39.462 -47.350  12.185  1.00  0.00    -0.336 N 
ATOM      9  HN  UNL     1     -39.129 -46.428  12.465  1.00  0.00     0.168 HD
HETATM   10  N   UNL     1     -39.276 -49.753  12.228  1.00  0.00    -0.337 N 
ATOM     11  HN  UNL     1     -38.745 -50.558  12.561  1.00  0.00     0.168 HD
HETATM   12  C   UNL     1     -38.878 -48.504  12.532  1.00  0.00     0.183 A 
ENDROOT
BRANCH   7  13
HETATM   13  N   UNL     1     -40.895 -51.211  11.271  1.00  0.00    -0.370 N 
HETATM   14  H   UNL     1     -40.196 -51.859  10.922  1.00  0.00     0.161 HD
BRANCH  13  15
HETATM   15  C   UNL     1     -41.820 -51.727  12.257  1.00  0.00     0.160 C 
BRANCH  15  16
HETATM   16  C   UNL     1     -41.063 -52.552  13.271  1.00  0.00    -0.041 A 
HETATM   17  C   UNL     1     -40.610 -53.839  12.961  1.00  0.00     0.009 A 
HETATM   18  C   UNL     1     -39.882 -54.574  13.900  1.00  0.00     0.001 A 
HETATM   19  C   UNL     1     -39.601 -54.030  15.153  1.00  0.00     0.000 A 
HETATM   20  C   UNL     1     -40.044 -52.751  15.474  1.00  0.00     0.001 A 
HETATM   21  C   UNL     1     -40.769 -52.014  14.536  1.00  0.00     0.009 A 
ENDBRANCH  15  16
ENDBRANCH  13  15
ENDBRANCH   7  13
BRANCH   1  22
HETATM   22  C   UNL     1     -41.474 -45.307  11.585  1.00  0.00     0.230 C 
HETATM   23  O   UNL     1     -41.722 -44.276  10.625  1.00  0.00    -0.366 OA
HETATM   24  C   UNL     1     -41.434 -43.000  11.223  1.00  0.00     0.170 C 
HETATM   25  C   UNL     1     -42.256 -42.742  12.494  1.00  0.00     0.026 C 
HETATM   26  C   UNL     1     -42.285 -43.935  13.449  1.00  0.00     0.006 C 
HETATM   27  C   UNL     1     -42.534 -45.222  12.681  1.00  0.00     0.054 C 
ENDBRANCH   1  22
TORSDOF 4
ENDMDL
