MODEL 1
REMARK VINA RESULT:      -5.7      0.000      0.000
REMARK  6 active torsions:
REMARK  status: ('A' for Active; 'I' for Inactive)
REMARK    1  A    between atoms: O_1  and  C_2 
REMARK    2  A    between atoms: C_2  and  C_3 
REMARK    3  A    between atoms: C_3  and  N_4 
REMARK    4  A    between atoms: N_4  and  C_5 
REMARK    5  A    between atoms: C_5  and  C_6 
REMARK    6  A    between atoms: C_6  and  N_7 
ROOT
HETATM    1  N   UNL     1     -41.975 -50.264  11.787  1.00  0.00     0.087 N 
HETATM    2  H   UNL     1     -42.414 -50.322  12.708  1.00  0.00     0.316 HD
ENDROOT
BRANCH   1   3
HETATM    3  C   UNL     1     -40.740 -51.070  11.830  1.00  0.00     0.307 C 
BRANCH   3   4
HETATM    4  C   UNL     1     -40.988 -52.514  12.334  1.00  0.00     0.084 C 
HETATM    5  C   UNL     1     -40.141 -52.833  13.583  1.00  0.00     0.039 C 
HETATM    6  C   UNL     1     -40.477 -54.201  14.177  1.00  0.00     0.003 C 
HETATM    7  C   UNL     1     -41.965 -54.328  14.479  1.00  0.00     0.000 C 
HETATM    8  C   UNL     1     -42.812 -54.049  13.242  1.00  0.00     0.003 C 
HETATM    9  C   UNL     1     -42.488 -52.682  12.642  1.00  0.00     0.039 C 
BRANCH   4  10
HETATM   10  O   UNL     1     -40.645 -53.429  11.284  1.00  0.00    -0.388 OA
HETATM   11  H   UNL     1     -41.413 -54.014  11.166  1.00  0.00     0.210 HD
ENDBRANCH   4  10
ENDBRANCH   3   4
ENDBRANCH   1   3
BRANCH   1  12
HETATM   12  C   UNL     1     -41.683 -48.841  11.531  1.00  0.00     0.291 C 
BRANCH  12  13
HETATM   13  C   UNL     1     -42.912 -47.930  11.534  1.00  0.00     0.178 C 
BRANCH  13  14
HETATM   14  N   UNL     1     -43.471 -47.800  10.201  1.00  0.00    -0.302 N 
HETATM   15  C   UNL     1     -44.762 -47.501   9.879  1.00  0.00     0.111 A 
HETATM   16  C   UNL     1     -44.813 -47.491   8.505  1.00  0.00     0.037 A 
HETATM   17  C   UNL     1     -43.504 -47.799   8.097  1.00  0.00     0.108 A 
HETATM   18  N   UNL     1     -42.678 -47.986   9.128  1.00  0.00    -0.310 N 
ATOM     19  HN  UNL     1     -41.684 -48.215   9.109  1.00  0.00     0.186 HD
ENDBRANCH  13  14
ENDBRANCH  12  13
ENDBRANCH   1  12
TORSDOF 6
ENDMDL
MODEL 2
REMARK VINA RESULT:      -5.6      3.658      5.300
REMARK  6 active torsions:
REMARK  status: ('A' for Active; 'I' for Inactive)
REMARK    1  A    between atoms: O_1  and  C_2 
REMARK    2  A    between atoms: C_2  and  C_3 
REMARK    3  A    between atoms: C_3  and  N_4 
REMARK    4  A    between atoms: N_4  and  C_5 
REMARK    5  A    between atoms: C_5  and  C_6 
REMARK    6  A    between atoms: C_6  and  N_7 
ROOT
HETATM    1  N   UNL     1     -42.781 -52.646  11.724  1.00  0.00     0.087 N 
HETATM    2  H   UNL     1     -43.276 -51.752  11.699  1.00  0.00     0.316 HD
ENDROOT
BRANCH   1   3
HETATM    3  C   UNL     1     -43.337 -53.433  12.841  1.00  0.00     0.307 C 
BRANCH   3   4
HETATM    4  C   UNL     1     -44.800 -53.046  13.173  1.00  0.00     0.084 C 
HETATM    5  C   UNL     1     -45.481 -54.107  14.062  1.00  0.00     0.039 C 
HETATM    6  C   UNL     1     -46.875 -53.675  14.515  1.00  0.00     0.003 C 
HETATM    7  C   UNL     1     -46.841 -52.319  15.210  1.00  0.00     0.000 C 
HETATM    8  C   UNL     1     -46.201 -51.254  14.326  1.00  0.00     0.003 C 
HETATM    9  C   UNL     1     -44.805 -51.673  13.870  1.00  0.00     0.039 C 
BRANCH   4  10
HETATM   10  O   UNL     1     -45.529 -52.922  11.943  1.00  0.00    -0.388 OA
HETATM   11  H   UNL     1     -45.905 -52.024  11.935  1.00  0.00     0.210 HD
ENDBRANCH   4  10
ENDBRANCH   3   4
ENDBRANCH   1   3
BRANCH   1  12
HETATM   12  C   UNL     1     -41.352 -52.349  11.930  1.00  0.00     0.291 C 
BRANCH  12  13
HETATM   13  C   UNL     1     -41.011 -50.857  11.967  1.00  0.00     0.178 C 
BRANCH  13  14
HETATM   14  N   UNL     1     -39.576 -50.649  12.008  1.00  0.00    -0.302 N 
HETATM   15  C   UNL     1     -38.716 -51.058  12.984  1.00  0.00     0.111 A 
HETATM   16  C   UNL     1     -37.470 -50.633  12.587  1.00  0.00     0.037 A 
HETATM   17  C   UNL     1     -37.688 -49.977  11.364  1.00  0.00     0.108 A 
HETATM   18  N   UNL     1     -38.973 -49.986  11.002  1.00  0.00    -0.310 N 
ATOM     19  HN  UNL     1     -39.397 -49.586  10.165  1.00  0.00     0.186 HD
ENDBRANCH  13  14
ENDBRANCH  12  13
ENDBRANCH   1  12
TORSDOF 6
ENDMDL
MODEL 3
REMARK VINA RESULT:      -5.4      1.906      2.332
REMARK  6 active torsions:
REMARK  status: ('A' for Active; 'I' for Inactive)
REMARK    1  A    between atoms: O_1  and  C_2 
REMARK    2  A    between atoms: C_2  and  C_3 
REMARK    3  A    between atoms: C_3  and  N_4 
REMARK    4  A    between atoms: N_4  and  C_5 
REMARK    5  A    between atoms: C_5  and  C_6 
REMARK    6  A    between atoms: C_6  and  N_7 
ROOT
HETATM    1  N   UNL     1     -40.757 -50.509  11.092  1.00  0.00     0.087 N 
HETATM    2  H   UNL     1     -41.756 -50.697  10.989  1.00  0.00     0.316 HD
ENDROOT
BRANCH   1   3
HETATM    3  C   UNL     1     -40.289 -51.229  12.292  1.00  0.00     0.307 C 
BRANCH   3   4
HETATM    4  C   UNL     1     -41.040 -52.564  12.517  1.00  0.00     0.084 C 
HETATM    5  C   UNL     1     -40.747 -53.153  13.912  1.00  0.00     0.039 C 
HETATM    6  C   UNL     1     -41.588 -54.395  14.206  1.00  0.00     0.003 C 
HETATM    7  C   UNL     1     -43.076 -54.115  14.032  1.00  0.00     0.000 C 
HETATM    8  C   UNL     1     -43.383 -53.565  12.643  1.00  0.00     0.003 C 
HETATM    9  C   UNL     1     -42.551 -52.321  12.341  1.00  0.00     0.039 C 
BRANCH   4  10
HETATM   10  O   UNL     1     -40.621 -53.498  11.512  1.00  0.00    -0.388 OA
HETATM   11  H   UNL     1     -41.347 -53.554  10.867  1.00  0.00     0.210 HD
ENDBRANCH   4  10
ENDBRANCH   3   4
ENDBRANCH   1   3
BRANCH   1  12
HETATM   12  C   UNL     1     -40.599 -49.051  11.239  1.00  0.00     0.291 C 
BRANCH  12  13
HETATM   13  C   UNL     1     -41.636 -48.219  10.479  1.00  0.00     0.178 C 
BRANCH  13  14
HETATM   14  N   UNL     1     -41.381 -46.799  10.633  1.00  0.00    -0.302 N 
HETATM   15  C   UNL     1     -42.268 -45.846  11.039  1.00  0.00     0.111 A 
HETATM   16  C   UNL     1     -41.575 -44.659  11.027  1.00  0.00     0.037 A 
HETATM   17  C   UNL     1     -40.282 -45.004  10.597  1.00  0.00     0.108 A 
HETATM   18  N   UNL     1     -40.156 -46.311  10.357  1.00  0.00    -0.310 N 
ATOM     19  HN  UNL     1     -39.330 -46.819  10.041  1.00  0.00     0.186 HD
ENDBRANCH  13  14
ENDBRANCH  12  13
ENDBRANCH   1  12
TORSDOF 6
ENDMDL
MODEL 4
REMARK VINA RESULT:      -5.4      2.936      4.057
REMARK  6 active torsions:
REMARK  status: ('A' for Active; 'I' for Inactive)
REMARK    1  A    between atoms: O_1  and  C_2 
REMARK    2  A    between atoms: C_2  and  C_3 
REMARK    3  A    between atoms: C_3  and  N_4 
REMARK    4  A    between atoms: N_4  and  C_5 
REMARK    5  A    between atoms: C_5  and  C_6 
REMARK    6  A    between atoms: C_6  and  N_7 
ROOT
HETATM    1  N   UNL     1     -42.756 -52.326  12.965  1.00  0.00     0.087 N 
HETATM    2  H   UNL     1     -42.295 -52.917  13.660  1.00  0.00     0.316 HD
ENDROOT
BRANCH   1   3
HETATM    3  C   UNL     1     -43.791 -53.142  12.302  1.00  0.00     0.307 C 
BRANCH   3   4
HETATM    4  C   UNL     1     -45.203 -52.913  12.898  1.00  0.00     0.084 C 
HETATM    5  C   UNL     1     -45.592 -54.036  13.881  1.00  0.00     0.039 C 
HETATM    6  C   UNL     1     -46.919 -53.755  14.585  1.00  0.00     0.003 C 
HETATM    7  C   UNL     1     -46.906 -52.399  15.281  1.00  0.00     0.000 C 
HETATM    8  C   UNL     1     -46.557 -51.277  14.309  1.00  0.00     0.003 C 
HETATM    9  C   UNL     1     -45.230 -51.545  13.603  1.00  0.00     0.039 C 
BRANCH   4  10
HETATM   10  O   UNL     1     -46.151 -52.877  11.822  1.00  0.00    -0.388 OA
HETATM   11  H   UNL     1     -46.465 -51.958  11.761  1.00  0.00     0.210 HD
ENDBRANCH   4  10
ENDBRANCH   3   4
ENDBRANCH   1   3
BRANCH   1  12
HETATM   12  C   UNL     1     -41.722 -51.885  12.011  1.00  0.00     0.291 C 
BRANCH  12  13
HETATM   13  C   UNL     1     -41.071 -50.543  12.356  1.00  0.00     0.178 C 
BRANCH  13  14
HETATM   14  N   UNL     1     -41.732 -49.449  11.671  1.00  0.00    -0.302 N 
HETATM   15  C   UNL     1     -42.840 -48.770  12.087  1.00  0.00     0.111 A 
HETATM   16  C   UNL     1     -43.092 -47.832  11.114  1.00  0.00     0.037 A 
HETATM   17  C   UNL     1     -42.083 -48.030  10.156  1.00  0.00     0.108 A 
HETATM   18  N   UNL     1     -41.247 -49.014  10.491  1.00  0.00    -0.310 N 
ATOM     19  HN  UNL     1     -40.435 -49.356   9.978  1.00  0.00     0.186 HD
ENDBRANCH  13  14
ENDBRANCH  12  13
ENDBRANCH   1  12
TORSDOF 6
ENDMDL
MODEL 5
REMARK VINA RESULT:      -5.2      2.726      5.716
REMARK  6 active torsions:
REMARK  status: ('A' for Active; 'I' for Inactive)
REMARK    1  A    between atoms: O_1  and  C_2 
REMARK    2  A    between atoms: C_2  and  C_3 
REMARK    3  A    between atoms: C_3  and  N_4 
REMARK    4  A    between atoms: N_4  and  C_5 
REMARK    5  A    between atoms: C_5  and  C_6 
REMARK    6  A    between atoms: C_6  and  N_7 
ROOT
HETATM    1  N   UNL     1     -42.031 -51.737  11.799  1.00  0.00     0.087 N 
HETATM    2  H   UNL     1     -41.498 -52.230  11.080  1.00  0.00     0.316 HD
ENDROOT
BRANCH   1   3
HETATM    3  C   UNL     1     -41.141 -50.728  12.403  1.00  0.00     0.307 C 
BRANCH   3   4
HETATM    4  C   UNL     1     -40.948 -49.486  11.498  1.00  0.00     0.084 C 
HETATM    5  C   UNL     1     -42.281 -48.752  11.250  1.00  0.00     0.039 C 
HETATM    6  C   UNL     1     -42.089 -47.447  10.477  1.00  0.00     0.003 C 
HETATM    7  C   UNL     1     -41.082 -46.534  11.165  1.00  0.00     0.000 C 
HETATM    8  C   UNL     1     -39.747 -47.239  11.384  1.00  0.00     0.003 C 
HETATM    9  C   UNL     1     -39.926 -48.542  12.160  1.00  0.00     0.039 C 
BRANCH   4  10
HETATM   10  O   UNL     1     -40.405 -49.918  10.242  1.00  0.00    -0.388 OA
HETATM   11  H   UNL     1     -41.057 -49.676   9.562  1.00  0.00     0.210 HD
ENDBRANCH   4  10
ENDBRANCH   3   4
ENDBRANCH   1   3
BRANCH   1  12
HETATM   12  C   UNL     1     -42.460 -52.743  12.790  1.00  0.00     0.291 C 
BRANCH  12  13
HETATM   13  C   UNL     1     -43.777 -53.446  12.452  1.00  0.00     0.178 C 
BRANCH  13  14
HETATM   14  N   UNL     1     -44.917 -52.644  12.855  1.00  0.00    -0.302 N 
HETATM   15  C   UNL     1     -45.172 -52.148  14.099  1.00  0.00     0.111 A 
HETATM   16  C   UNL     1     -46.357 -51.459  13.993  1.00  0.00     0.037 A 
HETATM   17  C   UNL     1     -46.735 -51.604  12.647  1.00  0.00     0.108 A 
HETATM   18  N   UNL     1     -45.858 -52.324  11.945  1.00  0.00    -0.310 N 
ATOM     19  HN  UNL     1     -45.891 -52.573  10.956  1.00  0.00     0.186 HD
ENDBRANCH  13  14
ENDBRANCH  12  13
ENDBRANCH   1  12
TORSDOF 6
ENDMDL
MODEL 6
REMARK VINA RESULT:      -5.1      3.725      5.683
REMARK  6 active torsions:
REMARK  status: ('A' for Active; 'I' for Inactive)
REMARK    1  A    between atoms: O_1  and  C_2 
REMARK    2  A    between atoms: C_2  and  C_3 
REMARK    3  A    between atoms: C_3  and  N_4 
REMARK    4  A    between atoms: N_4  and  C_5 
REMARK    5  A    between atoms: C_5  and  C_6 
REMARK    6  A    between atoms: C_6  and  N_7 
ROOT
HETATM    1  N   UNL     1     -42.797 -54.031  15.013  1.00  0.00     0.087 N 
HETATM    2  H   UNL     1     -42.825 -54.279  16.004  1.00  0.00     0.316 HD
ENDROOT
BRANCH   1   3
HETATM    3  C   UNL     1     -43.780 -54.880  14.312  1.00  0.00     0.307 C 
BRANCH   3   4
HETATM    4  C   UNL     1     -45.093 -54.126  13.985  1.00  0.00     0.084 C 
HETATM    5  C   UNL     1     -45.606 -53.327  15.200  1.00  0.00     0.039 C 
HETATM    6  C   UNL     1     -46.821 -52.465  14.856  1.00  0.00     0.003 C 
HETATM    7  C   UNL     1     -46.536 -51.544  13.677  1.00  0.00     0.000 C 
HETATM    8  C   UNL     1     -46.060 -52.327  12.458  1.00  0.00     0.003 C 
HETATM    9  C   UNL     1     -44.844 -53.189  12.789  1.00  0.00     0.039 C 
BRANCH   4  10
HETATM   10  O   UNL     1     -46.085 -55.086  13.598  1.00  0.00    -0.388 OA
HETATM   11  H   UNL     1     -46.858 -54.931  14.168  1.00  0.00     0.210 HD
ENDBRANCH   4  10
ENDBRANCH   3   4
ENDBRANCH   1   3
BRANCH   1  12
HETATM   12  C   UNL     1     -41.425 -54.286  14.537  1.00  0.00     0.291 C 
BRANCH  12  13
HETATM   13  C   UNL     1     -41.241 -54.140  13.024  1.00  0.00     0.178 C 
BRANCH  13  14
HETATM   14  N   UNL     1     -40.913 -52.772  12.667  1.00  0.00    -0.302 N 
HETATM   15  C   UNL     1     -40.241 -51.864  13.430  1.00  0.00     0.111 A 
HETATM   16  C   UNL     1     -40.174 -50.716  12.676  1.00  0.00     0.037 A 
HETATM   17  C   UNL     1     -40.837 -51.036  11.479  1.00  0.00     0.108 A 
HETATM   18  N   UNL     1     -41.288 -52.292  11.466  1.00  0.00    -0.310 N 
ATOM     19  HN  UNL     1     -41.796 -52.773  10.723  1.00  0.00     0.186 HD
ENDBRANCH  13  14
ENDBRANCH  12  13
ENDBRANCH   1  12
TORSDOF 6
ENDMDL
MODEL 7
REMARK VINA RESULT:      -5.1      3.850      5.433
REMARK  6 active torsions:
REMARK  status: ('A' for Active; 'I' for Inactive)
REMARK    1  A    between atoms: O_1  and  C_2 
REMARK    2  A    between atoms: C_2  and  C_3 
REMARK    3  A    between atoms: C_3  and  N_4 
REMARK    4  A    between atoms: N_4  and  C_5 
REMARK    5  A    between atoms: C_5  and  C_6 
REMARK    6  A    between atoms: C_6  and  N_7 
ROOT
HETATM    1  N   UNL     1     -43.488 -53.263  11.936  1.00  0.00     0.087 N 
HETATM    2  H   UNL     1     -43.154 -54.155  12.305  1.00  0.00     0.316 HD
ENDROOT
BRANCH   1   3
HETATM    3  C   UNL     1     -42.573 -52.210  12.418  1.00  0.00     0.307 C 
BRANCH   3   4
HETATM    4  C   UNL     1     -41.147 -52.744  12.700  1.00  0.00     0.084 C 
HETATM    5  C   UNL     1     -40.259 -51.671  13.363  1.00  0.00     0.039 C 
HETATM    6  C   UNL     1     -38.895 -52.222  13.777  1.00  0.00     0.003 C 
HETATM    7  C   UNL     1     -39.036 -53.445  14.676  1.00  0.00     0.000 C 
HETATM    8  C   UNL     1     -39.884 -54.528  14.015  1.00  0.00     0.003 C 
HETATM    9  C   UNL     1     -41.251 -53.989  13.601  1.00  0.00     0.039 C 
BRANCH   4  10
HETATM   10  O   UNL     1     -40.555 -53.145  11.456  1.00  0.00    -0.388 OA
HETATM   11  H   UNL     1     -40.651 -52.390  10.849  1.00  0.00     0.210 HD
ENDBRANCH   4  10
ENDBRANCH   3   4
ENDBRANCH   1   3
BRANCH   1  12
HETATM   12  C   UNL     1     -44.857 -53.064  12.448  1.00  0.00     0.291 C 
BRANCH  12  13
HETATM   13  C   UNL     1     -45.160 -53.799  13.756  1.00  0.00     0.178 C 
BRANCH  13  14
HETATM   14  N   UNL     1     -45.894 -52.950  14.675  1.00  0.00    -0.302 N 
HETATM   15  C   UNL     1     -46.528 -51.778  14.381  1.00  0.00     0.111 A 
HETATM   16  C   UNL     1     -47.077 -51.342  15.563  1.00  0.00     0.037 A 
HETATM   17  C   UNL     1     -46.715 -52.318  16.507  1.00  0.00     0.108 A 
HETATM   18  N   UNL     1     -45.995 -53.305  15.970  1.00  0.00    -0.310 N 
ATOM     19  HN  UNL     1     -45.612 -54.131  16.431  1.00  0.00     0.186 HD
ENDBRANCH  13  14
ENDBRANCH  12  13
ENDBRANCH   1  12
TORSDOF 6
ENDMDL
MODEL 8
REMARK VINA RESULT:      -5.1      4.042      6.613
REMARK  6 active torsions:
REMARK  status: ('A' for Active; 'I' for Inactive)
REMARK    1  A    between atoms: O_1  and  C_2 
REMARK    2  A    between atoms: C_2  and  C_3 
REMARK    3  A    between atoms: C_3  and  N_4 
REMARK    4  A    between atoms: N_4  and  C_5 
REMARK    5  A    between atoms: C_5  and  C_6 
REMARK    6  A    between atoms: C_6  and  N_7 
ROOT
HETATM    1  N   UNL     1     -43.127 -52.012  12.355  1.00  0.00     0.087 N 
HETATM    2  H   UNL     1     -43.526 -51.397  13.067  1.00  0.00     0.316 HD
ENDROOT
BRANCH   1   3
HETATM    3  C   UNL     1     -44.028 -53.171  12.210  1.00  0.00     0.307 C 
BRANCH   3   4
HETATM    4  C   UNL     1     -45.385 -52.964  12.928  1.00  0.00     0.084 C 
HETATM    5  C   UNL     1     -45.672 -54.094  13.938  1.00  0.00     0.039 C 
HETATM    6  C   UNL     1     -46.936 -53.832  14.757  1.00  0.00     0.003 C 
HETATM    7  C   UNL     1     -46.880 -52.478  15.453  1.00  0.00     0.000 C 
HETATM    8  C   UNL     1     -46.632 -51.349  14.458  1.00  0.00     0.003 C 
HETATM    9  C   UNL     1     -45.368 -51.597  13.638  1.00  0.00     0.039 C 
BRANCH   4  10
HETATM   10  O   UNL     1     -46.424 -52.938  11.940  1.00  0.00    -0.388 OA
HETATM   11  H   UNL     1     -46.987 -53.714  12.111  1.00  0.00     0.210 HD
ENDBRANCH   4  10
ENDBRANCH   3   4
ENDBRANCH   1   3
BRANCH   1  12
HETATM   12  C   UNL     1     -41.792 -52.422  12.830  1.00  0.00     0.291 C 
BRANCH  12  13
HETATM   13  C   UNL     1     -41.551 -52.191  14.324  1.00  0.00     0.178 C 
BRANCH  13  14
HETATM   14  N   UNL     1     -42.127 -53.259  15.118  1.00  0.00    -0.302 N 
HETATM   15  C   UNL     1     -41.922 -54.599  14.962  1.00  0.00     0.111 A 
HETATM   16  C   UNL     1     -42.674 -55.209  15.938  1.00  0.00     0.037 A 
HETATM   17  C   UNL     1     -43.296 -54.152  16.624  1.00  0.00     0.108 A 
HETATM   18  N   UNL     1     -42.963 -52.958  16.130  1.00  0.00    -0.310 N 
ATOM     19  HN  UNL     1     -43.269 -52.036  16.444  1.00  0.00     0.186 HD
ENDBRANCH  13  14
ENDBRANCH  12  13
ENDBRANCH   1  12
TORSDOF 6
ENDMDL
MODEL 9
REMARK VINA RESULT:      -4.9      3.409      5.447
REMARK  6 active torsions:
REMARK  status: ('A' for Active; 'I' for Inactive)
REMARK    1  A    between atoms: O_1  and  C_2 
REMARK    2  A    between atoms: C_2  and  C_3 
REMARK    3  A    between atoms: C_3  and  N_4 
REMARK    4  A    between atoms: N_4  and  C_5 
REMARK    5  A    between atoms: C_5  and  C_6 
REMARK    6  A    between atoms: C_6  and  N_7 
ROOT
HETATM    1  N   UNL     1     -42.236 -52.328  11.753  1.00  0.00     0.087 N 
HETATM    2  H   UNL     1     -41.319 -52.721  11.533  1.00  0.00     0.316 HD
ENDROOT
BRANCH   1   3
HETATM    3  C   UNL     1     -42.019 -51.009  12.376  1.00  0.00     0.307 C 
BRANCH   3   4
HETATM    4  C   UNL     1     -40.672 -50.367  11.958  1.00  0.00     0.084 C 
HETATM    5  C   UNL     1     -40.584 -48.892  12.401  1.00  0.00     0.039 C 
HETATM    6  C   UNL     1     -39.210 -48.284  12.122  1.00  0.00     0.003 C 
HETATM    7  C   UNL     1     -38.096 -49.112  12.753  1.00  0.00     0.000 C 
HETATM    8  C   UNL     1     -38.152 -50.565  12.294  1.00  0.00     0.003 C 
HETATM    9  C   UNL     1     -39.520 -51.184  12.571  1.00  0.00     0.039 C 
BRANCH   4  10
HETATM   10  O   UNL     1     -40.557 -50.440  10.530  1.00  0.00    -0.388 OA
HETATM   11  H   UNL     1     -39.605 -50.417  10.328  1.00  0.00     0.210 HD
ENDBRANCH   4  10
ENDBRANCH   3   4
ENDBRANCH   1   3
BRANCH   1  12
HETATM   12  C   UNL     1     -42.900 -53.262  12.682  1.00  0.00     0.291 C 
BRANCH  12  13
HETATM   13  C   UNL     1     -44.403 -53.430  12.449  1.00  0.00     0.178 C 
BRANCH  13  14
HETATM   14  N   UNL     1     -45.171 -52.645  13.397  1.00  0.00    -0.302 N 
HETATM   15  C   UNL     1     -46.325 -51.961  13.151  1.00  0.00     0.111 A 
HETATM   16  C   UNL     1     -46.675 -51.375  14.344  1.00  0.00     0.037 A 
HETATM   17  C   UNL     1     -45.667 -51.765  15.243  1.00  0.00     0.108 A 
HETATM   18  N   UNL     1     -44.747 -52.543  14.671  1.00  0.00    -0.310 N 
ATOM     19  HN  UNL     1     -43.919 -52.962  15.097  1.00  0.00     0.186 HD
ENDBRANCH  13  14
ENDBRANCH  12  13
ENDBRANCH   1  12
TORSDOF 6
ENDMDL
