MODEL 1
REMARK VINA RESULT:      -6.2      0.000      0.000
REMARK  3 active torsions:
REMARK  status: ('A' for Active; 'I' for Inactive)
REMARK    1  A    between atoms: C_8  and  N_9 
REMARK       I    between atoms: N_9  and  C_10 
REMARK       I    between atoms: C_10  and  N_12 
REMARK    2  A    between atoms: N_12  and  C_13 
REMARK    3  A    between atoms: C_13  and  C_14 
REMARK       I    between atoms: C_14  and  N_16 
ROOT
HETATM    1  N   UNL     1     -42.050 -52.417  11.773  1.00  0.00    -0.308 N 
HETATM    2  C   UNL     1     -41.662 -51.123  12.056  1.00  0.00     0.321 C 
HETATM    3  O   UNL     1     -41.938 -50.497  13.077  1.00  0.00    -0.247 OA
HETATM    4  N   UNL     1     -40.924 -50.502  11.074  1.00  0.00    -0.334 N 
HETATM    5  H   UNL     1     -41.764 -52.797  10.883  1.00  0.00     0.170 HD
HETATM    6  H   UNL     1     -40.385 -51.041  10.410  1.00  0.00     0.164 HD
ENDROOT
BRANCH   1   7
HETATM    7  C   UNL     1     -42.869 -53.240  12.618  1.00  0.00     0.044 A 
HETATM    8  C   UNL     1     -42.307 -54.026  13.641  1.00  0.00    -0.020 A 
HETATM    9  C   UNL     1     -40.844 -54.102  13.961  1.00  0.00     0.052 C 
HETATM   10  C   UNL     1     -43.175 -54.812  14.408  1.00  0.00     0.096 A 
HETATM   11  N   UNL     1     -44.517 -54.875  14.246  1.00  0.00    -0.375 N 
HETATM   12  C   UNL     1     -45.025 -54.115  13.268  1.00  0.00     0.090 A 
ATOM     13  HN  UNL     1     -45.106 -55.466  14.833  1.00  0.00     0.164 HD
HETATM   14  C   UNL     1     -44.257 -53.301  12.450  1.00  0.00     0.047 A 
ENDBRANCH   1   7
BRANCH   4  15
HETATM   15  C   UNL     1     -40.447 -49.154  11.389  1.00  0.00     0.227 C 
BRANCH  15  16
HETATM   16  C   UNL     1     -41.205 -47.979  10.768  1.00  0.00     0.237 C 
HETATM   17  O   UNL     1     -42.078 -48.159   9.916  1.00  0.00    -0.272 OA
HETATM   18  N   UNL     1     -40.823 -46.717  11.200  1.00  0.00    -0.351 N 
HETATM   19  C   UNL     1     -39.809 -46.397  12.197  1.00  0.00     0.126 C 
HETATM   20  C   UNL     1     -41.450 -45.506  10.709  1.00  0.00     0.126 C 
HETATM   21  C   UNL     1     -39.597 -44.885  12.098  1.00  0.00     0.021 C 
HETATM   22  C   UNL     1     -40.357 -44.461  10.845  1.00  0.00     0.021 C 
ENDBRANCH  15  16
ENDBRANCH   4  15
TORSDOF 3
ENDMDL
MODEL 2
REMARK VINA RESULT:      -6.1      2.431      7.446
REMARK  3 active torsions:
REMARK  status: ('A' for Active; 'I' for Inactive)
REMARK    1  A    between atoms: C_8  and  N_9 
REMARK       I    between atoms: N_9  and  C_10 
REMARK       I    between atoms: C_10  and  N_12 
REMARK    2  A    between atoms: N_12  and  C_13 
REMARK    3  A    between atoms: C_13  and  C_14 
REMARK       I    between atoms: C_14  and  N_16 
ROOT
HETATM    1  N   UNL     1     -41.577 -48.307   9.863  1.00  0.00    -0.308 N 
HETATM    2  C   UNL     1     -41.203 -48.977  11.011  1.00  0.00     0.321 C 
HETATM    3  O   UNL     1     -41.496 -48.654  12.159  1.00  0.00    -0.247 OA
HETATM    4  N   UNL     1     -40.410 -50.084  10.812  1.00  0.00    -0.334 N 
HETATM    5  H   UNL     1     -41.246 -48.679   8.986  1.00  0.00     0.170 HD
HETATM    6  H   UNL     1     -40.429 -50.587   9.935  1.00  0.00     0.164 HD
ENDROOT
BRANCH   1   7
HETATM    7  C   UNL     1     -42.353 -47.099   9.825  1.00  0.00     0.044 A 
HETATM    8  C   UNL     1     -43.399 -46.930   8.899  1.00  0.00    -0.020 A 
HETATM    9  C   UNL     1     -43.815 -47.946   7.877  1.00  0.00     0.052 C 
HETATM   10  C   UNL     1     -44.095 -45.715   8.918  1.00  0.00     0.096 A 
HETATM   11  N   UNL     1     -43.842 -44.687   9.761  1.00  0.00    -0.375 N 
HETATM   12  C   UNL     1     -42.844 -44.876  10.633  1.00  0.00     0.090 A 
ATOM     13  HN  UNL     1     -44.380 -43.821   9.734  1.00  0.00     0.164 HD
HETATM   14  C   UNL     1     -42.093 -46.039  10.699  1.00  0.00     0.047 A 
ENDBRANCH   1   7
BRANCH   4  15
HETATM   15  C   UNL     1     -40.062 -50.844  12.015  1.00  0.00     0.227 C 
BRANCH  15  16
HETATM   16  C   UNL     1     -40.866 -52.115  12.298  1.00  0.00     0.237 C 
HETATM   17  O   UNL     1     -41.927 -52.345  11.716  1.00  0.00    -0.272 OA
HETATM   18  N   UNL     1     -40.339 -52.959  13.265  1.00  0.00    -0.351 N 
HETATM   19  C   UNL     1     -39.099 -52.782  14.009  1.00  0.00     0.126 C 
HETATM   20  C   UNL     1     -40.981 -54.204  13.641  1.00  0.00     0.126 C 
HETATM   21  C   UNL     1     -39.129 -53.835  15.119  1.00  0.00     0.021 C 
HETATM   22  C   UNL     1     -40.542 -54.408  15.080  1.00  0.00     0.021 C 
ENDBRANCH  15  16
ENDBRANCH   4  15
TORSDOF 3
ENDMDL
MODEL 3
REMARK VINA RESULT:      -6.1      2.171      6.870
REMARK  3 active torsions:
REMARK  status: ('A' for Active; 'I' for Inactive)
REMARK    1  A    between atoms: C_8  and  N_9 
REMARK       I    between atoms: N_9  and  C_10 
REMARK       I    between atoms: C_10  and  N_12 
REMARK    2  A    between atoms: N_12  and  C_13 
REMARK    3  A    between atoms: C_13  and  C_14 
REMARK       I    between atoms: C_14  and  N_16 
ROOT
HETATM    1  N   UNL     1     -41.132 -51.295  11.436  1.00  0.00    -0.308 N 
HETATM    2  C   UNL     1     -41.788 -51.851  12.517  1.00  0.00     0.321 C 
HETATM    3  O   UNL     1     -42.057 -51.275  13.568  1.00  0.00    -0.247 OA
HETATM    4  N   UNL     1     -42.132 -53.176  12.377  1.00  0.00    -0.334 N 
HETATM    5  H   UNL     1     -40.962 -51.895  10.644  1.00  0.00     0.170 HD
HETATM    6  H   UNL     1     -42.259 -53.586  11.462  1.00  0.00     0.164 HD
ENDROOT
BRANCH   1   7
HETATM    7  C   UNL     1     -40.630 -49.951  11.375  1.00  0.00     0.044 A 
HETATM    8  C   UNL     1     -39.312 -49.644  11.760  1.00  0.00    -0.020 A 
HETATM    9  C   UNL     1     -38.310 -50.639  12.266  1.00  0.00     0.052 C 
HETATM   10  C   UNL     1     -38.908 -48.305  11.685  1.00  0.00     0.096 A 
HETATM   11  N   UNL     1     -39.685 -47.280  11.267  1.00  0.00    -0.375 N 
HETATM   12  C   UNL     1     -40.933 -47.600  10.904  1.00  0.00     0.090 A 
ATOM     13  HN  UNL     1     -39.341 -46.320  11.231  1.00  0.00     0.164 HD
HETATM   14  C   UNL     1     -41.435 -48.892  10.940  1.00  0.00     0.047 A 
ENDBRANCH   1   7
BRANCH   4  15
HETATM   15  C   UNL     1     -42.888 -53.760  13.487  1.00  0.00     0.227 C 
BRANCH  15  16
HETATM   16  C   UNL     1     -44.411 -53.804  13.350  1.00  0.00     0.237 C 
HETATM   17  O   UNL     1     -44.959 -54.514  12.505  1.00  0.00    -0.272 OA
HETATM   18  N   UNL     1     -45.118 -52.976  14.210  1.00  0.00    -0.351 N 
HETATM   19  C   UNL     1     -44.572 -52.101  15.240  1.00  0.00     0.126 C 
HETATM   20  C   UNL     1     -46.567 -52.908  14.206  1.00  0.00     0.126 C 
HETATM   21  C   UNL     1     -45.738 -51.225  15.699  1.00  0.00     0.021 C 
HETATM   22  C   UNL     1     -46.857 -51.502  14.701  1.00  0.00     0.021 C 
ENDBRANCH  15  16
ENDBRANCH   4  15
TORSDOF 3
ENDMDL
MODEL 4
REMARK VINA RESULT:      -6.1      2.098      7.217
REMARK  3 active torsions:
REMARK  status: ('A' for Active; 'I' for Inactive)
REMARK    1  A    between atoms: C_8  and  N_9 
REMARK       I    between atoms: N_9  and  C_10 
REMARK       I    between atoms: C_10  and  N_12 
REMARK    2  A    between atoms: N_12  and  C_13 
REMARK    3  A    between atoms: C_13  and  C_14 
REMARK       I    between atoms: C_14  and  N_16 
ROOT
HETATM    1  N   UNL     1     -41.731 -48.542   9.949  1.00  0.00    -0.308 N 
HETATM    2  C   UNL     1     -41.595 -49.193  11.159  1.00  0.00     0.321 C 
HETATM    3  O   UNL     1     -42.167 -48.893  12.204  1.00  0.00    -0.247 OA
HETATM    4  N   UNL     1     -40.711 -50.248  11.162  1.00  0.00    -0.334 N 
HETATM    5  H   UNL     1     -41.181 -48.888   9.177  1.00  0.00     0.170 HD
HETATM    6  H   UNL     1     -40.494 -50.746  10.310  1.00  0.00     0.164 HD
ENDROOT
BRANCH   1   7
HETATM    7  C   UNL     1     -42.548 -47.384   9.719  1.00  0.00     0.044 A 
HETATM    8  C   UNL     1     -42.142 -46.105  10.142  1.00  0.00    -0.020 A 
HETATM    9  C   UNL     1     -40.860 -45.803  10.859  1.00  0.00     0.052 C 
HETATM   10  C   UNL     1     -43.007 -45.032   9.893  1.00  0.00     0.096 A 
HETATM   11  N   UNL     1     -44.206 -45.127   9.272  1.00  0.00    -0.375 N 
HETATM   12  C   UNL     1     -44.567 -46.355   8.878  1.00  0.00     0.090 A 
ATOM     13  HN  UNL     1     -44.800 -44.313   9.115  1.00  0.00     0.164 HD
HETATM   14  C   UNL     1     -43.787 -47.484   9.075  1.00  0.00     0.047 A 
ENDBRANCH   1   7
BRANCH   4  15
HETATM   15  C   UNL     1     -40.608 -50.991  12.421  1.00  0.00     0.227 C 
BRANCH  15  16
HETATM   16  C   UNL     1     -41.138 -52.426  12.432  1.00  0.00     0.237 C 
HETATM   17  O   UNL     1     -40.458 -53.364  12.011  1.00  0.00    -0.272 OA
HETATM   18  N   UNL     1     -42.430 -52.589  12.912  1.00  0.00    -0.351 N 
HETATM   19  C   UNL     1     -43.315 -51.554  13.431  1.00  0.00     0.126 C 
HETATM   20  C   UNL     1     -43.070 -53.888  12.991  1.00  0.00     0.126 C 
HETATM   21  C   UNL     1     -44.688 -52.214  13.564  1.00  0.00     0.021 C 
HETATM   22  C   UNL     1     -44.548 -53.562  12.865  1.00  0.00     0.021 C 
ENDBRANCH  15  16
ENDBRANCH   4  15
TORSDOF 3
ENDMDL
MODEL 5
REMARK VINA RESULT:      -6.1      2.175      7.350
REMARK  3 active torsions:
REMARK  status: ('A' for Active; 'I' for Inactive)
REMARK    1  A    between atoms: C_8  and  N_9 
REMARK       I    between atoms: N_9  and  C_10 
REMARK       I    between atoms: C_10  and  N_12 
REMARK    2  A    between atoms: N_12  and  C_13 
REMARK    3  A    between atoms: C_13  and  C_14 
REMARK       I    between atoms: C_14  and  N_16 
ROOT
HETATM    1  N   UNL     1     -41.663 -49.487  10.991  1.00  0.00    -0.308 N 
HETATM    2  C   UNL     1     -42.046 -50.184  12.119  1.00  0.00     0.321 C 
HETATM    3  O   UNL     1     -42.254 -49.698  13.228  1.00  0.00    -0.247 OA
HETATM    4  N   UNL     1     -42.168 -51.545  11.956  1.00  0.00    -0.334 N 
HETATM    5  H   UNL     1     -41.508 -50.023  10.150  1.00  0.00     0.170 HD
HETATM    6  H   UNL     1     -42.354 -51.945  11.046  1.00  0.00     0.164 HD
ENDROOT
BRANCH   1   7
HETATM    7  C   UNL     1     -41.419 -48.073  10.934  1.00  0.00     0.044 A 
HETATM    8  C   UNL     1     -42.390 -47.182  10.441  1.00  0.00    -0.020 A 
HETATM    9  C   UNL     1     -43.743 -47.580   9.931  1.00  0.00     0.052 C 
HETATM   10  C   UNL     1     -42.064 -45.820  10.404  1.00  0.00     0.096 A 
HETATM   11  N   UNL     1     -40.886 -45.291  10.809  1.00  0.00    -0.375 N 
HETATM   12  C   UNL     1     -39.982 -46.160  11.277  1.00  0.00     0.090 A 
ATOM     13  HN  UNL     1     -40.699 -44.289  10.762  1.00  0.00     0.164 HD
HETATM   14  C   UNL     1     -40.202 -47.527  11.356  1.00  0.00     0.047 A 
ENDBRANCH   1   7
BRANCH   4  15
HETATM   15  C   UNL     1     -42.639 -52.289  13.126  1.00  0.00     0.227 C 
BRANCH  15  16
HETATM   16  C   UNL     1     -44.084 -52.792  13.101  1.00  0.00     0.237 C 
HETATM   17  O   UNL     1     -44.487 -53.539  12.208  1.00  0.00    -0.272 OA
HETATM   18  N   UNL     1     -44.903 -52.327  14.121  1.00  0.00    -0.351 N 
HETATM   19  C   UNL     1     -44.528 -51.446  15.220  1.00  0.00     0.126 C 
HETATM   20  C   UNL     1     -46.294 -52.716  14.237  1.00  0.00     0.126 C 
HETATM   21  C   UNL     1     -45.842 -51.035  15.886  1.00  0.00     0.021 C 
HETATM   22  C   UNL     1     -46.934 -51.536  14.947  1.00  0.00     0.021 C 
ENDBRANCH  15  16
ENDBRANCH   4  15
TORSDOF 3
ENDMDL
MODEL 6
REMARK VINA RESULT:      -6.0      2.683      3.755
REMARK  3 active torsions:
REMARK  status: ('A' for Active; 'I' for Inactive)
REMARK    1  A    between atoms: C_8  and  N_9 
REMARK       I    between atoms: N_9  and  C_10 
REMARK       I    between atoms: C_10  and  N_12 
REMARK    2  A    between atoms: N_12  and  C_13 
REMARK    3  A    between atoms: C_13  and  C_14 
REMARK       I    between atoms: C_14  and  N_16 
ROOT
HETATM    1  N   UNL     1     -44.503 -51.617  12.665  1.00  0.00    -0.308 N 
HETATM    2  C   UNL     1     -43.414 -50.955  13.196  1.00  0.00     0.321 C 
HETATM    3  O   UNL     1     -42.842 -51.240  14.245  1.00  0.00    -0.247 OA
HETATM    4  N   UNL     1     -42.976 -49.870  12.472  1.00  0.00    -0.334 N 
HETATM    5  H   UNL     1     -44.882 -51.257  11.802  1.00  0.00     0.170 HD
HETATM    6  H   UNL     1     -43.156 -49.800  11.480  1.00  0.00     0.164 HD
ENDROOT
BRANCH   1   7
HETATM    7  C   UNL     1     -45.167 -52.737  13.269  1.00  0.00     0.044 A 
HETATM    8  C   UNL     1     -46.268 -52.561  14.127  1.00  0.00    -0.020 A 
HETATM    9  C   UNL     1     -46.859 -51.235  14.505  1.00  0.00     0.052 C 
HETATM   10  C   UNL     1     -46.846 -53.706  14.688  1.00  0.00     0.096 A 
HETATM   11  N   UNL     1     -46.430 -54.975  14.468  1.00  0.00    -0.375 N 
HETATM   12  C   UNL     1     -45.383 -55.115  13.646  1.00  0.00     0.090 A 
ATOM     13  HN  UNL     1     -46.888 -55.777  14.902  1.00  0.00     0.164 HD
HETATM   14  C   UNL     1     -44.737 -54.049  13.038  1.00  0.00     0.047 A 
ENDBRANCH   1   7
BRANCH   4  15
HETATM   15  C   UNL     1     -41.780 -49.200  12.987  1.00  0.00     0.227 C 
BRANCH  15  16
HETATM   16  C   UNL     1     -40.607 -49.019  12.020  1.00  0.00     0.237 C 
HETATM   17  O   UNL     1     -40.750 -48.448  10.938  1.00  0.00    -0.272 OA
HETATM   18  N   UNL     1     -39.398 -49.564  12.430  1.00  0.00    -0.351 N 
HETATM   19  C   UNL     1     -39.122 -50.255  13.683  1.00  0.00     0.126 C 
HETATM   20  C   UNL     1     -38.194 -49.472  11.627  1.00  0.00     0.126 C 
HETATM   21  C   UNL     1     -37.737 -50.881  13.513  1.00  0.00     0.021 C 
HETATM   22  C   UNL     1     -37.401 -50.701  12.036  1.00  0.00     0.021 C 
ENDBRANCH  15  16
ENDBRANCH   4  15
TORSDOF 3
ENDMDL
MODEL 7
REMARK VINA RESULT:      -5.9      2.045      2.705
REMARK  3 active torsions:
REMARK  status: ('A' for Active; 'I' for Inactive)
REMARK    1  A    between atoms: C_8  and  N_9 
REMARK       I    between atoms: N_9  and  C_10 
REMARK       I    between atoms: C_10  and  N_12 
REMARK    2  A    between atoms: N_12  and  C_13 
REMARK    3  A    between atoms: C_13  and  C_14 
REMARK       I    between atoms: C_14  and  N_16 
ROOT
HETATM    1  N   UNL     1     -42.408 -52.656  11.843  1.00  0.00    -0.308 N 
HETATM    2  C   UNL     1     -41.769 -51.455  12.076  1.00  0.00     0.321 C 
HETATM    3  O   UNL     1     -41.922 -50.739  13.062  1.00  0.00    -0.247 OA
HETATM    4  N   UNL     1     -40.913 -51.042  11.080  1.00  0.00    -0.334 N 
HETATM    5  H   UNL     1     -42.197 -53.128  10.976  1.00  0.00     0.170 HD
HETATM    6  H   UNL     1     -40.489 -51.709  10.450  1.00  0.00     0.164 HD
ENDROOT
BRANCH   1   7
HETATM    7  C   UNL     1     -43.382 -53.258  12.710  1.00  0.00     0.044 A 
HETATM    8  C   UNL     1     -42.998 -54.084  13.782  1.00  0.00    -0.020 A 
HETATM    9  C   UNL     1     -41.582 -54.429  14.137  1.00  0.00     0.052 C 
HETATM   10  C   UNL     1     -44.013 -54.644  14.568  1.00  0.00     0.096 A 
HETATM   11  N   UNL     1     -45.339 -54.450  14.380  1.00  0.00    -0.375 N 
HETATM   12  C   UNL     1     -45.676 -53.658  13.355  1.00  0.00     0.090 A 
ATOM     13  HN  UNL     1     -46.039 -54.883  14.982  1.00  0.00     0.164 HD
HETATM   14  C   UNL     1     -44.753 -53.054  12.516  1.00  0.00     0.047 A 
ENDBRANCH   1   7
BRANCH   4  15
HETATM   15  C   UNL     1     -40.177 -49.804  11.343  1.00  0.00     0.227 C 
BRANCH  15  16
HETATM   16  C   UNL     1     -38.901 -49.911  12.180  1.00  0.00     0.237 C 
HETATM   17  O   UNL     1     -38.204 -50.928  12.158  1.00  0.00    -0.272 OA
HETATM   18  N   UNL     1     -38.608 -48.815  12.978  1.00  0.00    -0.351 N 
HETATM   19  C   UNL     1     -39.361 -47.571  13.078  1.00  0.00     0.126 C 
HETATM   20  C   UNL     1     -37.432 -48.763  13.824  1.00  0.00     0.126 C 
HETATM   21  C   UNL     1     -38.772 -46.827  14.278  1.00  0.00     0.021 C 
HETATM   22  C   UNL     1     -37.847 -47.835  14.952  1.00  0.00     0.021 C 
ENDBRANCH  15  16
ENDBRANCH   4  15
TORSDOF 3
ENDMDL
MODEL 8
REMARK VINA RESULT:      -5.8      1.610      7.700
REMARK  3 active torsions:
REMARK  status: ('A' for Active; 'I' for Inactive)
REMARK    1  A    between atoms: C_8  and  N_9 
REMARK       I    between atoms: N_9  and  C_10 
REMARK       I    between atoms: C_10  and  N_12 
REMARK    2  A    between atoms: N_12  and  C_13 
REMARK    3  A    between atoms: C_13  and  C_14 
REMARK       I    between atoms: C_14  and  N_16 
ROOT
HETATM    1  N   UNL     1     -40.623 -48.922  10.820  1.00  0.00    -0.308 N 
HETATM    2  C   UNL     1     -41.224 -49.955  11.511  1.00  0.00     0.321 C 
HETATM    3  O   UNL     1     -42.108 -49.836  12.356  1.00  0.00    -0.247 OA
HETATM    4  N   UNL     1     -40.745 -51.213  11.220  1.00  0.00    -0.334 N 
HETATM    5  H   UNL     1     -39.894 -49.169  10.167  1.00  0.00     0.170 HD
HETATM    6  H   UNL     1     -40.303 -51.408  10.332  1.00  0.00     0.164 HD
ENDROOT
BRANCH   1   7
HETATM    7  C   UNL     1     -40.915 -47.527  10.996  1.00  0.00     0.044 A 
HETATM    8  C   UNL     1     -42.018 -46.925  10.363  1.00  0.00    -0.020 A 
HETATM    9  C   UNL     1     -42.983 -47.633   9.459  1.00  0.00     0.052 C 
HETATM   10  C   UNL     1     -42.222 -45.555  10.575  1.00  0.00     0.096 A 
HETATM   11  N   UNL     1     -41.442 -44.763  11.346  1.00  0.00    -0.375 N 
HETATM   12  C   UNL     1     -40.402 -45.362  11.939  1.00  0.00     0.090 A 
ATOM     13  HN  UNL     1     -41.634 -43.769  11.468  1.00  0.00     0.164 HD
HETATM   14  C   UNL     1     -40.109 -46.710  11.796  1.00  0.00     0.047 A 
ENDBRANCH   1   7
BRANCH   4  15
HETATM   15  C   UNL     1     -41.420 -52.324  11.894  1.00  0.00     0.227 C 
BRANCH  15  16
HETATM   16  C   UNL     1     -40.732 -52.918  13.125  1.00  0.00     0.237 C 
HETATM   17  O   UNL     1     -39.509 -52.862  13.265  1.00  0.00    -0.272 OA
HETATM   18  N   UNL     1     -41.567 -53.544  14.040  1.00  0.00    -0.351 N 
HETATM   19  C   UNL     1     -43.018 -53.666  13.970  1.00  0.00     0.126 C 
HETATM   20  C   UNL     1     -41.067 -54.151  15.258  1.00  0.00     0.126 C 
HETATM   21  C   UNL     1     -43.401 -54.663  15.065  1.00  0.00     0.021 C 
HETATM   22  C   UNL     1     -42.078 -55.246  15.549  1.00  0.00     0.021 C 
ENDBRANCH  15  16
ENDBRANCH   4  15
TORSDOF 3
ENDMDL
MODEL 9
REMARK VINA RESULT:      -5.7      2.646      3.568
REMARK  3 active torsions:
REMARK  status: ('A' for Active; 'I' for Inactive)
REMARK    1  A    between atoms: C_8  and  N_9 
REMARK       I    between atoms: N_9  and  C_10 
REMARK       I    between atoms: C_10  and  N_12 
REMARK    2  A    between atoms: N_12  and  C_13 
REMARK    3  A    between atoms: C_13  and  C_14 
REMARK       I    between atoms: C_14  and  N_16 
ROOT
HETATM    1  N   UNL     1     -44.077 -52.412  12.488  1.00  0.00    -0.308 N 
HETATM    2  C   UNL     1     -42.773 -52.049  12.763  1.00  0.00     0.321 C 
HETATM    3  O   UNL     1     -42.328 -51.755  13.869  1.00  0.00    -0.247 OA
HETATM    4  N   UNL     1     -41.935 -51.996  11.672  1.00  0.00    -0.334 N 
HETATM    5  H   UNL     1     -44.305 -52.608  11.524  1.00  0.00     0.170 HD
HETATM    6  H   UNL     1     -42.128 -52.540  10.842  1.00  0.00     0.164 HD
ENDROOT
BRANCH   1   7
HETATM    7  C   UNL     1     -45.138 -52.481  13.452  1.00  0.00     0.044 A 
HETATM    8  C   UNL     1     -45.545 -53.709  14.006  1.00  0.00    -0.020 A 
HETATM    9  C   UNL     1     -44.950 -55.044  13.670  1.00  0.00     0.052 C 
HETATM   10  C   UNL     1     -46.600 -53.689  14.927  1.00  0.00     0.096 A 
HETATM   11  N   UNL     1     -47.260 -52.578  15.331  1.00  0.00    -0.375 N 
HETATM   12  C   UNL     1     -46.850 -51.424  14.791  1.00  0.00     0.090 A 
ATOM     13  HN  UNL     1     -48.023 -52.618  16.006  1.00  0.00     0.164 HD
HETATM   14  C   UNL     1     -45.817 -51.332  13.870  1.00  0.00     0.047 A 
ENDBRANCH   1   7
BRANCH   4  15
HETATM   15  C   UNL     1     -40.535 -51.679  11.958  1.00  0.00     0.227 C 
BRANCH  15  16
HETATM   16  C   UNL     1     -40.132 -50.203  11.937  1.00  0.00     0.237 C 
HETATM   17  O   UNL     1     -40.493 -49.453  11.028  1.00  0.00    -0.272 OA
HETATM   18  N   UNL     1     -39.318 -49.785  12.981  1.00  0.00    -0.351 N 
HETATM   19  C   UNL     1     -38.837 -50.586  14.099  1.00  0.00     0.126 C 
HETATM   20  C   UNL     1     -38.857 -48.416  13.104  1.00  0.00     0.126 C 
HETATM   21  C   UNL     1     -37.777 -49.730  14.794  1.00  0.00     0.021 C 
HETATM   22  C   UNL     1     -37.544 -48.551  13.855  1.00  0.00     0.021 C 
ENDBRANCH  15  16
ENDBRANCH   4  15
TORSDOF 3
ENDMDL
