MODEL 1
REMARK VINA RESULT:      -6.1      0.000      0.000
REMARK  6 active torsions:
REMARK  status: ('A' for Active; 'I' for Inactive)
REMARK    1  A    between atoms: S_2  and  C_3 
REMARK    2  A    between atoms: C_3  and  C_4 
REMARK    3  A    between atoms: C_4  and  C_5 
REMARK       I    between atoms: C_5  and  N_7 
REMARK    4  A    between atoms: N_7  and  C_8 
REMARK    5  A    between atoms: C_8  and  C_9 
REMARK    6  A    between atoms: C_12  and  N_16 
ROOT
HETATM    1  C   UNL     1     -41.343 -49.643  11.763  1.00  0.00    -0.025 A 
HETATM    2  C   UNL     1     -42.494 -49.832  12.517  1.00  0.00     0.014 A 
HETATM    3  C   UNL     1     -42.842 -51.118  12.927  1.00  0.00     0.049 A 
HETATM    4  C   UNL     1     -42.041 -52.213  12.598  1.00  0.00     0.103 A 
HETATM    5  N   UNL     1     -40.927 -52.035  11.856  1.00  0.00    -0.352 N 
ATOM      6  HN  UNL     1     -40.342 -52.829  11.595  1.00  0.00     0.166 HD
HETATM    7  C   UNL     1     -40.600 -50.776  11.465  1.00  0.00     0.098 A 
ENDROOT
BRANCH   1   8
HETATM    8  C   UNL     1     -40.914 -48.274  11.333  1.00  0.00     0.162 C 
BRANCH   8   9
HETATM    9  N   UNL     1     -41.631 -47.850  10.152  1.00  0.00    -0.357 N 
HETATM   10  C   UNL     1     -42.530 -46.812  10.222  1.00  0.00     0.218 C 
HETATM   11  O   UNL     1     -42.800 -46.231  11.270  1.00  0.00    -0.274 OA
HETATM   12  H   UNL     1     -41.285 -48.146   9.247  1.00  0.00     0.162 HD
BRANCH  10  13
HETATM   13  C   UNL     1     -43.160 -46.432   8.900  1.00  0.00     0.113 C 
BRANCH  13  14
HETATM   14  C   UNL     1     -44.043 -47.560   8.385  1.00  0.00     0.082 C 
BRANCH  14  15
HETATM   15  S   UNL     1     -45.695 -47.462   9.143  1.00  0.00    -0.173 SA
HETATM   16  C   UNL     1     -46.507 -48.772   8.194  1.00  0.00     0.089 C 
ENDBRANCH  14  15
ENDBRANCH  13  14
ENDBRANCH  10  13
ENDBRANCH   8   9
ENDBRANCH   1   8
BRANCH   4  17
HETATM   17  N   UNL     1     -42.401 -53.484  12.995  1.00  0.00    -0.362 N 
HETATM   18  C   UNL     1     -43.765 -53.989  12.805  1.00  0.00     0.156 C 
HETATM   19  C   UNL     1     -44.441 -54.257  14.167  1.00  0.00     0.136 C 
HETATM   20  C   UNL     1     -45.791 -54.932  13.967  1.00  0.00     0.041 C 
HETATM   21  O   UNL     1     -43.636 -55.125  14.983  1.00  0.00    -0.378 OA
HETATM   22  C   UNL     1     -42.357 -54.515  15.259  1.00  0.00     0.136 C 
HETATM   23  C   UNL     1     -41.587 -55.488  16.145  1.00  0.00     0.041 C 
HETATM   24  C   UNL     1     -41.581 -54.228  13.957  1.00  0.00     0.156 C 
ENDBRANCH   4  17
TORSDOF 6
ENDMDL
MODEL 2
REMARK VINA RESULT:      -5.8      2.244      7.571
REMARK  6 active torsions:
REMARK  status: ('A' for Active; 'I' for Inactive)
REMARK    1  A    between atoms: S_2  and  C_3 
REMARK    2  A    between atoms: C_3  and  C_4 
REMARK    3  A    between atoms: C_4  and  C_5 
REMARK       I    between atoms: C_5  and  N_7 
REMARK    4  A    between atoms: N_7  and  C_8 
REMARK    5  A    between atoms: C_8  and  C_9 
REMARK    6  A    between atoms: C_12  and  N_16 
ROOT
HETATM    1  C   UNL     1     -42.142 -51.830  12.656  1.00  0.00    -0.025 A 
HETATM    2  C   UNL     1     -43.139 -51.063  13.245  1.00  0.00     0.014 A 
HETATM    3  C   UNL     1     -43.231 -49.706  12.941  1.00  0.00     0.049 A 
HETATM    4  C   UNL     1     -42.339 -49.114  12.044  1.00  0.00     0.103 A 
HETATM    5  N   UNL     1     -41.362 -49.854  11.477  1.00  0.00    -0.352 N 
ATOM      6  HN  UNL     1     -40.693 -49.429  10.834  1.00  0.00     0.166 HD
HETATM    7  C   UNL     1     -41.286 -51.175  11.782  1.00  0.00     0.098 A 
ENDROOT
BRANCH   1   8
HETATM    8  C   UNL     1     -42.031 -53.298  12.927  1.00  0.00     0.162 C 
BRANCH   8   9
HETATM    9  N   UNL     1     -43.323 -53.942  12.846  1.00  0.00    -0.357 N 
HETATM   10  C   UNL     1     -43.899 -54.485  13.970  1.00  0.00     0.218 C 
HETATM   11  O   UNL     1     -43.346 -54.494  15.067  1.00  0.00    -0.274 OA
HETATM   12  H   UNL     1     -43.897 -53.767  12.031  1.00  0.00     0.162 HD
BRANCH  10  13
HETATM   13  C   UNL     1     -45.277 -55.070  13.754  1.00  0.00     0.113 C 
BRANCH  13  14
HETATM   14  C   UNL     1     -46.283 -54.434  14.702  1.00  0.00     0.082 C 
BRANCH  14  15
HETATM   15  S   UNL     1     -46.564 -52.694  14.246  1.00  0.00    -0.173 SA
HETATM   16  C   UNL     1     -47.106 -52.076  15.858  1.00  0.00     0.089 C 
ENDBRANCH  14  15
ENDBRANCH  13  14
ENDBRANCH  10  13
ENDBRANCH   8   9
ENDBRANCH   1   8
BRANCH   4  17
HETATM   17  N   UNL     1     -42.428 -47.767  11.761  1.00  0.00    -0.362 N 
HETATM   18  C   UNL     1     -43.511 -47.227  10.931  1.00  0.00     0.156 C 
HETATM   19  C   UNL     1     -42.949 -46.630   9.624  1.00  0.00     0.136 C 
HETATM   20  C   UNL     1     -44.051 -45.927   8.842  1.00  0.00     0.041 C 
HETATM   21  O   UNL     1     -41.922 -45.662   9.896  1.00  0.00    -0.378 OA
HETATM   22  C   UNL     1     -40.816 -46.279  10.587  1.00  0.00     0.136 C 
HETATM   23  C   UNL     1     -39.771 -45.192  10.808  1.00  0.00     0.041 C 
HETATM   24  C   UNL     1     -41.265 -46.889  11.931  1.00  0.00     0.156 C 
ENDBRANCH   4  17
TORSDOF 6
ENDMDL
MODEL 3
REMARK VINA RESULT:      -5.7      1.076      2.164
REMARK  6 active torsions:
REMARK  status: ('A' for Active; 'I' for Inactive)
REMARK    1  A    between atoms: S_2  and  C_3 
REMARK    2  A    between atoms: C_3  and  C_4 
REMARK    3  A    between atoms: C_4  and  C_5 
REMARK       I    between atoms: C_5  and  N_7 
REMARK    4  A    between atoms: N_7  and  C_8 
REMARK    5  A    between atoms: C_8  and  C_9 
REMARK    6  A    between atoms: C_12  and  N_16 
ROOT
HETATM    1  C   UNL     1     -41.856 -49.745  12.071  1.00  0.00    -0.025 A 
HETATM    2  C   UNL     1     -42.894 -49.349  12.906  1.00  0.00     0.014 A 
HETATM    3  C   UNL     1     -43.420 -50.257  13.824  1.00  0.00     0.049 A 
HETATM    4  C   UNL     1     -42.908 -51.552  13.921  1.00  0.00     0.103 A 
HETATM    5  N   UNL     1     -41.907 -51.944  13.103  1.00  0.00    -0.352 N 
ATOM      6  HN  UNL     1     -41.536 -52.893  13.152  1.00  0.00     0.166 HD
HETATM    7  C   UNL     1     -41.403 -51.049  12.215  1.00  0.00     0.098 A 
ENDROOT
BRANCH   1   8
HETATM    8  C   UNL     1     -41.239 -48.791  11.097  1.00  0.00     0.162 C 
BRANCH   8   9
HETATM    9  N   UNL     1     -42.104 -48.574   9.960  1.00  0.00    -0.357 N 
HETATM   10  C   UNL     1     -42.874 -47.437   9.881  1.00  0.00     0.218 C 
HETATM   11  O   UNL     1     -42.903 -46.587  10.768  1.00  0.00    -0.274 OA
HETATM   12  H   UNL     1     -41.949 -49.125   9.125  1.00  0.00     0.162 HD
BRANCH  10  13
HETATM   13  C   UNL     1     -43.683 -47.309   8.610  1.00  0.00     0.113 C 
BRANCH  13  14
HETATM   14  C   UNL     1     -44.767 -46.252   8.769  1.00  0.00     0.082 C 
BRANCH  14  15
HETATM   15  S   UNL     1     -46.362 -47.040   9.155  1.00  0.00    -0.173 SA
HETATM   16  C   UNL     1     -46.169 -48.542   8.164  1.00  0.00     0.089 C 
ENDBRANCH  14  15
ENDBRANCH  13  14
ENDBRANCH  10  13
ENDBRANCH   8   9
ENDBRANCH   1   8
BRANCH   4  17
HETATM   17  N   UNL     1     -43.445 -52.448  14.821  1.00  0.00    -0.362 N 
HETATM   18  C   UNL     1     -42.594 -53.335  15.621  1.00  0.00     0.156 C 
HETATM   19  C   UNL     1     -42.846 -54.812  15.250  1.00  0.00     0.136 C 
HETATM   20  C   UNL     1     -42.084 -55.735  16.191  1.00  0.00     0.041 C 
HETATM   21  O   UNL     1     -44.242 -55.140  15.353  1.00  0.00    -0.378 OA
HETATM   22  C   UNL     1     -45.019 -54.337  14.439  1.00  0.00     0.136 C 
HETATM   23  C   UNL     1     -46.472 -54.770  14.597  1.00  0.00     0.041 C 
HETATM   24  C   UNL     1     -44.859 -52.833  14.741  1.00  0.00     0.156 C 
ENDBRANCH   4  17
TORSDOF 6
ENDMDL
MODEL 4
REMARK VINA RESULT:      -5.6      2.623      7.621
REMARK  6 active torsions:
REMARK  status: ('A' for Active; 'I' for Inactive)
REMARK    1  A    between atoms: S_2  and  C_3 
REMARK    2  A    between atoms: C_3  and  C_4 
REMARK    3  A    between atoms: C_4  and  C_5 
REMARK       I    between atoms: C_5  and  N_7 
REMARK    4  A    between atoms: N_7  and  C_8 
REMARK    5  A    between atoms: C_8  and  C_9 
REMARK    6  A    between atoms: C_12  and  N_16 
ROOT
HETATM    1  C   UNL     1     -42.211 -52.250  12.955  1.00  0.00    -0.025 A 
HETATM    2  C   UNL     1     -42.806 -51.065  13.369  1.00  0.00     0.014 A 
HETATM    3  C   UNL     1     -42.461 -49.868  12.742  1.00  0.00     0.049 A 
HETATM    4  C   UNL     1     -41.535 -49.851  11.697  1.00  0.00     0.103 A 
HETATM    5  N   UNL     1     -40.947 -51.000  11.299  1.00  0.00    -0.352 N 
ATOM      6  HN  UNL     1     -40.256 -50.998  10.548  1.00  0.00     0.166 HD
HETATM    7  C   UNL     1     -41.294 -52.158  11.918  1.00  0.00     0.098 A 
ENDROOT
BRANCH   1   8
HETATM    8  C   UNL     1     -42.580 -53.561  13.576  1.00  0.00     0.162 C 
BRANCH   8   9
HETATM    9  N   UNL     1     -43.848 -53.473  14.266  1.00  0.00    -0.357 N 
HETATM   10  C   UNL     1     -44.984 -54.001  13.700  1.00  0.00     0.218 C 
HETATM   11  O   UNL     1     -44.996 -54.524  12.588  1.00  0.00    -0.274 OA
HETATM   12  H   UNL     1     -43.843 -53.254  15.255  1.00  0.00     0.162 HD
BRANCH  10  13
HETATM   13  C   UNL     1     -46.225 -53.894  14.557  1.00  0.00     0.113 C 
BRANCH  13  14
HETATM   14  C   UNL     1     -45.868 -54.001  16.032  1.00  0.00     0.082 C 
BRANCH  14  15
HETATM   15  S   UNL     1     -46.239 -52.435  16.885  1.00  0.00    -0.173 SA
HETATM   16  C   UNL     1     -47.152 -51.614  15.556  1.00  0.00     0.089 C 
ENDBRANCH  14  15
ENDBRANCH  13  14
ENDBRANCH  10  13
ENDBRANCH   8   9
ENDBRANCH   1   8
BRANCH   4  17
HETATM   17  N   UNL     1     -41.188 -48.661  11.093  1.00  0.00    -0.362 N 
HETATM   18  C   UNL     1     -40.152 -47.789  11.656  1.00  0.00     0.156 C 
HETATM   19  C   UNL     1     -40.758 -46.442  12.102  1.00  0.00     0.136 C 
HETATM   20  C   UNL     1     -39.659 -45.480  12.533  1.00  0.00     0.041 C 
HETATM   21  O   UNL     1     -41.484 -45.820  11.028  1.00  0.00    -0.378 OA
HETATM   22  C   UNL     1     -42.582 -46.658  10.609  1.00  0.00     0.136 C 
HETATM   23  C   UNL     1     -43.306 -45.912   9.494  1.00  0.00     0.041 C 
HETATM   24  C   UNL     1     -42.081 -48.031  10.115  1.00  0.00     0.156 C 
ENDBRANCH   4  17
TORSDOF 6
ENDMDL
MODEL 5
REMARK VINA RESULT:      -5.5      2.393      7.747
REMARK  6 active torsions:
REMARK  status: ('A' for Active; 'I' for Inactive)
REMARK    1  A    between atoms: S_2  and  C_3 
REMARK    2  A    between atoms: C_3  and  C_4 
REMARK    3  A    between atoms: C_4  and  C_5 
REMARK       I    between atoms: C_5  and  N_7 
REMARK    4  A    between atoms: N_7  and  C_8 
REMARK    5  A    between atoms: C_8  and  C_9 
REMARK    6  A    between atoms: C_12  and  N_16 
ROOT
HETATM    1  C   UNL     1     -40.159 -50.796  13.094  1.00  0.00    -0.025 A 
HETATM    2  C   UNL     1     -40.403 -49.537  13.626  1.00  0.00     0.014 A 
HETATM    3  C   UNL     1     -40.730 -48.483  12.774  1.00  0.00     0.049 A 
HETATM    4  C   UNL     1     -40.827 -48.685  11.395  1.00  0.00     0.103 A 
HETATM    5  N   UNL     1     -40.580 -49.906  10.873  1.00  0.00    -0.352 N 
ATOM      6  HN  UNL     1     -40.630 -50.061   9.866  1.00  0.00     0.166 HD
HETATM    7  C   UNL     1     -40.264 -50.922  11.716  1.00  0.00     0.098 A 
ENDROOT
BRANCH   1   8
HETATM    8  C   UNL     1     -39.841 -51.962  13.978  1.00  0.00     0.162 C 
BRANCH   8   9
HETATM    9  N   UNL     1     -41.045 -52.638  14.405  1.00  0.00    -0.357 N 
HETATM   10  C   UNL     1     -41.418 -53.827  13.823  1.00  0.00     0.218 C 
HETATM   11  O   UNL     1     -40.790 -54.346  12.903  1.00  0.00    -0.274 OA
HETATM   12  H   UNL     1     -41.461 -52.367  15.288  1.00  0.00     0.162 HD
BRANCH  10  13
HETATM   13  C   UNL     1     -42.663 -54.454  14.409  1.00  0.00     0.113 C 
BRANCH  13  14
HETATM   14  C   UNL     1     -43.746 -53.405  14.612  1.00  0.00     0.082 C 
BRANCH  14  15
HETATM   15  S   UNL     1     -45.056 -53.603  13.363  1.00  0.00    -0.173 SA
HETATM   16  C   UNL     1     -45.601 -55.271  13.806  1.00  0.00     0.089 C 
ENDBRANCH  14  15
ENDBRANCH  13  14
ENDBRANCH  10  13
ENDBRANCH   8   9
ENDBRANCH   1   8
BRANCH   4  17
HETATM   17  N   UNL     1     -41.136 -47.633  10.558  1.00  0.00    -0.362 N 
HETATM   18  C   UNL     1     -40.546 -46.304  10.746  1.00  0.00     0.156 C 
HETATM   19  C   UNL     1     -41.635 -45.271  11.103  1.00  0.00     0.136 C 
HETATM   20  C   UNL     1     -41.047 -43.866  11.137  1.00  0.00     0.041 C 
HETATM   21  O   UNL     1     -42.693 -45.276  10.129  1.00  0.00    -0.378 OA
HETATM   22  C   UNL     1     -43.334 -46.568  10.087  1.00  0.00     0.136 C 
HETATM   23  C   UNL     1     -44.451 -46.474   9.054  1.00  0.00     0.041 C 
HETATM   24  C   UNL     1     -42.332 -47.679   9.710  1.00  0.00     0.156 C 
ENDBRANCH   4  17
TORSDOF 6
ENDMDL
MODEL 6
REMARK VINA RESULT:      -5.4      1.726      2.135
REMARK  6 active torsions:
REMARK  status: ('A' for Active; 'I' for Inactive)
REMARK    1  A    between atoms: S_2  and  C_3 
REMARK    2  A    between atoms: C_3  and  C_4 
REMARK    3  A    between atoms: C_4  and  C_5 
REMARK       I    between atoms: C_5  and  N_7 
REMARK    4  A    between atoms: N_7  and  C_8 
REMARK    5  A    between atoms: C_8  and  C_9 
REMARK    6  A    between atoms: C_12  and  N_16 
ROOT
HETATM    1  C   UNL     1     -39.417 -49.937  12.257  1.00  0.00    -0.025 A 
HETATM    2  C   UNL     1     -40.578 -50.464  11.707  1.00  0.00     0.014 A 
HETATM    3  C   UNL     1     -41.018 -51.724  12.110  1.00  0.00     0.049 A 
HETATM    4  C   UNL     1     -40.310 -52.454  13.067  1.00  0.00     0.103 A 
HETATM    5  N   UNL     1     -39.174 -51.950  13.596  1.00  0.00    -0.352 N 
ATOM      6  HN  UNL     1     -38.639 -52.481  14.282  1.00  0.00     0.166 HD
HETATM    7  C   UNL     1     -38.759 -50.721  13.194  1.00  0.00     0.098 A 
ENDROOT
BRANCH   1   8
HETATM    8  C   UNL     1     -38.930 -48.573  11.878  1.00  0.00     0.162 C 
BRANCH   8   9
HETATM    9  N   UNL     1     -39.891 -47.890  11.042  1.00  0.00    -0.357 N 
HETATM   10  C   UNL     1     -40.533 -46.763  11.500  1.00  0.00     0.218 C 
HETATM   11  O   UNL     1     -40.365 -46.311  12.630  1.00  0.00    -0.274 OA
HETATM   12  H   UNL     1     -39.895 -48.093  10.050  1.00  0.00     0.162 HD
BRANCH  10  13
HETATM   13  C   UNL     1     -41.463 -46.115  10.499  1.00  0.00     0.113 C 
BRANCH  13  14
HETATM   14  C   UNL     1     -42.550 -47.090  10.069  1.00  0.00     0.082 C 
BRANCH  14  15
HETATM   15  S   UNL     1     -43.478 -46.413   8.657  1.00  0.00    -0.173 SA
HETATM   16  C   UNL     1     -43.556 -47.910   7.642  1.00  0.00     0.089 C 
ENDBRANCH  14  15
ENDBRANCH  13  14
ENDBRANCH  10  13
ENDBRANCH   8   9
ENDBRANCH   1   8
BRANCH   4  17
HETATM   17  N   UNL     1     -40.744 -53.707  13.449  1.00  0.00    -0.362 N 
HETATM   18  C   UNL     1     -42.142 -54.118  13.280  1.00  0.00     0.156 C 
HETATM   19  C   UNL     1     -42.805 -54.369  14.651  1.00  0.00     0.136 C 
HETATM   20  C   UNL     1     -44.200 -54.951  14.469  1.00  0.00     0.041 C 
HETATM   21  O   UNL     1     -42.041 -55.303  15.432  1.00  0.00    -0.378 OA
HETATM   22  C   UNL     1     -40.720 -54.783  15.691  1.00  0.00     0.136 C 
HETATM   23  C   UNL     1     -39.996 -55.821  16.542  1.00  0.00     0.041 C 
HETATM   24  C   UNL     1     -39.954 -54.521  14.378  1.00  0.00     0.156 C 
ENDBRANCH   4  17
TORSDOF 6
ENDMDL
MODEL 7
REMARK VINA RESULT:      -5.4      4.083      5.650
REMARK  6 active torsions:
REMARK  status: ('A' for Active; 'I' for Inactive)
REMARK    1  A    between atoms: S_2  and  C_3 
REMARK    2  A    between atoms: C_3  and  C_4 
REMARK    3  A    between atoms: C_4  and  C_5 
REMARK       I    between atoms: C_5  and  N_7 
REMARK    4  A    between atoms: N_7  and  C_8 
REMARK    5  A    between atoms: C_8  and  C_9 
REMARK    6  A    between atoms: C_12  and  N_16 
ROOT
HETATM    1  C   UNL     1     -40.560 -53.024  14.040  1.00  0.00    -0.025 A 
HETATM    2  C   UNL     1     -41.252 -54.211  14.249  1.00  0.00     0.014 A 
HETATM    3  C   UNL     1     -42.645 -54.210  14.208  1.00  0.00     0.049 A 
HETATM    4  C   UNL     1     -43.350 -53.032  13.948  1.00  0.00     0.103 A 
HETATM    5  N   UNL     1     -42.682 -51.874  13.756  1.00  0.00    -0.352 N 
ATOM      6  HN  UNL     1     -43.186 -51.004  13.584  1.00  0.00     0.166 HD
HETATM    7  C   UNL     1     -41.325 -51.892  13.798  1.00  0.00     0.098 A 
ENDROOT
BRANCH   1   8
HETATM    8  C   UNL     1     -39.064 -52.989  14.040  1.00  0.00     0.162 C 
BRANCH   8   9
HETATM    9  N   UNL     1     -38.573 -51.656  14.307  1.00  0.00    -0.357 N 
HETATM   10  C   UNL     1     -37.766 -51.018  13.394  1.00  0.00     0.218 C 
HETATM   11  O   UNL     1     -37.390 -51.546  12.350  1.00  0.00    -0.274 OA
HETATM   12  H   UNL     1     -39.026 -51.113  15.031  1.00  0.00     0.162 HD
BRANCH  10  13
HETATM   13  C   UNL     1     -37.379 -49.606  13.772  1.00  0.00     0.113 C 
BRANCH  13  14
HETATM   14  C   UNL     1     -38.370 -48.606  13.194  1.00  0.00     0.082 C 
BRANCH  14  15
HETATM   15  S   UNL     1     -39.451 -47.960  14.510  1.00  0.00    -0.173 SA
HETATM   16  C   UNL     1     -39.338 -46.198  14.112  1.00  0.00     0.089 C 
ENDBRANCH  14  15
ENDBRANCH  13  14
ENDBRANCH  10  13
ENDBRANCH   8   9
ENDBRANCH   1   8
BRANCH   4  17
HETATM   17  N   UNL     1     -44.729 -53.037  13.925  1.00  0.00    -0.362 N 
HETATM   18  C   UNL     1     -45.475 -52.927  12.667  1.00  0.00     0.156 C 
HETATM   19  C   UNL     1     -46.294 -51.619  12.632  1.00  0.00     0.136 C 
HETATM   20  C   UNL     1     -47.191 -51.585  11.402  1.00  0.00     0.041 C 
HETATM   21  O   UNL     1     -47.139 -51.506  13.790  1.00  0.00    -0.378 OA
HETATM   22  C   UNL     1     -46.343 -51.474  14.994  1.00  0.00     0.136 C 
HETATM   23  C   UNL     1     -47.314 -51.328  16.160  1.00  0.00     0.041 C 
HETATM   24  C   UNL     1     -45.499 -52.757  15.142  1.00  0.00     0.156 C 
ENDBRANCH   4  17
TORSDOF 6
ENDMDL
MODEL 8
REMARK VINA RESULT:      -5.3      3.303      8.004
REMARK  6 active torsions:
REMARK  status: ('A' for Active; 'I' for Inactive)
REMARK    1  A    between atoms: S_2  and  C_3 
REMARK    2  A    between atoms: C_3  and  C_4 
REMARK    3  A    between atoms: C_4  and  C_5 
REMARK       I    between atoms: C_5  and  N_7 
REMARK    4  A    between atoms: N_7  and  C_8 
REMARK    5  A    between atoms: C_8  and  C_9 
REMARK    6  A    between atoms: C_12  and  N_16 
ROOT
HETATM    1  C   UNL     1     -43.006 -50.926  13.768  1.00  0.00    -0.025 A 
HETATM    2  C   UNL     1     -43.362 -49.589  13.893  1.00  0.00     0.014 A 
HETATM    3  C   UNL     1     -42.970 -48.679  12.913  1.00  0.00     0.049 A 
HETATM    4  C   UNL     1     -42.234 -49.100  11.803  1.00  0.00     0.103 A 
HETATM    5  N   UNL     1     -41.877 -50.397  11.683  1.00  0.00    -0.352 N 
ATOM      6  HN  UNL     1     -41.324 -50.713  10.886  1.00  0.00     0.166 HD
HETATM    7  C   UNL     1     -42.267 -51.271  12.645  1.00  0.00     0.098 A 
ENDROOT
BRANCH   1   8
HETATM    8  C   UNL     1     -43.438 -51.941  14.780  1.00  0.00     0.162 C 
BRANCH   8   9
HETATM    9  N   UNL     1     -44.706 -51.580  15.372  1.00  0.00    -0.357 N 
HETATM   10  C   UNL     1     -45.878 -52.099  14.873  1.00  0.00     0.218 C 
HETATM   11  O   UNL     1     -45.917 -52.843  13.896  1.00  0.00    -0.274 OA
HETATM   12  H   UNL     1     -44.704 -51.158  16.292  1.00  0.00     0.162 HD
BRANCH  10  13
HETATM   13  C   UNL     1     -47.123 -51.687  15.627  1.00  0.00     0.113 C 
BRANCH  13  14
HETATM   14  C   UNL     1     -46.755 -50.932  16.895  1.00  0.00     0.082 C 
BRANCH  14  15
HETATM   15  S   UNL     1     -47.497 -51.742  18.347  1.00  0.00    -0.173 SA
HETATM   16  C   UNL     1     -46.382 -53.162  18.464  1.00  0.00     0.089 C 
ENDBRANCH  14  15
ENDBRANCH  13  14
ENDBRANCH  10  13
ENDBRANCH   8   9
ENDBRANCH   1   8
BRANCH   4  17
HETATM   17  N   UNL     1     -41.837 -48.190  10.845  1.00  0.00    -0.362 N 
HETATM   18  C   UNL     1     -40.653 -47.345  11.034  1.00  0.00     0.156 C 
HETATM   19  C   UNL     1     -41.053 -45.857  11.108  1.00  0.00     0.136 C 
HETATM   20  C   UNL     1     -39.813 -44.973  11.140  1.00  0.00     0.041 C 
HETATM   21  O   UNL     1     -41.832 -45.472   9.963  1.00  0.00    -0.378 OA
HETATM   22  C   UNL     1     -43.056 -46.236   9.905  1.00  0.00     0.136 C 
HETATM   23  C   UNL     1     -43.824 -45.746   8.683  1.00  0.00     0.041 C 
HETATM   24  C   UNL     1     -42.768 -47.748   9.802  1.00  0.00     0.156 C 
ENDBRANCH   4  17
TORSDOF 6
ENDMDL
MODEL 9
REMARK VINA RESULT:      -5.3      4.048      7.336
REMARK  6 active torsions:
REMARK  status: ('A' for Active; 'I' for Inactive)
REMARK    1  A    between atoms: S_2  and  C_3 
REMARK    2  A    between atoms: C_3  and  C_4 
REMARK    3  A    between atoms: C_4  and  C_5 
REMARK       I    between atoms: C_5  and  N_7 
REMARK    4  A    between atoms: N_7  and  C_8 
REMARK    5  A    between atoms: C_8  and  C_9 
REMARK    6  A    between atoms: C_12  and  N_16 
ROOT
HETATM    1  C   UNL     1     -42.251 -53.760  14.231  1.00  0.00    -0.025 A 
HETATM    2  C   UNL     1     -41.362 -53.829  13.166  1.00  0.00     0.014 A 
HETATM    3  C   UNL     1     -40.639 -52.695  12.800  1.00  0.00     0.049 A 
HETATM    4  C   UNL     1     -40.792 -51.496  13.500  1.00  0.00     0.103 A 
HETATM    5  N   UNL     1     -41.663 -51.422  14.529  1.00  0.00    -0.352 N 
ATOM      6  HN  UNL     1     -41.796 -50.547  15.037  1.00  0.00     0.166 HD
HETATM    7  C   UNL     1     -42.358 -52.535  14.875  1.00  0.00     0.098 A 
ENDROOT
BRANCH   1   8
HETATM    8  C   UNL     1     -43.019 -54.965  14.679  1.00  0.00     0.162 C 
BRANCH   8   9
HETATM    9  N   UNL     1     -44.344 -54.601  15.129  1.00  0.00    -0.357 N 
HETATM   10  C   UNL     1     -45.399 -54.597  14.248  1.00  0.00     0.218 C 
HETATM   11  O   UNL     1     -45.273 -54.852  13.053  1.00  0.00    -0.274 OA
HETATM   12  H   UNL     1     -44.530 -54.599  16.124  1.00  0.00     0.162 HD
BRANCH  10  13
HETATM   13  C   UNL     1     -46.737 -54.259  14.866  1.00  0.00     0.113 C 
BRANCH  13  14
HETATM   14  C   UNL     1     -46.899 -52.751  15.000  1.00  0.00     0.082 C 
BRANCH  14  15
HETATM   15  S   UNL     1     -46.577 -52.235  16.716  1.00  0.00    -0.173 SA
HETATM   16  C   UNL     1     -48.016 -51.161  16.949  1.00  0.00     0.089 C 
ENDBRANCH  14  15
ENDBRANCH  13  14
ENDBRANCH  10  13
ENDBRANCH   8   9
ENDBRANCH   1   8
BRANCH   4  17
HETATM   17  N   UNL     1     -40.084 -50.374  13.121  1.00  0.00    -0.362 N 
HETATM   18  C   UNL     1     -39.375 -50.311  11.839  1.00  0.00     0.156 C 
HETATM   19  C   UNL     1     -37.853 -50.193  12.064  1.00  0.00     0.136 C 
HETATM   20  C   UNL     1     -37.135 -49.964  10.741  1.00  0.00     0.041 C 
HETATM   21  O   UNL     1     -37.542 -49.085  12.926  1.00  0.00    -0.378 OA
HETATM   22  C   UNL     1     -38.147 -49.268  14.223  1.00  0.00     0.136 C 
HETATM   23  C   UNL     1     -37.744 -48.068  15.072  1.00  0.00     0.041 C 
HETATM   24  C   UNL     1     -39.683 -49.372  14.115  1.00  0.00     0.156 C 
ENDBRANCH   4  17
TORSDOF 6
ENDMDL
