MODEL 1
REMARK VINA RESULT:      -7.0      0.000      0.000
REMARK  7 active torsions:
REMARK  status: ('A' for Active; 'I' for Inactive)
REMARK    1  A    between atoms: C_2  and  O_3 
REMARK    2  A    between atoms: C_2  and  C_9 
REMARK    3  A    between atoms: O_3  and  C_4 
REMARK    4  A    between atoms: C_4  and  C_5 
REMARK       I    between atoms: C_9  and  N_11 
REMARK    5  A    between atoms: N_11  and  C_12 
REMARK    6  A    between atoms: C_12  and  C_13 
REMARK    7  A    between atoms: C_16  and  N_20 
ROOT
HETATM    1  C   UNL     1     -41.838 -49.787  11.933  1.00  0.00    -0.025 A 
HETATM    2  C   UNL     1     -41.273 -51.047  12.088  1.00  0.00     0.014 A 
HETATM    3  C   UNL     1     -41.904 -51.992  12.901  1.00  0.00     0.049 A 
HETATM    4  C   UNL     1     -43.091 -51.684  13.568  1.00  0.00     0.103 A 
HETATM    5  N   UNL     1     -43.606 -50.440  13.462  1.00  0.00    -0.352 N 
ATOM      6  HN  UNL     1     -44.449 -50.185  13.978  1.00  0.00     0.166 HD
HETATM    7  C   UNL     1     -42.990 -49.534  12.661  1.00  0.00     0.098 A 
ENDROOT
BRANCH   1   8
HETATM    8  C   UNL     1     -41.259 -48.775  10.994  1.00  0.00     0.162 C 
BRANCH   8   9
HETATM    9  N   UNL     1     -42.148 -48.414   9.914  1.00  0.00    -0.355 N 
HETATM   10  C   UNL     1     -42.631 -47.121   9.846  1.00  0.00     0.246 C 
HETATM   11  O   UNL     1     -42.392 -46.291  10.719  1.00  0.00    -0.271 OA
HETATM   12  H   UNL     1     -42.328 -49.078   9.173  1.00  0.00     0.162 HD
BRANCH  10  13
HETATM   13  C   UNL     1     -43.457 -46.792   8.577  1.00  0.00     0.209 C 
HETATM   14  C   UNL     1     -43.264 -47.910   7.551  1.00  0.00     0.050 C 
BRANCH  13  15
HETATM   15  O   UNL     1     -44.865 -46.678   8.795  1.00  0.00    -0.368 OA
BRANCH  15  16
HETATM   16  C   UNL     1     -45.426 -47.729   9.589  1.00  0.00     0.286 C 
BRANCH  16  17
HETATM   17  C   UNL     1     -46.667 -48.383   8.969  1.00  0.00     0.408 C 
HETATM   18  F   UNL     1     -46.485 -48.773   7.692  1.00  0.00    -0.169 F 
HETATM   19  F   UNL     1     -47.033 -49.475   9.684  1.00  0.00    -0.169 F 
HETATM   20  F   UNL     1     -47.716 -47.526   8.992  1.00  0.00    -0.169 F 
ENDBRANCH  16  17
ENDBRANCH  15  16
ENDBRANCH  13  15
ENDBRANCH  10  13
ENDBRANCH   8   9
ENDBRANCH   1   8
BRANCH   4  21
HETATM   21  N   UNL     1     -43.723 -52.608  14.378  1.00  0.00    -0.363 N 
HETATM   22  C   UNL     1     -42.984 -53.476  15.307  1.00  0.00     0.150 C 
HETATM   23  C   UNL     1     -43.023 -54.945  14.847  1.00  0.00     0.187 C 
HETATM   24  O   UNL     1     -44.366 -55.397  14.621  1.00  0.00    -0.388 OA
HETATM   25  C   UNL     1     -44.982 -54.600  13.595  1.00  0.00     0.187 C 
HETATM   26  C   UNL     1     -45.050 -53.121  14.000  1.00  0.00     0.150 C 
ENDBRANCH   4  21
TORSDOF 7
ENDMDL
MODEL 2
REMARK VINA RESULT:      -6.9      2.462      7.227
REMARK  7 active torsions:
REMARK  status: ('A' for Active; 'I' for Inactive)
REMARK    1  A    between atoms: C_2  and  O_3 
REMARK    2  A    between atoms: C_2  and  C_9 
REMARK    3  A    between atoms: O_3  and  C_4 
REMARK    4  A    between atoms: C_4  and  C_5 
REMARK       I    between atoms: C_9  and  N_11 
REMARK    5  A    between atoms: N_11  and  C_12 
REMARK    6  A    between atoms: C_12  and  C_13 
REMARK    7  A    between atoms: C_16  and  N_20 
ROOT
HETATM    1  C   UNL     1     -41.843 -50.112  12.091  1.00  0.00    -0.025 A 
HETATM    2  C   UNL     1     -42.838 -49.191  12.393  1.00  0.00     0.014 A 
HETATM    3  C   UNL     1     -42.918 -47.998  11.670  1.00  0.00     0.049 A 
HETATM    4  C   UNL     1     -42.004 -47.715  10.653  1.00  0.00     0.103 A 
HETATM    5  N   UNL     1     -41.003 -48.585  10.402  1.00  0.00    -0.352 N 
ATOM      6  HN  UNL     1     -40.300 -48.372   9.693  1.00  0.00     0.166 HD
HETATM    7  C   UNL     1     -40.942 -49.745  11.104  1.00  0.00     0.098 A 
ENDROOT
BRANCH   1   8
HETATM    8  C   UNL     1     -41.776 -51.448  12.764  1.00  0.00     0.162 C 
BRANCH   8   9
HETATM    9  N   UNL     1     -42.972 -52.241  12.594  1.00  0.00    -0.355 N 
HETATM   10  C   UNL     1     -42.954 -53.571  12.967  1.00  0.00     0.246 C 
HETATM   11  O   UNL     1     -41.931 -54.121  13.366  1.00  0.00    -0.271 OA
HETATM   12  H   UNL     1     -43.829 -51.793  12.297  1.00  0.00     0.162 HD
BRANCH  10  13
HETATM   13  C   UNL     1     -44.320 -54.297  12.883  1.00  0.00     0.209 C 
HETATM   14  C   UNL     1     -44.663 -54.878  14.256  1.00  0.00     0.050 C 
BRANCH  13  15
HETATM   15  O   UNL     1     -45.417 -53.462  12.509  1.00  0.00    -0.368 OA
BRANCH  15  16
HETATM   16  C   UNL     1     -46.247 -53.052  13.602  1.00  0.00     0.286 C 
BRANCH  16  17
HETATM   17  C   UNL     1     -46.490 -51.539  13.667  1.00  0.00     0.408 C 
HETATM   18  F   UNL     1     -45.355 -50.819  13.765  1.00  0.00    -0.169 F 
HETATM   19  F   UNL     1     -47.150 -51.119  12.560  1.00  0.00    -0.169 F 
HETATM   20  F   UNL     1     -47.267 -51.230  14.732  1.00  0.00    -0.169 F 
ENDBRANCH  16  17
ENDBRANCH  15  16
ENDBRANCH  13  15
ENDBRANCH  10  13
ENDBRANCH   8   9
ENDBRANCH   1   8
BRANCH   4  21
HETATM   21  N   UNL     1     -42.071 -46.537   9.934  1.00  0.00    -0.363 N 
HETATM   22  C   UNL     1     -41.610 -45.252  10.482  1.00  0.00     0.150 C 
HETATM   23  C   UNL     1     -42.793 -44.302  10.742  1.00  0.00     0.187 C 
HETATM   24  O   UNL     1     -43.613 -44.140   9.577  1.00  0.00    -0.388 OA
HETATM   25  C   UNL     1     -44.153 -45.413   9.181  1.00  0.00     0.187 C 
HETATM   26  C   UNL     1     -43.039 -46.410   8.832  1.00  0.00     0.150 C 
ENDBRANCH   4  21
TORSDOF 7
ENDMDL
MODEL 3
REMARK VINA RESULT:      -6.7      2.942      7.005
REMARK  7 active torsions:
REMARK  status: ('A' for Active; 'I' for Inactive)
REMARK    1  A    between atoms: C_2  and  O_3 
REMARK    2  A    between atoms: C_2  and  C_9 
REMARK    3  A    between atoms: O_3  and  C_4 
REMARK    4  A    between atoms: C_4  and  C_5 
REMARK       I    between atoms: C_9  and  N_11 
REMARK    5  A    between atoms: N_11  and  C_12 
REMARK    6  A    between atoms: C_12  and  C_13 
REMARK    7  A    between atoms: C_16  and  N_20 
ROOT
HETATM    1  C   UNL     1     -41.040 -50.794  12.007  1.00  0.00    -0.025 A 
HETATM    2  C   UNL     1     -42.179 -50.058  12.309  1.00  0.00     0.014 A 
HETATM    3  C   UNL     1     -42.265 -48.722  11.910  1.00  0.00     0.049 A 
HETATM    4  C   UNL     1     -41.217 -48.113  11.216  1.00  0.00     0.103 A 
HETATM    5  N   UNL     1     -40.088 -48.813  10.975  1.00  0.00    -0.352 N 
ATOM      6  HN  UNL     1     -39.296 -48.370  10.509  1.00  0.00     0.166 HD
HETATM    7  C   UNL     1     -40.020 -50.113  11.360  1.00  0.00     0.098 A 
ENDROOT
BRANCH   1   8
HETATM    8  C   UNL     1     -40.939 -52.254  12.320  1.00  0.00     0.162 C 
BRANCH   8   9
HETATM    9  N   UNL     1     -42.161 -52.984  12.074  1.00  0.00    -0.355 N 
HETATM   10  C   UNL     1     -42.749 -53.679  13.113  1.00  0.00     0.246 C 
HETATM   11  O   UNL     1     -42.223 -53.761  14.220  1.00  0.00    -0.271 OA
HETATM   12  H   UNL     1     -42.621 -52.899  11.177  1.00  0.00     0.162 HD
BRANCH  10  13
HETATM   13  C   UNL     1     -44.128 -54.307  12.790  1.00  0.00     0.209 C 
HETATM   14  C   UNL     1     -44.725 -54.891  14.071  1.00  0.00     0.050 C 
BRANCH  13  15
HETATM   15  O   UNL     1     -45.094 -53.389  12.272  1.00  0.00    -0.368 OA
BRANCH  15  16
HETATM   16  C   UNL     1     -46.068 -52.956  13.228  1.00  0.00     0.286 C 
BRANCH  16  17
HETATM   17  C   UNL     1     -46.425 -51.468  13.124  1.00  0.00     0.408 C 
HETATM   18  F   UNL     1     -47.177 -51.173  12.045  1.00  0.00    -0.169 F 
HETATM   19  F   UNL     1     -47.108 -51.068  14.224  1.00  0.00    -0.169 F 
HETATM   20  F   UNL     1     -45.300 -50.715  13.061  1.00  0.00    -0.169 F 
ENDBRANCH  16  17
ENDBRANCH  15  16
ENDBRANCH  13  15
ENDBRANCH  10  13
ENDBRANCH   8   9
ENDBRANCH   1   8
BRANCH   4  21
HETATM   21  N   UNL     1     -41.290 -46.792  10.819  1.00  0.00    -0.363 N 
HETATM   22  C   UNL     1     -40.093 -45.955  10.640  1.00  0.00     0.150 C 
HETATM   23  C   UNL     1     -40.012 -44.862  11.721  1.00  0.00     0.187 C 
HETATM   24  O   UNL     1     -41.218 -44.088  11.788  1.00  0.00    -0.388 OA
HETATM   25  C   UNL     1     -42.328 -44.944  12.113  1.00  0.00     0.187 C 
HETATM   26  C   UNL     1     -42.529 -46.030  11.047  1.00  0.00     0.150 C 
ENDBRANCH   4  21
TORSDOF 7
ENDMDL
MODEL 4
REMARK VINA RESULT:      -6.3      3.191      7.166
REMARK  7 active torsions:
REMARK  status: ('A' for Active; 'I' for Inactive)
REMARK    1  A    between atoms: C_2  and  O_3 
REMARK    2  A    between atoms: C_2  and  C_9 
REMARK    3  A    between atoms: O_3  and  C_4 
REMARK    4  A    between atoms: C_4  and  C_5 
REMARK       I    between atoms: C_9  and  N_11 
REMARK    5  A    between atoms: N_11  and  C_12 
REMARK    6  A    between atoms: C_12  and  C_13 
REMARK    7  A    between atoms: C_16  and  N_20 
ROOT
HETATM    1  C   UNL     1     -41.350 -50.921  12.126  1.00  0.00    -0.025 A 
HETATM    2  C   UNL     1     -42.464 -50.217  12.564  1.00  0.00     0.014 A 
HETATM    3  C   UNL     1     -42.442 -48.819  12.568  1.00  0.00     0.049 A 
HETATM    4  C   UNL     1     -41.309 -48.121  12.146  1.00  0.00     0.103 A 
HETATM    5  N   UNL     1     -40.207 -48.808  11.777  1.00  0.00    -0.352 N 
ATOM      6  HN  UNL     1     -39.356 -48.313  11.509  1.00  0.00     0.166 HD
HETATM    7  C   UNL     1     -40.245 -50.165  11.768  1.00  0.00     0.098 A 
ENDROOT
BRANCH   1   8
HETATM    8  C   UNL     1     -41.359 -52.413  12.004  1.00  0.00     0.162 C 
BRANCH   8   9
HETATM    9  N   UNL     1     -42.681 -52.971  11.836  1.00  0.00    -0.355 N 
HETATM   10  C   UNL     1     -43.194 -53.790  12.823  1.00  0.00     0.246 C 
HETATM   11  O   UNL     1     -42.531 -54.122  13.802  1.00  0.00    -0.271 OA
HETATM   12  H   UNL     1     -43.249 -52.680  11.051  1.00  0.00     0.162 HD
BRANCH  10  13
HETATM   13  C   UNL     1     -44.669 -54.220  12.622  1.00  0.00     0.209 C 
HETATM   14  C   UNL     1     -45.131 -55.010  13.847  1.00  0.00     0.050 C 
BRANCH  13  15
HETATM   15  O   UNL     1     -45.589 -53.138  12.464  1.00  0.00    -0.368 OA
BRANCH  15  16
HETATM   16  C   UNL     1     -46.399 -52.880  13.617  1.00  0.00     0.286 C 
BRANCH  16  17
HETATM   17  C   UNL     1     -46.100 -51.540  14.301  1.00  0.00     0.408 C 
HETATM   18  F   UNL     1     -45.254 -51.649  15.345  1.00  0.00    -0.169 F 
HETATM   19  F   UNL     1     -45.552 -50.670  13.418  1.00  0.00    -0.169 F 
HETATM   20  F   UNL     1     -47.243 -50.974  14.756  1.00  0.00    -0.169 F 
ENDBRANCH  16  17
ENDBRANCH  15  16
ENDBRANCH  13  15
ENDBRANCH  10  13
ENDBRANCH   8   9
ENDBRANCH   1   8
BRANCH   4  21
HETATM   21  N   UNL     1     -41.273 -46.739  12.150  1.00  0.00    -0.363 N 
HETATM   22  C   UNL     1     -42.479 -45.919  11.962  1.00  0.00     0.150 C 
HETATM   23  C   UNL     1     -42.447 -45.185  10.609  1.00  0.00     0.187 C 
HETATM   24  O   UNL     1     -41.238 -44.432  10.439  1.00  0.00    -0.388 OA
HETATM   25  C   UNL     1     -40.104 -45.316  10.484  1.00  0.00     0.187 C 
HETATM   26  C   UNL     1     -40.014 -46.043  11.833  1.00  0.00     0.150 C 
ENDBRANCH   4  21
TORSDOF 7
ENDMDL
MODEL 5
REMARK VINA RESULT:      -5.7      2.783      7.034
REMARK  7 active torsions:
REMARK  status: ('A' for Active; 'I' for Inactive)
REMARK    1  A    between atoms: C_2  and  O_3 
REMARK    2  A    between atoms: C_2  and  C_9 
REMARK    3  A    between atoms: O_3  and  C_4 
REMARK    4  A    between atoms: C_4  and  C_5 
REMARK       I    between atoms: C_9  and  N_11 
REMARK    5  A    between atoms: N_11  and  C_12 
REMARK    6  A    between atoms: C_12  and  C_13 
REMARK    7  A    between atoms: C_16  and  N_20 
ROOT
HETATM    1  C   UNL     1     -42.704 -49.432  13.867  1.00  0.00    -0.025 A 
HETATM    2  C   UNL     1     -42.879 -48.054  13.890  1.00  0.00     0.014 A 
HETATM    3  C   UNL     1     -42.844 -47.332  12.694  1.00  0.00     0.049 A 
HETATM    4  C   UNL     1     -42.626 -47.977  11.475  1.00  0.00     0.103 A 
HETATM    5  N   UNL     1     -42.397 -49.307  11.462  1.00  0.00    -0.352 N 
ATOM      6  HN  UNL     1     -42.192 -49.787  10.585  1.00  0.00     0.166 HD
HETATM    7  C   UNL     1     -42.444 -49.999  12.629  1.00  0.00     0.098 A 
ENDROOT
BRANCH   1   8
HETATM    8  C   UNL     1     -42.835 -50.264  15.104  1.00  0.00     0.162 C 
BRANCH   8   9
HETATM    9  N   UNL     1     -44.042 -51.057  15.142  1.00  0.00    -0.355 N 
HETATM   10  C   UNL     1     -45.047 -50.707  16.024  1.00  0.00     0.246 C 
HETATM   11  O   UNL     1     -44.914 -49.791  16.832  1.00  0.00    -0.271 OA
HETATM   12  H   UNL     1     -44.177 -51.793  14.462  1.00  0.00     0.162 HD
BRANCH  10  13
HETATM   13  C   UNL     1     -46.356 -51.525  15.890  1.00  0.00     0.209 C 
HETATM   14  C   UNL     1     -47.352 -51.053  16.950  1.00  0.00     0.050 C 
BRANCH  13  15
HETATM   15  O   UNL     1     -47.013 -51.395  14.627  1.00  0.00    -0.368 OA
BRANCH  15  16
HETATM   16  C   UNL     1     -46.827 -52.509  13.748  1.00  0.00     0.286 C 
BRANCH  16  17
HETATM   17  C   UNL     1     -46.195 -52.141  12.400  1.00  0.00     0.408 C 
HETATM   18  F   UNL     1     -47.047 -52.251  11.361  1.00  0.00    -0.169 F 
HETATM   19  F   UNL     1     -45.741 -50.864  12.424  1.00  0.00    -0.169 F 
HETATM   20  F   UNL     1     -45.128 -52.935  12.143  1.00  0.00    -0.169 F 
ENDBRANCH  16  17
ENDBRANCH  15  16
ENDBRANCH  13  15
ENDBRANCH  10  13
ENDBRANCH   8   9
ENDBRANCH   1   8
BRANCH   4  21
HETATM   21  N   UNL     1     -42.585 -47.273  10.287  1.00  0.00    -0.363 N 
HETATM   22  C   UNL     1     -42.042 -45.909  10.196  1.00  0.00     0.150 C 
HETATM   23  C   UNL     1     -43.156 -44.885   9.915  1.00  0.00     0.187 C 
HETATM   24  O   UNL     1     -43.933 -45.244   8.764  1.00  0.00    -0.388 OA
HETATM   25  C   UNL     1     -44.558 -46.522   8.978  1.00  0.00     0.187 C 
HETATM   26  C   UNL     1     -43.514 -47.626   9.200  1.00  0.00     0.150 C 
ENDBRANCH   4  21
TORSDOF 7
ENDMDL
MODEL 6
REMARK VINA RESULT:      -5.6      3.505      7.893
REMARK  7 active torsions:
REMARK  status: ('A' for Active; 'I' for Inactive)
REMARK    1  A    between atoms: C_2  and  O_3 
REMARK    2  A    between atoms: C_2  and  C_9 
REMARK    3  A    between atoms: O_3  and  C_4 
REMARK    4  A    between atoms: C_4  and  C_5 
REMARK       I    between atoms: C_9  and  N_11 
REMARK    5  A    between atoms: N_11  and  C_12 
REMARK    6  A    between atoms: C_12  and  C_13 
REMARK    7  A    between atoms: C_16  and  N_20 
ROOT
HETATM    1  C   UNL     1     -40.178 -49.638  12.956  1.00  0.00    -0.025 A 
HETATM    2  C   UNL     1     -41.349 -48.914  13.136  1.00  0.00     0.014 A 
HETATM    3  C   UNL     1     -41.587 -47.778  12.359  1.00  0.00     0.049 A 
HETATM    4  C   UNL     1     -40.657 -47.355  11.407  1.00  0.00     0.103 A 
HETATM    5  N   UNL     1     -39.494 -48.026  11.275  1.00  0.00    -0.352 N 
ATOM      6  HN  UNL     1     -38.784 -47.704  10.616  1.00  0.00     0.166 HD
HETATM    7  C   UNL     1     -39.279 -49.134  12.029  1.00  0.00     0.098 A 
ENDROOT
BRANCH   1   8
HETATM    8  C   UNL     1     -39.922 -50.918  13.688  1.00  0.00     0.162 C 
BRANCH   8   9
HETATM    9  N   UNL     1     -41.104 -51.729  13.865  1.00  0.00    -0.355 N 
HETATM   10  C   UNL     1     -41.119 -53.014  13.355  1.00  0.00     0.246 C 
HETATM   11  O   UNL     1     -40.189 -53.459  12.688  1.00  0.00    -0.271 OA
HETATM   12  H   UNL     1     -41.863 -51.386  14.438  1.00  0.00     0.162 HD
BRANCH  10  13
HETATM   13  C   UNL     1     -42.369 -53.852  13.719  1.00  0.00     0.209 C 
HETATM   14  C   UNL     1     -42.050 -54.725  14.934  1.00  0.00     0.050 C 
BRANCH  13  15
HETATM   15  O   UNL     1     -43.524 -53.083  14.061  1.00  0.00    -0.368 OA
BRANCH  15  16
HETATM   16  C   UNL     1     -44.506 -53.798  14.820  1.00  0.00     0.286 C 
BRANCH  16  17
HETATM   17  C   UNL     1     -45.681 -54.319  13.983  1.00  0.00     0.408 C 
HETATM   18  F   UNL     1     -46.880 -54.128  14.568  1.00  0.00    -0.169 F 
HETATM   19  F   UNL     1     -45.710 -53.705  12.775  1.00  0.00    -0.169 F 
HETATM   20  F   UNL     1     -45.544 -55.647  13.749  1.00  0.00    -0.169 F 
ENDBRANCH  16  17
ENDBRANCH  15  16
ENDBRANCH  13  15
ENDBRANCH  10  13
ENDBRANCH   8   9
ENDBRANCH   1   8
BRANCH   4  21
HETATM   21  N   UNL     1     -40.880 -46.231  10.634  1.00  0.00    -0.363 N 
HETATM   22  C   UNL     1     -39.818 -45.257  10.336  1.00  0.00     0.150 C 
HETATM   23  C   UNL     1     -40.075 -43.918  11.051  1.00  0.00     0.187 C 
HETATM   24  O   UNL     1     -41.386 -43.406  10.770  1.00  0.00    -0.388 OA
HETATM   25  C   UNL     1     -42.381 -44.342  11.222  1.00  0.00     0.187 C 
HETATM   26  C   UNL     1     -42.245 -45.693  10.506  1.00  0.00     0.150 C 
ENDBRANCH   4  21
TORSDOF 7
ENDMDL
MODEL 7
REMARK VINA RESULT:      -5.6      2.493      3.410
REMARK  7 active torsions:
REMARK  status: ('A' for Active; 'I' for Inactive)
REMARK    1  A    between atoms: C_2  and  O_3 
REMARK    2  A    between atoms: C_2  and  C_9 
REMARK    3  A    between atoms: O_3  and  C_4 
REMARK    4  A    between atoms: C_4  and  C_5 
REMARK       I    between atoms: C_9  and  N_11 
REMARK    5  A    between atoms: N_11  and  C_12 
REMARK    6  A    between atoms: C_12  and  C_13 
REMARK    7  A    between atoms: C_16  and  N_20 
ROOT
HETATM    1  C   UNL     1     -42.878 -48.865  14.138  1.00  0.00    -0.025 A 
HETATM    2  C   UNL     1     -43.505 -49.567  15.160  1.00  0.00     0.014 A 
HETATM    3  C   UNL     1     -44.275 -50.692  14.854  1.00  0.00     0.049 A 
HETATM    4  C   UNL     1     -44.430 -51.116  13.533  1.00  0.00     0.103 A 
HETATM    5  N   UNL     1     -43.868 -50.398  12.537  1.00  0.00    -0.352 N 
ATOM      6  HN  UNL     1     -44.008 -50.668  11.563  1.00  0.00     0.166 HD
HETATM    7  C   UNL     1     -43.114 -49.312  12.847  1.00  0.00     0.098 A 
ENDROOT
BRANCH   1   8
HETATM    8  C   UNL     1     -41.960 -47.716  14.420  1.00  0.00     0.162 C 
BRANCH   8   9
HETATM    9  N   UNL     1     -41.479 -47.055  13.228  1.00  0.00    -0.355 N 
HETATM   10  C   UNL     1     -42.026 -45.838  12.869  1.00  0.00     0.246 C 
HETATM   11  O   UNL     1     -42.964 -45.340  13.486  1.00  0.00    -0.271 OA
HETATM   12  H   UNL     1     -40.688 -47.439  12.730  1.00  0.00     0.162 HD
BRANCH  10  13
HETATM   13  C   UNL     1     -41.348 -45.141  11.664  1.00  0.00     0.209 C 
HETATM   14  C   UNL     1     -39.888 -44.846  12.013  1.00  0.00     0.050 C 
BRANCH  13  15
HETATM   15  O   UNL     1     -41.331 -45.913  10.461  1.00  0.00    -0.368 OA
BRANCH  15  16
HETATM   16  C   UNL     1     -42.610 -46.053   9.832  1.00  0.00     0.286 C 
BRANCH  16  17
HETATM   17  C   UNL     1     -42.990 -47.503   9.510  1.00  0.00     0.408 C 
HETATM   18  F   UNL     1     -42.061 -48.399   9.898  1.00  0.00    -0.169 F 
HETATM   19  F   UNL     1     -44.157 -47.832  10.117  1.00  0.00    -0.169 F 
HETATM   20  F   UNL     1     -43.181 -47.659   8.178  1.00  0.00    -0.169 F 
ENDBRANCH  16  17
ENDBRANCH  15  16
ENDBRANCH  13  15
ENDBRANCH  10  13
ENDBRANCH   8   9
ENDBRANCH   1   8
BRANCH   4  21
HETATM   21  N   UNL     1     -45.192 -52.224  13.218  1.00  0.00    -0.363 N 
HETATM   22  C   UNL     1     -46.535 -52.444  13.778  1.00  0.00     0.150 C 
HETATM   23  C   UNL     1     -46.540 -53.629  14.760  1.00  0.00     0.187 C 
HETATM   24  O   UNL     1     -45.992 -54.815  14.167  1.00  0.00    -0.388 OA
HETATM   25  C   UNL     1     -44.628 -54.577  13.776  1.00  0.00     0.187 C 
HETATM   26  C   UNL     1     -44.531 -53.450  12.739  1.00  0.00     0.150 C 
ENDBRANCH   4  21
TORSDOF 7
ENDMDL
MODEL 8
REMARK VINA RESULT:      -5.6      4.732      7.239
REMARK  7 active torsions:
REMARK  status: ('A' for Active; 'I' for Inactive)
REMARK    1  A    between atoms: C_2  and  O_3 
REMARK    2  A    between atoms: C_2  and  C_9 
REMARK    3  A    between atoms: O_3  and  C_4 
REMARK    4  A    between atoms: C_4  and  C_5 
REMARK       I    between atoms: C_9  and  N_11 
REMARK    5  A    between atoms: N_11  and  C_12 
REMARK    6  A    between atoms: C_12  and  C_13 
REMARK    7  A    between atoms: C_16  and  N_20 
ROOT
HETATM    1  C   UNL     1     -40.234 -52.979  13.297  1.00  0.00    -0.025 A 
HETATM    2  C   UNL     1     -39.380 -53.046  14.391  1.00  0.00     0.014 A 
HETATM    3  C   UNL     1     -38.733 -51.890  14.835  1.00  0.00     0.049 A 
HETATM    4  C   UNL     1     -38.928 -50.668  14.188  1.00  0.00     0.103 A 
HETATM    5  N   UNL     1     -39.712 -50.617  13.091  1.00  0.00    -0.352 N 
ATOM      6  HN  UNL     1     -39.830 -49.741  12.580  1.00  0.00     0.166 HD
HETATM    7  C   UNL     1     -40.343 -51.745  12.675  1.00  0.00     0.098 A 
ENDROOT
BRANCH   1   8
HETATM    8  C   UNL     1     -41.030 -54.164  12.845  1.00  0.00     0.162 C 
BRANCH   8   9
HETATM    9  N   UNL     1     -42.458 -53.963  12.920  1.00  0.00    -0.355 N 
HETATM   10  C   UNL     1     -43.133 -54.360  14.059  1.00  0.00     0.246 C 
HETATM   11  O   UNL     1     -42.569 -54.951  14.976  1.00  0.00    -0.271 OA
HETATM   12  H   UNL     1     -42.929 -53.451  12.186  1.00  0.00     0.162 HD
BRANCH  10  13
HETATM   13  C   UNL     1     -44.632 -53.973  14.105  1.00  0.00     0.209 C 
HETATM   14  C   UNL     1     -45.479 -55.212  13.810  1.00  0.00     0.050 C 
BRANCH  13  15
HETATM   15  O   UNL     1     -45.078 -53.466  15.365  1.00  0.00    -0.368 OA
BRANCH  15  16
HETATM   16  C   UNL     1     -45.404 -52.071  15.358  1.00  0.00     0.286 C 
BRANCH  16  17
HETATM   17  C   UNL     1     -46.866 -51.775  15.003  1.00  0.00     0.408 C 
HETATM   18  F   UNL     1     -47.628 -52.883  14.905  1.00  0.00    -0.169 F 
HETATM   19  F   UNL     1     -47.427 -50.973  15.940  1.00  0.00    -0.169 F 
HETATM   20  F   UNL     1     -46.943 -51.117  13.821  1.00  0.00    -0.169 F 
ENDBRANCH  16  17
ENDBRANCH  15  16
ENDBRANCH  13  15
ENDBRANCH  10  13
ENDBRANCH   8   9
ENDBRANCH   1   8
BRANCH   4  21
HETATM   21  N   UNL     1     -38.291 -49.518  14.616  1.00  0.00    -0.363 N 
HETATM   22  C   UNL     1     -38.188 -49.156  16.038  1.00  0.00     0.150 C 
HETATM   23  C   UNL     1     -39.048 -47.922  16.361  1.00  0.00     0.187 C 
HETATM   24  O   UNL     1     -38.750 -46.821  15.491  1.00  0.00    -0.388 OA
HETATM   25  C   UNL     1     -39.014 -47.193  14.127  1.00  0.00     0.187 C 
HETATM   26  C   UNL     1     -38.144 -48.381  13.692  1.00  0.00     0.150 C 
ENDBRANCH   4  21
TORSDOF 7
ENDMDL
MODEL 9
REMARK VINA RESULT:      -5.5      3.596      6.937
REMARK  7 active torsions:
REMARK  status: ('A' for Active; 'I' for Inactive)
REMARK    1  A    between atoms: C_2  and  O_3 
REMARK    2  A    between atoms: C_2  and  C_9 
REMARK    3  A    between atoms: O_3  and  C_4 
REMARK    4  A    between atoms: C_4  and  C_5 
REMARK       I    between atoms: C_9  and  N_11 
REMARK    5  A    between atoms: N_11  and  C_12 
REMARK    6  A    between atoms: C_12  and  C_13 
REMARK    7  A    between atoms: C_16  and  N_20 
ROOT
HETATM    1  C   UNL     1     -41.820 -53.562  14.821  1.00  0.00    -0.025 A 
HETATM    2  C   UNL     1     -40.569 -53.980  14.383  1.00  0.00     0.014 A 
HETATM    3  C   UNL     1     -39.815 -53.149  13.550  1.00  0.00     0.049 A 
HETATM    4  C   UNL     1     -40.306 -51.907  13.145  1.00  0.00     0.103 A 
HETATM    5  N   UNL     1     -41.546 -51.529  13.524  1.00  0.00    -0.352 N 
ATOM      6  HN  UNL     1     -41.937 -50.644  13.201  1.00  0.00     0.166 HD
HETATM    7  C   UNL     1     -42.264 -52.340  14.342  1.00  0.00     0.098 A 
ENDROOT
BRANCH   1   8
HETATM    8  C   UNL     1     -42.622 -54.367  15.796  1.00  0.00     0.162 C 
BRANCH   8   9
HETATM    9  N   UNL     1     -43.958 -53.858  16.004  1.00  0.00    -0.355 N 
HETATM   10  C   UNL     1     -45.006 -54.414  15.297  1.00  0.00     0.246 C 
HETATM   11  O   UNL     1     -44.827 -55.274  14.438  1.00  0.00    -0.271 OA
HETATM   12  H   UNL     1     -44.123 -53.173  16.730  1.00  0.00     0.162 HD
BRANCH  10  13
HETATM   13  C   UNL     1     -46.413 -53.903  15.693  1.00  0.00     0.209 C 
HETATM   14  C   UNL     1     -46.274 -52.879  16.821  1.00  0.00     0.050 C 
BRANCH  13  15
HETATM   15  O   UNL     1     -47.131 -53.255  14.641  1.00  0.00    -0.368 OA
BRANCH  15  16
HETATM   16  C   UNL     1     -46.707 -51.913  14.377  1.00  0.00     0.286 C 
BRANCH  16  17
HETATM   17  C   UNL     1     -46.133 -51.706  12.970  1.00  0.00     0.408 C 
HETATM   18  F   UNL     1     -45.072 -50.875  12.941  1.00  0.00    -0.169 F 
HETATM   19  F   UNL     1     -45.740 -52.891  12.441  1.00  0.00    -0.169 F 
HETATM   20  F   UNL     1     -47.077 -51.198  12.142  1.00  0.00    -0.169 F 
ENDBRANCH  16  17
ENDBRANCH  15  16
ENDBRANCH  13  15
ENDBRANCH  10  13
ENDBRANCH   8   9
ENDBRANCH   1   8
BRANCH   4  21
HETATM   21  N   UNL     1     -39.572 -51.078  12.318  1.00  0.00    -0.363 N 
HETATM   22  C   UNL     1     -38.189 -50.681  12.627  1.00  0.00     0.150 C 
HETATM   23  C   UNL     1     -38.107 -49.184  12.979  1.00  0.00     0.187 C 
HETATM   24  O   UNL     1     -38.701 -48.364  11.963  1.00  0.00    -0.388 OA
HETATM   25  C   UNL     1     -40.091 -48.702  11.816  1.00  0.00     0.187 C 
HETATM   26  C   UNL     1     -40.269 -50.167  11.394  1.00  0.00     0.150 C 
ENDBRANCH   4  21
TORSDOF 7
ENDMDL
