MODEL 1
REMARK VINA RESULT:      -6.0      0.000      0.000
REMARK  3 active torsions:
REMARK  status: ('A' for Active; 'I' for Inactive)
REMARK    1  A    between atoms: C_4  and  N_5 
REMARK       I    between atoms: N_5  and  C_6 
REMARK       I    between atoms: C_6  and  N_8 
REMARK    2  A    between atoms: N_8  and  C_9 
REMARK    3  A    between atoms: N_12  and  C_15 
ROOT
HETATM    1  N   UNL     1     -41.679 -49.287  10.870  1.00  0.00    -0.293 N 
HETATM    2  C   UNL     1     -41.886 -49.846  12.160  1.00  0.00     0.322 C 
HETATM    3  O   UNL     1     -41.776 -49.203  13.187  1.00  0.00    -0.247 OA
HETATM    4  N   UNL     1     -42.207 -51.167  12.060  1.00  0.00    -0.338 N 
HETATM    5  H   UNL     1     -41.678 -49.904  10.075  1.00  0.00     0.172 HD
HETATM    6  H   UNL     1     -42.425 -51.576  11.165  1.00  0.00     0.164 HD
ENDROOT
BRANCH   1   7
HETATM    7  C   UNL     1     -41.429 -47.932  10.644  1.00  0.00     0.127 A 
HETATM    8  C   UNL     1     -40.349 -47.187  11.069  1.00  0.00     0.076 A 
HETATM    9  C   UNL     1     -40.563 -45.878  10.581  1.00  0.00     0.025 A 
HETATM   10  C   UNL     1     -39.688 -44.692  10.743  1.00  0.00     0.070 C 
HETATM   11  N   UNL     1     -41.712 -45.794   9.906  1.00  0.00    -0.302 N 
HETATM   12  N   UNL     1     -42.223 -47.038   9.961  1.00  0.00    -0.281 N 
ATOM     13  HN  UNL     1     -42.111 -44.973   9.452  1.00  0.00     0.186 HD
HETATM   14  C   UNL     1     -43.492 -47.265   9.313  1.00  0.00     0.179 C 
ENDBRANCH   1   7
BRANCH   4  15
HETATM   15  C   UNL     1     -42.500 -51.960  13.256  1.00  0.00     0.089 C 
HETATM   16  C   UNL     1     -43.694 -51.394  14.039  1.00  0.00     0.055 C 
HETATM   17  C   UNL     1     -44.101 -52.310  15.194  1.00  0.00     0.275 C 
HETATM   18  N   UNL     1     -44.313 -53.704  14.797  1.00  0.00     0.093 N 
HETATM   19  C   UNL     1     -43.145 -54.249  14.099  1.00  0.00     0.275 C 
HETATM   20  C   UNL     1     -42.746 -53.421  12.877  1.00  0.00     0.055 C 
BRANCH  18  21
HETATM   21  C   UNL     1     -45.581 -53.962  14.092  1.00  0.00     0.223 A 
HETATM   22  C   UNL     1     -46.853 -53.261  14.480  1.00  0.00     0.038 A 
HETATM   23  C   UNL     1     -46.655 -54.698  14.854  1.00  0.00     0.038 A 
ENDBRANCH  18  21
ENDBRANCH   4  15
TORSDOF 3
ENDMDL
MODEL 2
REMARK VINA RESULT:      -5.9      1.990      7.535
REMARK  3 active torsions:
REMARK  status: ('A' for Active; 'I' for Inactive)
REMARK    1  A    between atoms: C_4  and  N_5 
REMARK       I    between atoms: N_5  and  C_6 
REMARK       I    between atoms: C_6  and  N_8 
REMARK    2  A    between atoms: N_8  and  C_9 
REMARK    3  A    between atoms: N_12  and  C_15 
ROOT
HETATM    1  N   UNL     1     -41.955 -52.789  11.956  1.00  0.00    -0.293 N 
HETATM    2  C   UNL     1     -41.696 -51.403  12.135  1.00  0.00     0.322 C 
HETATM    3  O   UNL     1     -42.251 -50.729  12.982  1.00  0.00    -0.247 OA
HETATM    4  N   UNL     1     -40.768 -50.973  11.235  1.00  0.00    -0.338 N 
HETATM    5  H   UNL     1     -41.541 -53.255  11.165  1.00  0.00     0.172 HD
HETATM    6  H   UNL     1     -40.251 -51.631  10.675  1.00  0.00     0.164 HD
ENDROOT
BRANCH   1   7
HETATM    7  C   UNL     1     -42.790 -53.535  12.790  1.00  0.00     0.127 A 
HETATM    8  C   UNL     1     -44.139 -53.778  12.640  1.00  0.00     0.076 A 
HETATM    9  C   UNL     1     -44.514 -54.584  13.738  1.00  0.00     0.025 A 
HETATM   10  C   UNL     1     -45.853 -55.141  14.044  1.00  0.00     0.070 C 
HETATM   11  N   UNL     1     -43.475 -54.822  14.542  1.00  0.00    -0.302 N 
HETATM   12  N   UNL     1     -42.447 -54.176  13.959  1.00  0.00    -0.281 N 
ATOM     13  HN  UNL     1     -43.462 -55.369  15.403  1.00  0.00     0.186 HD
HETATM   14  C   UNL     1     -41.163 -54.244  14.612  1.00  0.00     0.179 C 
ENDBRANCH   1   7
BRANCH   4  15
HETATM   15  C   UNL     1     -40.308 -49.581  11.240  1.00  0.00     0.089 C 
HETATM   16  C   UNL     1     -41.423 -48.609  10.830  1.00  0.00     0.055 C 
HETATM   17  C   UNL     1     -40.992 -47.151  10.992  1.00  0.00     0.275 C 
HETATM   18  N   UNL     1     -40.448 -46.837  12.315  1.00  0.00     0.093 N 
HETATM   19  C   UNL     1     -39.347 -47.738  12.670  1.00  0.00     0.275 C 
HETATM   20  C   UNL     1     -39.747 -49.212  12.615  1.00  0.00     0.055 C 
BRANCH  18  21
HETATM   21  C   UNL     1     -41.452 -46.701  13.384  1.00  0.00     0.223 A 
HETATM   22  C   UNL     1     -42.747 -45.971  13.157  1.00  0.00     0.038 A 
HETATM   23  C   UNL     1     -41.661 -45.323  13.961  1.00  0.00     0.038 A 
ENDBRANCH  18  21
ENDBRANCH   4  15
TORSDOF 3
ENDMDL
MODEL 3
REMARK VINA RESULT:      -5.9      1.829      2.590
REMARK  3 active torsions:
REMARK  status: ('A' for Active; 'I' for Inactive)
REMARK    1  A    between atoms: C_4  and  N_5 
REMARK       I    between atoms: N_5  and  C_6 
REMARK       I    between atoms: C_6  and  N_8 
REMARK    2  A    between atoms: N_8  and  C_9 
REMARK    3  A    between atoms: N_12  and  C_15 
ROOT
HETATM    1  N   UNL     1     -40.822 -50.925  11.210  1.00  0.00    -0.293 N 
HETATM    2  C   UNL     1     -41.646 -51.595  12.154  1.00  0.00     0.322 C 
HETATM    3  O   UNL     1     -42.196 -51.025  13.077  1.00  0.00    -0.247 OA
HETATM    4  N   UNL     1     -41.709 -52.927  11.870  1.00  0.00    -0.338 N 
HETATM    5  H   UNL     1     -40.312 -51.479  10.542  1.00  0.00     0.172 HD
HETATM    6  H   UNL     1     -41.347 -53.284  11.000  1.00  0.00     0.164 HD
ENDROOT
BRANCH   1   7
HETATM    7  C   UNL     1     -40.641 -49.541  11.185  1.00  0.00     0.127 A 
HETATM    8  C   UNL     1     -41.524 -48.579  10.740  1.00  0.00     0.076 A 
HETATM    9  C   UNL     1     -40.874 -47.338  10.930  1.00  0.00     0.025 A 
HETATM   10  C   UNL     1     -41.396 -45.984  10.630  1.00  0.00     0.070 C 
HETATM   11  N   UNL     1     -39.653 -47.503  11.443  1.00  0.00    -0.302 N 
HETATM   12  N   UNL     1     -39.527 -48.836  11.583  1.00  0.00    -0.281 N 
ATOM     13  HN  UNL     1     -38.970 -46.783  11.677  1.00  0.00     0.186 HD
HETATM   14  C   UNL     1     -38.285 -49.334  12.121  1.00  0.00     0.179 C 
ENDBRANCH   1   7
BRANCH   4  15
HETATM   15  C   UNL     1     -42.526 -53.829  12.685  1.00  0.00     0.089 C 
HETATM   16  C   UNL     1     -42.118 -53.792  14.164  1.00  0.00     0.055 C 
HETATM   17  C   UNL     1     -43.074 -54.607  15.037  1.00  0.00     0.275 C 
HETATM   18  N   UNL     1     -44.485 -54.267  14.847  1.00  0.00     0.093 N 
HETATM   19  C   UNL     1     -44.876 -54.361  13.437  1.00  0.00     0.275 C 
HETATM   20  C   UNL     1     -44.010 -53.492  12.524  1.00  0.00     0.055 C 
BRANCH  18  21
HETATM   21  C   UNL     1     -44.913 -53.009  15.483  1.00  0.00     0.223 A 
HETATM   22  C   UNL     1     -44.545 -52.682  16.904  1.00  0.00     0.038 A 
HETATM   23  C   UNL     1     -45.945 -53.108  16.580  1.00  0.00     0.038 A 
ENDBRANCH  18  21
ENDBRANCH   4  15
TORSDOF 3
ENDMDL
MODEL 4
REMARK VINA RESULT:      -5.7      3.539      4.579
REMARK  3 active torsions:
REMARK  status: ('A' for Active; 'I' for Inactive)
REMARK    1  A    between atoms: C_4  and  N_5 
REMARK       I    between atoms: N_5  and  C_6 
REMARK       I    between atoms: C_6  and  N_8 
REMARK    2  A    between atoms: N_8  and  C_9 
REMARK    3  A    between atoms: N_12  and  C_15 
ROOT
HETATM    1  N   UNL     1     -41.563 -52.532  12.060  1.00  0.00    -0.293 N 
HETATM    2  C   UNL     1     -42.776 -52.430  12.793  1.00  0.00     0.322 C 
HETATM    3  O   UNL     1     -42.854 -51.874  13.872  1.00  0.00    -0.247 OA
HETATM    4  N   UNL     1     -43.791 -53.040  12.119  1.00  0.00    -0.338 N 
HETATM    5  H   UNL     1     -41.551 -53.102  11.230  1.00  0.00     0.172 HD
HETATM    6  H   UNL     1     -43.668 -53.340  11.165  1.00  0.00     0.164 HD
ENDROOT
BRANCH   1   7
HETATM    7  C   UNL     1     -40.369 -51.922  12.450  1.00  0.00     0.127 A 
HETATM    8  C   UNL     1     -39.849 -50.721  12.015  1.00  0.00     0.076 A 
HETATM    9  C   UNL     1     -38.631 -50.550  12.711  1.00  0.00     0.025 A 
HETATM   10  C   UNL     1     -37.685 -49.412  12.623  1.00  0.00     0.070 C 
HETATM   11  N   UNL     1     -38.386 -51.583  13.520  1.00  0.00    -0.302 N 
HETATM   12  N   UNL     1     -39.439 -52.403  13.344  1.00  0.00    -0.281 N 
ATOM     13  HN  UNL     1     -37.582 -51.720  14.133  1.00  0.00     0.186 HD
HETATM   14  C   UNL     1     -39.456 -53.633  14.096  1.00  0.00     0.179 C 
ENDBRANCH   1   7
BRANCH   4  15
HETATM   15  C   UNL     1     -45.154 -53.042  12.658  1.00  0.00     0.089 C 
HETATM   16  C   UNL     1     -45.267 -53.903  13.924  1.00  0.00     0.055 C 
HETATM   17  C   UNL     1     -46.645 -53.774  14.576  1.00  0.00     0.275 C 
HETATM   18  N   UNL     1     -47.061 -52.391  14.813  1.00  0.00     0.093 N 
HETATM   19  C   UNL     1     -47.002 -51.593  13.584  1.00  0.00     0.275 C 
HETATM   20  C   UNL     1     -45.617 -51.610  12.934  1.00  0.00     0.055 C 
BRANCH  18  21
HETATM   21  C   UNL     1     -46.412 -51.734  15.961  1.00  0.00     0.223 A 
HETATM   22  C   UNL     1     -46.472 -52.326  17.342  1.00  0.00     0.038 A 
HETATM   23  C   UNL     1     -47.313 -51.131  17.010  1.00  0.00     0.038 A 
ENDBRANCH  18  21
ENDBRANCH   4  15
TORSDOF 3
ENDMDL
MODEL 5
REMARK VINA RESULT:      -5.6      1.718      7.990
REMARK  3 active torsions:
REMARK  status: ('A' for Active; 'I' for Inactive)
REMARK    1  A    between atoms: C_4  and  N_5 
REMARK       I    between atoms: N_5  and  C_6 
REMARK       I    between atoms: C_6  and  N_8 
REMARK    2  A    between atoms: N_8  and  C_9 
REMARK    3  A    between atoms: N_12  and  C_15 
ROOT
HETATM    1  N   UNL     1     -41.970 -52.180  12.644  1.00  0.00    -0.293 N 
HETATM    2  C   UNL     1     -42.580 -50.897  12.695  1.00  0.00     0.322 C 
HETATM    3  O   UNL     1     -43.487 -50.624  13.459  1.00  0.00    -0.247 OA
HETATM    4  N   UNL     1     -42.009 -50.062  11.782  1.00  0.00    -0.338 N 
HETATM    5  H   UNL     1     -41.304 -52.364  11.912  1.00  0.00     0.172 HD
HETATM    6  H   UNL     1     -41.164 -50.327  11.300  1.00  0.00     0.164 HD
ENDROOT
BRANCH   1   7
HETATM    7  C   UNL     1     -42.277 -53.219  13.524  1.00  0.00     0.127 A 
HETATM    8  C   UNL     1     -41.501 -53.719  14.548  1.00  0.00     0.076 A 
HETATM    9  C   UNL     1     -42.259 -54.755  15.140  1.00  0.00     0.025 A 
HETATM   10  C   UNL     1     -41.889 -55.607  16.295  1.00  0.00     0.070 C 
HETATM   11  N   UNL     1     -43.431 -54.913  14.521  1.00  0.00    -0.302 N 
HETATM   12  N   UNL     1     -43.421 -53.985  13.546  1.00  0.00    -0.281 N 
ATOM     13  HN  UNL     1     -44.166 -55.586  14.737  1.00  0.00     0.186 HD
HETATM   14  C   UNL     1     -44.576 -53.914  12.684  1.00  0.00     0.179 C 
ENDBRANCH   1   7
BRANCH   4  15
HETATM   15  C   UNL     1     -42.446 -48.669  11.664  1.00  0.00     0.089 C 
HETATM   16  C   UNL     1     -41.847 -47.786  12.769  1.00  0.00     0.055 C 
HETATM   17  C   UNL     1     -42.171 -46.307  12.552  1.00  0.00     0.275 C 
HETATM   18  N   UNL     1     -41.835 -45.818  11.213  1.00  0.00     0.093 N 
HETATM   19  C   UNL     1     -42.459 -46.636  10.169  1.00  0.00     0.275 C 
HETATM   20  C   UNL     1     -42.095 -48.117  10.281  1.00  0.00     0.055 C 
BRANCH  18  21
HETATM   21  C   UNL     1     -40.399 -45.579  10.981  1.00  0.00     0.223 A 
HETATM   22  C   UNL     1     -39.570 -44.778  11.946  1.00  0.00     0.038 A 
HETATM   23  C   UNL     1     -39.982 -44.170  10.640  1.00  0.00     0.038 A 
ENDBRANCH  18  21
ENDBRANCH   4  15
TORSDOF 3
ENDMDL
MODEL 6
REMARK VINA RESULT:      -5.6      2.419      3.821
REMARK  3 active torsions:
REMARK  status: ('A' for Active; 'I' for Inactive)
REMARK    1  A    between atoms: C_4  and  N_5 
REMARK       I    between atoms: N_5  and  C_6 
REMARK       I    between atoms: C_6  and  N_8 
REMARK    2  A    between atoms: N_8  and  C_9 
REMARK    3  A    between atoms: N_12  and  C_15 
ROOT
HETATM    1  N   UNL     1     -41.318 -49.258  10.913  1.00  0.00    -0.293 N 
HETATM    2  C   UNL     1     -41.832 -49.923  12.060  1.00  0.00     0.322 C 
HETATM    3  O   UNL     1     -42.688 -49.441  12.777  1.00  0.00    -0.247 OA
HETATM    4  N   UNL     1     -41.227 -51.134  12.218  1.00  0.00    -0.338 N 
HETATM    5  H   UNL     1     -40.534 -49.669  10.433  1.00  0.00     0.172 HD
HETATM    6  H   UNL     1     -40.642 -51.515  11.492  1.00  0.00     0.164 HD
ENDROOT
BRANCH   1   7
HETATM    7  C   UNL     1     -41.809 -48.040  10.439  1.00  0.00     0.127 A 
HETATM    8  C   UNL     1     -42.994 -47.806   9.774  1.00  0.00     0.076 A 
HETATM    9  C   UNL     1     -43.027 -46.416   9.517  1.00  0.00     0.025 A 
HETATM   10  C   UNL     1     -44.094 -45.641   8.840  1.00  0.00     0.070 C 
HETATM   11  N   UNL     1     -41.927 -45.813   9.972  1.00  0.00    -0.302 N 
HETATM   12  N   UNL     1     -41.202 -46.807  10.517  1.00  0.00    -0.281 N 
ATOM     13  HN  UNL     1     -41.689 -44.822   9.918  1.00  0.00     0.186 HD
HETATM   14  C   UNL     1     -39.928 -46.460  11.099  1.00  0.00     0.179 C 
ENDBRANCH   1   7
BRANCH   4  15
HETATM   15  C   UNL     1     -41.611 -52.025  13.316  1.00  0.00     0.089 C 
HETATM   16  C   UNL     1     -41.175 -53.474  13.056  1.00  0.00     0.055 C 
HETATM   17  C   UNL     1     -41.430 -54.370  14.269  1.00  0.00     0.275 C 
HETATM   18  N   UNL     1     -40.877 -53.845  15.519  1.00  0.00     0.093 N 
HETATM   19  C   UNL     1     -41.345 -52.481  15.784  1.00  0.00     0.275 C 
HETATM   20  C   UNL     1     -41.035 -51.516  14.639  1.00  0.00     0.055 C 
BRANCH  18  21
HETATM   21  C   UNL     1     -39.418 -53.994  15.664  1.00  0.00     0.223 A 
HETATM   22  C   UNL     1     -38.739 -55.319  15.451  1.00  0.00     0.038 A 
HETATM   23  C   UNL     1     -38.922 -54.795  16.843  1.00  0.00     0.038 A 
ENDBRANCH  18  21
ENDBRANCH   4  15
TORSDOF 3
ENDMDL
MODEL 7
REMARK VINA RESULT:      -5.6      2.114      8.155
REMARK  3 active torsions:
REMARK  status: ('A' for Active; 'I' for Inactive)
REMARK    1  A    between atoms: C_4  and  N_5 
REMARK       I    between atoms: N_5  and  C_6 
REMARK       I    between atoms: C_6  and  N_8 
REMARK    2  A    between atoms: N_8  and  C_9 
REMARK    3  A    between atoms: N_12  and  C_15 
ROOT
HETATM    1  N   UNL     1     -44.584 -51.002  12.639  1.00  0.00    -0.293 N 
HETATM    2  C   UNL     1     -43.659 -50.165  13.321  1.00  0.00     0.322 C 
HETATM    3  O   UNL     1     -43.312 -50.360  14.470  1.00  0.00    -0.247 OA
HETATM    4  N   UNL     1     -43.250 -49.149  12.511  1.00  0.00    -0.338 N 
HETATM    5  H   UNL     1     -44.908 -50.716  11.730  1.00  0.00     0.172 HD
HETATM    6  H   UNL     1     -43.472 -49.154  11.528  1.00  0.00     0.164 HD
ENDROOT
BRANCH   1   7
HETATM    7  C   UNL     1     -45.107 -52.179  13.178  1.00  0.00     0.127 A 
HETATM    8  C   UNL     1     -44.749 -53.478  12.883  1.00  0.00     0.076 A 
HETATM    9  C   UNL     1     -45.564 -54.299  13.695  1.00  0.00     0.025 A 
HETATM   10  C   UNL     1     -45.568 -55.779  13.777  1.00  0.00     0.070 C 
HETATM   11  N   UNL     1     -46.396 -53.570  14.442  1.00  0.00    -0.302 N 
HETATM   12  N   UNL     1     -46.112 -52.296  14.112  1.00  0.00    -0.281 N 
ATOM     13  HN  UNL     1     -47.090 -53.903  15.111  1.00  0.00     0.186 HD
HETATM   14  C   UNL     1     -46.869 -51.256  14.763  1.00  0.00     0.179 C 
ENDBRANCH   1   7
BRANCH   4  15
HETATM   15  C   UNL     1     -42.268 -48.167  12.978  1.00  0.00     0.089 C 
HETATM   16  C   UNL     1     -40.978 -48.209  12.146  1.00  0.00     0.055 C 
HETATM   17  C   UNL     1     -40.020 -47.079  12.528  1.00  0.00     0.275 C 
HETATM   18  N   UNL     1     -40.638 -45.751  12.519  1.00  0.00     0.093 N 
HETATM   19  C   UNL     1     -41.838 -45.710  13.361  1.00  0.00     0.275 C 
HETATM   20  C   UNL     1     -42.874 -46.763  12.966  1.00  0.00     0.055 C 
BRANCH  18  21
HETATM   21  C   UNL     1     -40.851 -45.173  11.180  1.00  0.00     0.223 A 
HETATM   22  C   UNL     1     -39.734 -45.078  10.179  1.00  0.00     0.038 A 
HETATM   23  C   UNL     1     -40.198 -43.845  10.892  1.00  0.00     0.038 A 
ENDBRANCH  18  21
ENDBRANCH   4  15
TORSDOF 3
ENDMDL
MODEL 8
REMARK VINA RESULT:      -5.5      2.571      3.385
REMARK  3 active torsions:
REMARK  status: ('A' for Active; 'I' for Inactive)
REMARK    1  A    between atoms: C_4  and  N_5 
REMARK       I    between atoms: N_5  and  C_6 
REMARK       I    between atoms: C_6  and  N_8 
REMARK    2  A    between atoms: N_8  and  C_9 
REMARK    3  A    between atoms: N_12  and  C_15 
ROOT
HETATM    1  N   UNL     1     -40.971 -48.450  12.503  1.00  0.00    -0.293 N 
HETATM    2  C   UNL     1     -40.665 -49.805  12.200  1.00  0.00     0.322 C 
HETATM    3  O   UNL     1     -40.344 -50.179  11.088  1.00  0.00    -0.247 OA
HETATM    4  N   UNL     1     -40.791 -50.581  13.313  1.00  0.00    -0.338 N 
HETATM    5  H   UNL     1     -41.336 -48.235  13.416  1.00  0.00     0.172 HD
HETATM    6  H   UNL     1     -40.912 -50.162  14.221  1.00  0.00     0.164 HD
ENDROOT
BRANCH   1   7
HETATM    7  C   UNL     1     -40.840 -47.404  11.589  1.00  0.00     0.127 A 
HETATM    8  C   UNL     1     -39.816 -46.484  11.494  1.00  0.00     0.076 A 
HETATM    9  C   UNL     1     -40.148 -45.642  10.409  1.00  0.00     0.025 A 
HETATM   10  C   UNL     1     -39.372 -44.499   9.874  1.00  0.00     0.070 C 
HETATM   11  N   UNL     1     -41.315 -45.992   9.863  1.00  0.00    -0.302 N 
HETATM   12  N   UNL     1     -41.720 -47.050  10.591  1.00  0.00    -0.281 N 
ATOM     13  HN  UNL     1     -41.791 -45.557   9.073  1.00  0.00     0.186 HD
HETATM   14  C   UNL     1     -42.980 -47.658  10.237  1.00  0.00     0.179 C 
ENDBRANCH   1   7
BRANCH   4  15
HETATM   15  C   UNL     1     -40.497 -52.016  13.263  1.00  0.00     0.089 C 
HETATM   16  C   UNL     1     -39.299 -52.385  14.149  1.00  0.00     0.055 C 
HETATM   17  C   UNL     1     -39.094 -53.899  14.225  1.00  0.00     0.275 C 
HETATM   18  N   UNL     1     -40.301 -54.642  14.593  1.00  0.00     0.093 N 
HETATM   19  C   UNL     1     -41.422 -54.322  13.704  1.00  0.00     0.275 C 
HETATM   20  C   UNL     1     -41.733 -52.825  13.659  1.00  0.00     0.055 C 
BRANCH  18  21
HETATM   21  C   UNL     1     -40.658 -54.579  16.021  1.00  0.00     0.223 A 
HETATM   22  C   UNL     1     -39.623 -54.745  17.098  1.00  0.00     0.038 A 
HETATM   23  C   UNL     1     -40.577 -55.863  16.808  1.00  0.00     0.038 A 
ENDBRANCH  18  21
ENDBRANCH   4  15
TORSDOF 3
ENDMDL
MODEL 9
REMARK VINA RESULT:      -5.4      2.527      7.374
REMARK  3 active torsions:
REMARK  status: ('A' for Active; 'I' for Inactive)
REMARK    1  A    between atoms: C_4  and  N_5 
REMARK       I    between atoms: N_5  and  C_6 
REMARK       I    between atoms: C_6  and  N_8 
REMARK    2  A    between atoms: N_8  and  C_9 
REMARK    3  A    between atoms: N_12  and  C_15 
ROOT
HETATM    1  N   UNL     1     -43.629 -51.896  12.601  1.00  0.00    -0.293 N 
HETATM    2  C   UNL     1     -42.465 -51.092  12.746  1.00  0.00     0.322 C 
HETATM    3  O   UNL     1     -42.215 -50.465  13.757  1.00  0.00    -0.247 OA
HETATM    4  N   UNL     1     -41.713 -51.137  11.611  1.00  0.00    -0.338 N 
HETATM    5  H   UNL     1     -43.825 -52.296  11.698  1.00  0.00     0.172 HD
HETATM    6  H   UNL     1     -41.918 -51.802  10.883  1.00  0.00     0.164 HD
ENDROOT
BRANCH   1   7
HETATM    7  C   UNL     1     -44.545 -52.124  13.629  1.00  0.00     0.127 A 
HETATM    8  C   UNL     1     -45.550 -51.289  14.070  1.00  0.00     0.076 A 
HETATM    9  C   UNL     1     -46.196 -51.978  15.121  1.00  0.00     0.025 A 
HETATM   10  C   UNL     1     -47.356 -51.528  15.926  1.00  0.00     0.070 C 
HETATM   11  N   UNL     1     -45.627 -53.165  15.345  1.00  0.00    -0.302 N 
HETATM   12  N   UNL     1     -44.630 -53.232  14.442  1.00  0.00    -0.281 N 
ATOM     13  HN  UNL     1     -45.887 -53.862  16.041  1.00  0.00     0.186 HD
HETATM   14  C   UNL     1     -43.812 -54.420  14.442  1.00  0.00     0.179 C 
ENDBRANCH   1   7
BRANCH   4  15
HETATM   15  C   UNL     1     -40.442 -50.412  11.525  1.00  0.00     0.089 C 
HETATM   16  C   UNL     1     -40.615 -48.916  11.820  1.00  0.00     0.055 C 
HETATM   17  C   UNL     1     -39.270 -48.192  11.891  1.00  0.00     0.275 C 
HETATM   18  N   UNL     1     -38.305 -48.823  12.794  1.00  0.00     0.093 N 
HETATM   19  C   UNL     1     -38.107 -50.238  12.467  1.00  0.00     0.275 C 
HETATM   20  C   UNL     1     -39.412 -51.034  12.470  1.00  0.00     0.055 C 
BRANCH  18  21
HETATM   21  C   UNL     1     -38.552 -48.590  14.228  1.00  0.00     0.223 A 
HETATM   22  C   UNL     1     -38.811 -47.210  14.767  1.00  0.00     0.038 A 
HETATM   23  C   UNL     1     -37.482 -47.859  15.001  1.00  0.00     0.038 A 
ENDBRANCH  18  21
ENDBRANCH   4  15
TORSDOF 3
ENDMDL
