MODEL 1
REMARK VINA RESULT:      -6.6      0.000      0.000
REMARK  5 active torsions:
REMARK  status: ('A' for Active; 'I' for Inactive)
REMARK    1  A    between atoms: C_2  and  C_3 
REMARK    2  A    between atoms: C_2  and  N_17 
REMARK    3  A    between atoms: C_3  and  C_4 
REMARK    4  A    between atoms: C_4  and  N_5 
REMARK       I    between atoms: N_5  and  C_6 
REMARK       I    between atoms: C_6  and  N_8 
REMARK    5  A    between atoms: N_8  and  C_9 
ROOT
HETATM    1  N   UNL     1     -42.994 -48.801  11.501  1.00  0.00    -0.342 N 
HETATM    2  C   UNL     1     -43.290 -47.481  11.659  1.00  0.00     0.334 C 
HETATM    3  O   UNL     1     -43.230 -46.895  12.737  1.00  0.00    -0.247 OA
HETATM    4  N   UNL     1     -43.663 -46.788  10.537  1.00  0.00    -0.140 N 
HETATM    5  H   UNL     1     -43.111 -49.178  10.565  1.00  0.00     0.164 HD
HETATM    6  H   UNL     1     -43.859 -45.813  10.703  1.00  0.00     0.189 HD
ENDROOT
BRANCH   1   7
HETATM    7  C   UNL     1     -42.580 -49.687  12.569  1.00  0.00     0.126 C 
BRANCH   7   8
HETATM    8  C   UNL     1     -43.769 -50.235  13.360  1.00  0.00     0.055 C 
BRANCH   8   9
HETATM    9  C   UNL     1     -43.788 -51.791  13.456  1.00  0.00     0.220 C 
HETATM   10  C   UNL     1     -42.513 -52.346  12.786  1.00  0.00     0.043 C 
BRANCH   9  11
HETATM   11  N   UNL     1     -45.023 -52.361  12.844  1.00  0.00     0.092 N 
HETATM   12  C   UNL     1     -46.233 -51.541  13.068  1.00  0.00     0.273 C 
HETATM   13  C   UNL     1     -46.705 -51.546  14.523  1.00  0.00     0.030 C 
HETATM   14  C   UNL     1     -47.021 -52.968  14.969  1.00  0.00     0.003 C 
HETATM   15  C   UNL     1     -45.856 -53.910  14.671  1.00  0.00     0.030 C 
HETATM   16  C   UNL     1     -45.339 -53.751  13.236  1.00  0.00     0.273 C 
ENDBRANCH   9  11
ENDBRANCH   8   9
ENDBRANCH   7   8
ENDBRANCH   1   7
BRANCH   4  17
HETATM   17  C   UNL     1     -43.797 -47.331   9.279  1.00  0.00     0.703 A 
HETATM   18  N   UNL     1     -42.831 -47.598   8.424  1.00  0.00    -0.185 N 
HETATM   19  C   UNL     1     -43.483 -48.134   7.355  1.00  0.00     0.215 A 
ATOM     20  HN  UNL     1     -41.829 -47.440   8.536  1.00  0.00     0.185 HD
HETATM   21  N   UNL     1     -44.808 -48.211   7.477  1.00  0.00    -0.280 N 
HETATM   22  N   UNL     1     -44.993 -47.694   8.710  1.00  0.00    -0.127 N 
ATOM     23  HN  UNL     1     -45.497 -48.566   6.815  1.00  0.00     0.188 HD
HETATM   24  C   UNL     1     -46.322 -47.588   9.249  1.00  0.00     0.197 C 
ENDBRANCH   4  17
TORSDOF 5
ENDMDL
MODEL 2
REMARK VINA RESULT:      -6.6      1.639      2.336
REMARK  5 active torsions:
REMARK  status: ('A' for Active; 'I' for Inactive)
REMARK    1  A    between atoms: C_2  and  C_3 
REMARK    2  A    between atoms: C_2  and  N_17 
REMARK    3  A    between atoms: C_3  and  C_4 
REMARK    4  A    between atoms: C_4  and  N_5 
REMARK       I    between atoms: N_5  and  C_6 
REMARK       I    between atoms: C_6  and  N_8 
REMARK    5  A    between atoms: N_8  and  C_9 
ROOT
HETATM    1  N   UNL     1     -42.318 -49.785  11.803  1.00  0.00    -0.342 N 
HETATM    2  C   UNL     1     -41.187 -49.447  11.122  1.00  0.00     0.334 C 
HETATM    3  O   UNL     1     -40.090 -49.957  11.331  1.00  0.00    -0.247 OA
HETATM    4  N   UNL     1     -41.310 -48.490  10.148  1.00  0.00    -0.140 N 
HETATM    5  H   UNL     1     -43.159 -49.270  11.561  1.00  0.00     0.164 HD
HETATM    6  H   UNL     1     -40.451 -48.285   9.664  1.00  0.00     0.189 HD
ENDROOT
BRANCH   1   7
HETATM    7  C   UNL     1     -42.379 -50.774  12.859  1.00  0.00     0.126 C 
BRANCH   7   8
HETATM    8  C   UNL     1     -42.692 -52.174  12.324  1.00  0.00     0.055 C 
BRANCH   8   9
HETATM    9  C   UNL     1     -43.390 -53.096  13.368  1.00  0.00     0.220 C 
HETATM   10  C   UNL     1     -42.414 -54.223  13.769  1.00  0.00     0.043 C 
BRANCH   9  11
HETATM   11  N   UNL     1     -44.674 -53.645  12.840  1.00  0.00     0.092 N 
HETATM   12  C   UNL     1     -45.689 -52.610  12.546  1.00  0.00     0.273 C 
HETATM   13  C   UNL     1     -46.252 -51.942  13.802  1.00  0.00     0.030 C 
HETATM   14  C   UNL     1     -46.901 -52.983  14.706  1.00  0.00     0.003 C 
HETATM   15  C   UNL     1     -45.952 -54.150  14.972  1.00  0.00     0.030 C 
HETATM   16  C   UNL     1     -45.312 -54.678  13.682  1.00  0.00     0.273 C 
ENDBRANCH   9  11
ENDBRANCH   8   9
ENDBRANCH   7   8
ENDBRANCH   1   7
BRANCH   4  17
HETATM   17  C   UNL     1     -42.474 -47.823   9.836  1.00  0.00     0.703 A 
HETATM   18  N   UNL     1     -43.325 -48.121   8.876  1.00  0.00    -0.185 N 
HETATM   19  C   UNL     1     -44.301 -47.178   9.004  1.00  0.00     0.215 A 
ATOM     20  HN  UNL     1     -43.268 -48.880   8.196  1.00  0.00     0.185 HD
HETATM   21  N   UNL     1     -44.111 -46.293   9.981  1.00  0.00    -0.280 N 
HETATM   22  N   UNL     1     -42.940 -46.716  10.503  1.00  0.00    -0.127 N 
ATOM     23  HN  UNL     1     -44.694 -45.504  10.260  1.00  0.00     0.188 HD
HETATM   24  C   UNL     1     -42.356 -46.014  11.614  1.00  0.00     0.197 C 
ENDBRANCH   4  17
TORSDOF 5
ENDMDL
MODEL 3
REMARK VINA RESULT:      -5.9      3.125      4.213
REMARK  5 active torsions:
REMARK  status: ('A' for Active; 'I' for Inactive)
REMARK    1  A    between atoms: C_2  and  C_3 
REMARK    2  A    between atoms: C_2  and  N_17 
REMARK    3  A    between atoms: C_3  and  C_4 
REMARK    4  A    between atoms: C_4  and  N_5 
REMARK       I    between atoms: N_5  and  C_6 
REMARK       I    between atoms: C_6  and  N_8 
REMARK    5  A    between atoms: N_8  and  C_9 
ROOT
HETATM    1  N   UNL     1     -41.154 -52.269  12.604  1.00  0.00    -0.342 N 
HETATM    2  C   UNL     1     -39.851 -51.908  12.765  1.00  0.00     0.334 C 
HETATM    3  O   UNL     1     -38.999 -52.640  13.264  1.00  0.00    -0.247 OA
HETATM    4  N   UNL     1     -39.492 -50.659  12.328  1.00  0.00    -0.140 N 
HETATM    5  H   UNL     1     -41.769 -51.565  12.207  1.00  0.00     0.164 HD
HETATM    6  H   UNL     1     -38.516 -50.444  12.457  1.00  0.00     0.189 HD
ENDROOT
BRANCH   1   7
HETATM    7  C   UNL     1     -41.711 -53.546  13.000  1.00  0.00     0.126 C 
BRANCH   7   8
HETATM    8  C   UNL     1     -43.211 -53.639  12.710  1.00  0.00     0.055 C 
BRANCH   8   9
HETATM    9  C   UNL     1     -44.084 -53.795  13.991  1.00  0.00     0.220 C 
HETATM   10  C   UNL     1     -43.617 -55.047  14.763  1.00  0.00     0.043 C 
BRANCH   9  11
HETATM   11  N   UNL     1     -45.537 -53.867  13.656  1.00  0.00     0.092 N 
HETATM   12  C   UNL     1     -46.028 -52.709  12.879  1.00  0.00     0.273 C 
HETATM   13  C   UNL     1     -46.067 -51.411  13.688  1.00  0.00     0.030 C 
HETATM   14  C   UNL     1     -46.977 -51.574  14.900  1.00  0.00     0.003 C 
HETATM   15  C   UNL     1     -46.606 -52.818  15.703  1.00  0.00     0.030 C 
HETATM   16  C   UNL     1     -46.442 -54.054  14.810  1.00  0.00     0.273 C 
ENDBRANCH   9  11
ENDBRANCH   8   9
ENDBRANCH   7   8
ENDBRANCH   1   7
BRANCH   4  17
HETATM   17  C   UNL     1     -40.353 -49.735  11.780  1.00  0.00     0.703 A 
HETATM   18  N   UNL     1     -40.680 -49.613  10.510  1.00  0.00    -0.185 N 
HETATM   19  C   UNL     1     -41.564 -48.576  10.501  1.00  0.00     0.215 A 
ATOM     20  HN  UNL     1     -40.349 -50.166   9.718  1.00  0.00     0.185 HD
HETATM   21  N   UNL     1     -41.807 -48.026  11.690  1.00  0.00    -0.280 N 
HETATM   22  N   UNL     1     -41.026 -48.776  12.496  1.00  0.00    -0.127 N 
ATOM     23  HN  UNL     1     -42.419 -47.246  11.927  1.00  0.00     0.188 HD
HETATM   24  C   UNL     1     -40.988 -48.505  13.908  1.00  0.00     0.197 C 
ENDBRANCH   4  17
TORSDOF 5
ENDMDL
MODEL 4
REMARK VINA RESULT:      -5.9      3.241      5.085
REMARK  5 active torsions:
REMARK  status: ('A' for Active; 'I' for Inactive)
REMARK    1  A    between atoms: C_2  and  C_3 
REMARK    2  A    between atoms: C_2  and  N_17 
REMARK    3  A    between atoms: C_3  and  C_4 
REMARK    4  A    between atoms: C_4  and  N_5 
REMARK       I    between atoms: N_5  and  C_6 
REMARK       I    between atoms: C_6  and  N_8 
REMARK    5  A    between atoms: N_8  and  C_9 
ROOT
HETATM    1  N   UNL     1     -43.019 -47.551  11.100  1.00  0.00    -0.342 N 
HETATM    2  C   UNL     1     -43.009 -46.283  10.602  1.00  0.00     0.334 C 
HETATM    3  O   UNL     1     -42.211 -45.419  10.959  1.00  0.00    -0.247 OA
HETATM    4  N   UNL     1     -43.943 -45.983   9.646  1.00  0.00    -0.140 N 
HETATM    5  H   UNL     1     -43.747 -48.165  10.748  1.00  0.00     0.164 HD
HETATM    6  H   UNL     1     -43.887 -45.038   9.299  1.00  0.00     0.189 HD
ENDROOT
BRANCH   1   7
HETATM    7  C   UNL     1     -42.107 -48.048  12.109  1.00  0.00     0.126 C 
BRANCH   7   8
HETATM    8  C   UNL     1     -41.337 -49.283  11.638  1.00  0.00     0.055 C 
BRANCH   8   9
HETATM    9  C   UNL     1     -40.678 -50.086  12.799  1.00  0.00     0.220 C 
HETATM   10  C   UNL     1     -41.722 -50.293  13.917  1.00  0.00     0.043 C 
BRANCH   9  11
HETATM   11  N   UNL     1     -39.455 -49.400  13.311  1.00  0.00     0.092 N 
HETATM   12  C   UNL     1     -38.489 -49.034  12.253  1.00  0.00     0.273 C 
HETATM   13  C   UNL     1     -37.797 -50.244  11.621  1.00  0.00     0.030 C 
HETATM   14  C   UNL     1     -37.042 -51.032  12.685  1.00  0.00     0.003 C 
HETATM   15  C   UNL     1     -37.944 -51.358  13.873  1.00  0.00     0.030 C 
HETATM   16  C   UNL     1     -38.717 -50.128  14.365  1.00  0.00     0.273 C 
ENDBRANCH   9  11
ENDBRANCH   8   9
ENDBRANCH   7   8
ENDBRANCH   1   7
BRANCH   4  17
HETATM   17  C   UNL     1     -44.908 -46.848   9.182  1.00  0.00     0.703 A 
HETATM   18  N   UNL     1     -46.161 -46.926   9.581  1.00  0.00    -0.185 N 
HETATM   19  C   UNL     1     -46.688 -47.914   8.804  1.00  0.00     0.215 A 
ATOM     20  HN  UNL     1     -46.627 -46.376  10.303  1.00  0.00     0.185 HD
HETATM   21  N   UNL     1     -45.839 -48.475   7.945  1.00  0.00    -0.280 N 
HETATM   22  N   UNL     1     -44.707 -47.785   8.197  1.00  0.00    -0.127 N 
ATOM     23  HN  UNL     1     -46.002 -49.225   7.274  1.00  0.00     0.188 HD
HETATM   24  C   UNL     1     -43.507 -48.086   7.464  1.00  0.00     0.197 C 
ENDBRANCH   4  17
TORSDOF 5
ENDMDL
MODEL 5
REMARK VINA RESULT:      -5.8      2.223      3.168
REMARK  5 active torsions:
REMARK  status: ('A' for Active; 'I' for Inactive)
REMARK    1  A    between atoms: C_2  and  C_3 
REMARK    2  A    between atoms: C_2  and  N_17 
REMARK    3  A    between atoms: C_3  and  C_4 
REMARK    4  A    between atoms: C_4  and  N_5 
REMARK       I    between atoms: N_5  and  C_6 
REMARK       I    between atoms: C_6  and  N_8 
REMARK    5  A    between atoms: N_8  and  C_9 
ROOT
HETATM    1  N   UNL     1     -42.787 -47.972  11.126  1.00  0.00    -0.342 N 
HETATM    2  C   UNL     1     -42.732 -46.656  10.781  1.00  0.00     0.334 C 
HETATM    3  O   UNL     1     -41.901 -45.870  11.229  1.00  0.00    -0.247 OA
HETATM    4  N   UNL     1     -43.657 -46.211   9.873  1.00  0.00    -0.140 N 
HETATM    5  H   UNL     1     -43.539 -48.514  10.711  1.00  0.00     0.164 HD
HETATM    6  H   UNL     1     -43.567 -45.235   9.639  1.00  0.00     0.189 HD
ENDROOT
BRANCH   1   7
HETATM    7  C   UNL     1     -41.891 -48.617  12.063  1.00  0.00     0.126 C 
BRANCH   7   8
HETATM    8  C   UNL     1     -41.224 -49.858  11.467  1.00  0.00     0.055 C 
BRANCH   8   9
HETATM    9  C   UNL     1     -40.615 -50.812  12.539  1.00  0.00     0.220 C 
HETATM   10  C   UNL     1     -39.081 -50.640  12.545  1.00  0.00     0.043 C 
BRANCH   9  11
HETATM   11  N   UNL     1     -41.007 -52.231  12.293  1.00  0.00     0.092 N 
HETATM   12  C   UNL     1     -42.468 -52.454  12.289  1.00  0.00     0.273 C 
HETATM   13  C   UNL     1     -43.107 -52.301  13.671  1.00  0.00     0.030 C 
HETATM   14  C   UNL     1     -42.490 -53.294  14.648  1.00  0.00     0.003 C 
HETATM   15  C   UNL     1     -40.966 -53.206  14.634  1.00  0.00     0.030 C 
HETATM   16  C   UNL     1     -40.400 -53.221  13.208  1.00  0.00     0.273 C 
ENDBRANCH   9  11
ENDBRANCH   8   9
ENDBRANCH   7   8
ENDBRANCH   1   7
BRANCH   4  17
HETATM   17  C   UNL     1     -44.655 -46.981   9.318  1.00  0.00     0.703 A 
HETATM   18  N   UNL     1     -45.907 -47.065   9.720  1.00  0.00    -0.185 N 
HETATM   19  C   UNL     1     -46.474 -47.932   8.835  1.00  0.00     0.215 A 
ATOM     20  HN  UNL     1     -46.348 -46.593  10.510  1.00  0.00     0.185 HD
HETATM   21  N   UNL     1     -45.652 -48.412   7.903  1.00  0.00    -0.280 N 
HETATM   22  N   UNL     1     -44.495 -47.796   8.225  1.00  0.00    -0.127 N 
ATOM     23  HN  UNL     1     -45.846 -49.069   7.148  1.00  0.00     0.188 HD
HETATM   24  C   UNL     1     -43.312 -48.045   7.446  1.00  0.00     0.197 C 
ENDBRANCH   4  17
TORSDOF 5
ENDMDL
MODEL 6
REMARK VINA RESULT:      -5.7      2.539      3.509
REMARK  5 active torsions:
REMARK  status: ('A' for Active; 'I' for Inactive)
REMARK    1  A    between atoms: C_2  and  C_3 
REMARK    2  A    between atoms: C_2  and  N_17 
REMARK    3  A    between atoms: C_3  and  C_4 
REMARK    4  A    between atoms: C_4  and  N_5 
REMARK       I    between atoms: N_5  and  C_6 
REMARK       I    between atoms: C_6  and  N_8 
REMARK    5  A    between atoms: N_8  and  C_9 
ROOT
HETATM    1  N   UNL     1     -41.565 -50.306  11.383  1.00  0.00    -0.342 N 
HETATM    2  C   UNL     1     -40.553 -49.407  11.233  1.00  0.00     0.334 C 
HETATM    3  O   UNL     1     -39.397 -49.618  11.590  1.00  0.00    -0.247 OA
HETATM    4  N   UNL     1     -40.866 -48.212  10.638  1.00  0.00    -0.140 N 
HETATM    5  H   UNL     1     -42.484 -50.003  11.076  1.00  0.00     0.164 HD
HETATM    6  H   UNL     1     -40.082 -47.586  10.537  1.00  0.00     0.189 HD
ENDROOT
BRANCH   1   7
HETATM    7  C   UNL     1     -41.421 -51.616  11.984  1.00  0.00     0.126 C 
BRANCH   7   8
HETATM    8  C   UNL     1     -42.124 -51.712  13.340  1.00  0.00     0.055 C 
BRANCH   8   9
HETATM    9  C   UNL     1     -42.752 -53.111  13.617  1.00  0.00     0.220 C 
HETATM   10  C   UNL     1     -43.880 -53.362  12.595  1.00  0.00     0.043 C 
BRANCH   9  11
HETATM   11  N   UNL     1     -43.250 -53.218  15.021  1.00  0.00     0.092 N 
HETATM   12  C   UNL     1     -42.251 -52.829  16.039  1.00  0.00     0.273 C 
HETATM   13  C   UNL     1     -41.090 -53.820  16.157  1.00  0.00     0.030 C 
HETATM   14  C   UNL     1     -41.615 -55.202  16.527  1.00  0.00     0.003 C 
HETATM   15  C   UNL     1     -42.735 -55.636  15.584  1.00  0.00     0.030 C 
HETATM   16  C   UNL     1     -43.791 -54.540  15.399  1.00  0.00     0.273 C 
ENDBRANCH   9  11
ENDBRANCH   8   9
ENDBRANCH   7   8
ENDBRANCH   1   7
BRANCH   4  17
HETATM   17  C   UNL     1     -42.124 -47.841  10.220  1.00  0.00     0.703 A 
HETATM   18  N   UNL     1     -42.627 -47.969   9.009  1.00  0.00    -0.185 N 
HETATM   19  C   UNL     1     -43.892 -47.476   9.129  1.00  0.00     0.215 A 
ATOM     20  HN  UNL     1     -42.176 -48.348   8.176  1.00  0.00     0.185 HD
HETATM   21  N   UNL     1     -44.215 -47.032  10.343  1.00  0.00    -0.280 N 
HETATM   22  N   UNL     1     -43.077 -47.270  11.028  1.00  0.00    -0.127 N 
ATOM     23  HN  UNL     1     -45.090 -46.621  10.667  1.00  0.00     0.188 HD
HETATM   24  C   UNL     1     -42.996 -46.926  12.422  1.00  0.00     0.197 C 
ENDBRANCH   4  17
TORSDOF 5
ENDMDL
MODEL 7
REMARK VINA RESULT:      -5.6      3.534      5.323
REMARK  5 active torsions:
REMARK  status: ('A' for Active; 'I' for Inactive)
REMARK    1  A    between atoms: C_2  and  C_3 
REMARK    2  A    between atoms: C_2  and  N_17 
REMARK    3  A    between atoms: C_3  and  C_4 
REMARK    4  A    between atoms: C_4  and  N_5 
REMARK       I    between atoms: N_5  and  C_6 
REMARK       I    between atoms: C_6  and  N_8 
REMARK    5  A    between atoms: N_8  and  C_9 
ROOT
HETATM    1  N   UNL     1     -42.319 -48.820  11.131  1.00  0.00    -0.342 N 
HETATM    2  C   UNL     1     -43.105 -47.775  11.512  1.00  0.00     0.334 C 
HETATM    3  O   UNL     1     -43.145 -47.338  12.659  1.00  0.00    -0.247 OA
HETATM    4  N   UNL     1     -43.876 -47.190  10.541  1.00  0.00    -0.140 N 
HETATM    5  H   UNL     1     -42.396 -49.110  10.161  1.00  0.00     0.164 HD
HETATM    6  H   UNL     1     -44.429 -46.414  10.869  1.00  0.00     0.189 HD
ENDROOT
BRANCH   1   7
HETATM    7  C   UNL     1     -41.439 -49.555  12.016  1.00  0.00     0.126 C 
BRANCH   7   8
HETATM    8  C   UNL     1     -39.984 -49.095  11.900  1.00  0.00     0.055 C 
BRANCH   8   9
HETATM    9  C   UNL     1     -39.041 -49.744  12.957  1.00  0.00     0.220 C 
HETATM   10  C   UNL     1     -39.263 -51.271  12.951  1.00  0.00     0.043 C 
BRANCH   9  11
HETATM   11  N   UNL     1     -39.259 -49.163  14.314  1.00  0.00     0.092 N 
HETATM   12  C   UNL     1     -38.810 -47.760  14.441  1.00  0.00     0.273 C 
HETATM   13  C   UNL     1     -37.288 -47.606  14.394  1.00  0.00     0.030 C 
HETATM   14  C   UNL     1     -36.645 -48.402  15.523  1.00  0.00     0.003 C 
HETATM   15  C   UNL     1     -37.142 -49.845  15.531  1.00  0.00     0.030 C 
HETATM   16  C   UNL     1     -38.670 -49.930  15.432  1.00  0.00     0.273 C 
ENDBRANCH   9  11
ENDBRANCH   8   9
ENDBRANCH   7   8
ENDBRANCH   1   7
BRANCH   4  17
HETATM   17  C   UNL     1     -43.944 -47.602   9.229  1.00  0.00     0.703 A 
HETATM   18  N   UNL     1     -42.935 -47.774   8.399  1.00  0.00    -0.185 N 
HETATM   19  C   UNL     1     -43.530 -48.201   7.250  1.00  0.00     0.215 A 
ATOM     20  HN  UNL     1     -41.942 -47.623   8.576  1.00  0.00     0.185 HD
HETATM   21  N   UNL     1     -44.858 -48.297   7.300  1.00  0.00    -0.280 N 
HETATM   22  N   UNL     1     -45.107 -47.911   8.568  1.00  0.00    -0.127 N 
ATOM     23  HN  UNL     1     -45.511 -48.586   6.572  1.00  0.00     0.188 HD
HETATM   24  C   UNL     1     -46.462 -47.869   9.050  1.00  0.00     0.197 C 
ENDBRANCH   4  17
TORSDOF 5
ENDMDL
MODEL 8
REMARK VINA RESULT:      -5.4      3.152      4.447
REMARK  5 active torsions:
REMARK  status: ('A' for Active; 'I' for Inactive)
REMARK    1  A    between atoms: C_2  and  C_3 
REMARK    2  A    between atoms: C_2  and  N_17 
REMARK    3  A    between atoms: C_3  and  C_4 
REMARK    4  A    between atoms: C_4  and  N_5 
REMARK       I    between atoms: N_5  and  C_6 
REMARK       I    between atoms: C_6  and  N_8 
REMARK    5  A    between atoms: N_8  and  C_9 
ROOT
HETATM    1  N   UNL     1     -41.318 -51.822  13.451  1.00  0.00    -0.342 N 
HETATM    2  C   UNL     1     -40.786 -52.235  12.267  1.00  0.00     0.334 C 
HETATM    3  O   UNL     1     -40.473 -53.399  12.032  1.00  0.00    -0.247 OA
HETATM    4  N   UNL     1     -40.610 -51.282  11.298  1.00  0.00    -0.140 N 
HETATM    5  H   UNL     1     -41.507 -50.827  13.535  1.00  0.00     0.164 HD
HETATM    6  H   UNL     1     -40.226 -51.639  10.437  1.00  0.00     0.189 HD
ENDROOT
BRANCH   1   7
HETATM    7  C   UNL     1     -41.578 -52.685  14.584  1.00  0.00     0.126 C 
BRANCH   7   8
HETATM    8  C   UNL     1     -42.553 -53.814  14.240  1.00  0.00     0.055 C 
BRANCH   8   9
HETATM    9  C   UNL     1     -44.024 -53.333  14.060  1.00  0.00     0.220 C 
HETATM   10  C   UNL     1     -44.354 -53.291  12.553  1.00  0.00     0.043 C 
BRANCH   9  11
HETATM   11  N   UNL     1     -44.247 -52.006  14.707  1.00  0.00     0.092 N 
HETATM   12  C   UNL     1     -44.739 -52.097  16.099  1.00  0.00     0.273 C 
HETATM   13  C   UNL     1     -46.173 -52.619  16.201  1.00  0.00     0.030 C 
HETATM   14  C   UNL     1     -47.121 -51.705  15.434  1.00  0.00     0.003 C 
HETATM   15  C   UNL     1     -46.625 -51.469  14.009  1.00  0.00     0.030 C 
HETATM   16  C   UNL     1     -45.140 -51.087  13.971  1.00  0.00     0.273 C 
ENDBRANCH   9  11
ENDBRANCH   8   9
ENDBRANCH   7   8
ENDBRANCH   1   7
BRANCH   4  17
HETATM   17  C   UNL     1     -40.892 -49.942  11.443  1.00  0.00     0.703 A 
HETATM   18  N   UNL     1     -42.056 -49.353  11.260  1.00  0.00    -0.185 N 
HETATM   19  C   UNL     1     -41.806 -48.045  11.549  1.00  0.00     0.215 A 
ATOM     20  HN  UNL     1     -42.938 -49.777  10.970  1.00  0.00     0.185 HD
HETATM   21  N   UNL     1     -40.549 -47.769  11.892  1.00  0.00    -0.280 N 
HETATM   22  N   UNL     1     -39.977 -48.989  11.820  1.00  0.00    -0.127 N 
ATOM     23  HN  UNL     1     -40.130 -46.874  12.144  1.00  0.00     0.188 HD
HETATM   24  C   UNL     1     -38.579 -49.143  12.121  1.00  0.00     0.197 C 
ENDBRANCH   4  17
TORSDOF 5
ENDMDL
MODEL 9
REMARK VINA RESULT:      -5.4      2.993      5.010
REMARK  5 active torsions:
REMARK  status: ('A' for Active; 'I' for Inactive)
REMARK    1  A    between atoms: C_2  and  C_3 
REMARK    2  A    between atoms: C_2  and  N_17 
REMARK    3  A    between atoms: C_3  and  C_4 
REMARK    4  A    between atoms: C_4  and  N_5 
REMARK       I    between atoms: N_5  and  C_6 
REMARK       I    between atoms: C_6  and  N_8 
REMARK    5  A    between atoms: N_8  and  C_9 
ROOT
HETATM    1  N   UNL     1     -43.404 -51.571  12.571  1.00  0.00    -0.342 N 
HETATM    2  C   UNL     1     -43.573 -50.664  13.572  1.00  0.00     0.334 C 
HETATM    3  O   UNL     1     -44.072 -50.937  14.660  1.00  0.00    -0.247 OA
HETATM    4  N   UNL     1     -43.145 -49.384  13.331  1.00  0.00    -0.140 N 
HETATM    5  H   UNL     1     -43.008 -51.217  11.706  1.00  0.00     0.164 HD
HETATM    6  H   UNL     1     -43.279 -48.754  14.105  1.00  0.00     0.189 HD
ENDROOT
BRANCH   1   7
HETATM    7  C   UNL     1     -43.792 -52.964  12.647  1.00  0.00     0.126 C 
BRANCH   7   8
HETATM    8  C   UNL     1     -42.584 -53.895  12.786  1.00  0.00     0.055 C 
BRANCH   8   9
HETATM    9  C   UNL     1     -42.371 -54.424  14.236  1.00  0.00     0.220 C 
HETATM   10  C   UNL     1     -43.736 -54.475  14.954  1.00  0.00     0.043 C 
BRANCH   9  11
HETATM   11  N   UNL     1     -41.388 -53.586  14.984  1.00  0.00     0.092 N 
HETATM   12  C   UNL     1     -40.154 -53.292  14.225  1.00  0.00     0.273 C 
HETATM   13  C   UNL     1     -39.264 -54.520  14.021  1.00  0.00     0.030 C 
HETATM   14  C   UNL     1     -38.851 -55.099  15.369  1.00  0.00     0.003 C 
HETATM   15  C   UNL     1     -40.066 -55.331  16.264  1.00  0.00     0.030 C 
HETATM   16  C   UNL     1     -40.991 -54.108  16.308  1.00  0.00     0.273 C 
ENDBRANCH   9  11
ENDBRANCH   8   9
ENDBRANCH   7   8
ENDBRANCH   1   7
BRANCH   4  17
HETATM   17  C   UNL     1     -42.597 -48.942  12.147  1.00  0.00     0.703 A 
HETATM   18  N   UNL     1     -43.230 -48.365  11.147  1.00  0.00    -0.185 N 
HETATM   19  C   UNL     1     -42.244 -48.109  10.243  1.00  0.00     0.215 A 
ATOM     20  HN  UNL     1     -44.226 -48.157  11.069  1.00  0.00     0.185 HD
HETATM   21  N   UNL     1     -41.024 -48.503  10.606  1.00  0.00    -0.280 N 
HETATM   22  N   UNL     1     -41.265 -49.033  11.823  1.00  0.00    -0.127 N 
ATOM     23  HN  UNL     1     -40.143 -48.424  10.099  1.00  0.00     0.188 HD
HETATM   24  C   UNL     1     -40.182 -49.593  12.587  1.00  0.00     0.197 C 
ENDBRANCH   4  17
TORSDOF 5
ENDMDL
