MODEL 1
REMARK VINA RESULT:      -6.1      0.000      0.000
REMARK  4 active torsions:
REMARK  status: ('A' for Active; 'I' for Inactive)
REMARK    1  A    between atoms: C_2  and  C_3 
REMARK       I    between atoms: C_2  and  N_12 
REMARK    2  A    between atoms: C_3  and  N_4 
REMARK    3  A    between atoms: N_12  and  C_13 
REMARK    4  A    between atoms: C_13  and  C_14 
ROOT
HETATM    1  O   UNL     1     -42.221 -49.450  12.550  1.00  0.00    -0.272 OA
HETATM    2  C   UNL     1     -41.437 -49.770  11.655  1.00  0.00     0.237 C 
HETATM    3  N   UNL     1     -41.138 -48.931  10.611  1.00  0.00    -0.357 N 
HETATM    4  H   UNL     1     -40.356 -49.123   9.995  1.00  0.00     0.162 HD
ENDROOT
BRANCH   2   5
HETATM    5  C   UNL     1     -40.789 -51.155  11.583  1.00  0.00     0.255 C 
BRANCH   5   6
HETATM    6  N   UNL     1     -41.537 -52.197  12.285  1.00  0.00    -0.246 N 
HETATM    7  N   UNL     1     -42.862 -52.410  11.833  1.00  0.00    -0.261 N 
HETATM    8  C   UNL     1     -43.697 -53.292  12.464  1.00  0.00     0.260 C 
HETATM    9  H   UNL     1     -43.355 -51.605  11.446  1.00  0.00     0.190 HD
HETATM   10  O   UNL     1     -44.910 -53.300  12.294  1.00  0.00    -0.267 OA
HETATM   11  C   UNL     1     -43.051 -54.270  13.352  1.00  0.00     0.081 C 
HETATM   12  C   UNL     1     -41.747 -54.201  13.624  1.00  0.00     0.081 C 
HETATM   13  C   UNL     1     -40.891 -53.134  13.061  1.00  0.00     0.262 C 
HETATM   14  O   UNL     1     -39.690 -53.123  13.311  1.00  0.00    -0.267 OA
ENDBRANCH   5   6
ENDBRANCH   2   5
BRANCH   3  15
HETATM   15  C   UNL     1     -41.746 -47.612  10.500  1.00  0.00     0.154 C 
BRANCH  15  16
HETATM   16  C   UNL     1     -42.981 -47.629   9.602  1.00  0.00     0.139 C 
HETATM   17  C   UNL     1     -43.245 -46.329   8.852  1.00  0.00     0.035 C 
HETATM   18  C   UNL     1     -44.756 -46.195   8.844  1.00  0.00     0.029 C 
HETATM   19  C   UNL     1     -45.260 -47.414   9.589  1.00  0.00     0.168 C 
HETATM   20  O   UNL     1     -44.163 -47.863  10.389  1.00  0.00    -0.384 OA
ENDBRANCH  15  16
ENDBRANCH   3  15
TORSDOF 4
ENDMDL
MODEL 2
REMARK VINA RESULT:      -5.7      1.768      2.576
REMARK  4 active torsions:
REMARK  status: ('A' for Active; 'I' for Inactive)
REMARK    1  A    between atoms: C_2  and  C_3 
REMARK       I    between atoms: C_2  and  N_12 
REMARK    2  A    between atoms: C_3  and  N_4 
REMARK    3  A    between atoms: N_12  and  C_13 
REMARK    4  A    between atoms: C_13  and  C_14 
ROOT
HETATM    1  O   UNL     1     -42.119 -49.441  12.556  1.00  0.00    -0.272 OA
HETATM    2  C   UNL     1     -41.331 -49.768  11.667  1.00  0.00     0.237 C 
HETATM    3  N   UNL     1     -40.995 -48.921  10.641  1.00  0.00    -0.357 N 
HETATM    4  H   UNL     1     -40.209 -49.125  10.032  1.00  0.00     0.162 HD
ENDROOT
BRANCH   2   5
HETATM    5  C   UNL     1     -40.719 -51.169  11.582  1.00  0.00     0.255 C 
BRANCH   5   6
HETATM    6  N   UNL     1     -41.490 -52.196  12.281  1.00  0.00    -0.246 N 
HETATM    7  N   UNL     1     -42.811 -52.397  11.812  1.00  0.00    -0.261 N 
HETATM    8  C   UNL     1     -43.666 -53.263  12.437  1.00  0.00     0.260 C 
HETATM    9  H   UNL     1     -43.288 -51.588  11.412  1.00  0.00     0.190 HD
HETATM   10  O   UNL     1     -44.876 -53.257  12.250  1.00  0.00    -0.267 OA
HETATM   11  C   UNL     1     -43.045 -54.243  13.341  1.00  0.00     0.081 C 
HETATM   12  C   UNL     1     -41.744 -54.188  13.631  1.00  0.00     0.081 C 
HETATM   13  C   UNL     1     -40.867 -53.136  13.073  1.00  0.00     0.262 C 
HETATM   14  O   UNL     1     -39.669 -53.138  13.340  1.00  0.00    -0.267 OA
ENDBRANCH   5   6
ENDBRANCH   2   5
BRANCH   3  15
HETATM   15  C   UNL     1     -41.566 -47.585  10.543  1.00  0.00     0.154 C 
BRANCH  15  16
HETATM   16  C   UNL     1     -40.518 -46.500  10.784  1.00  0.00     0.139 C 
HETATM   17  C   UNL     1     -40.325 -46.111  12.245  1.00  0.00     0.035 C 
HETATM   18  C   UNL     1     -40.081 -44.615  12.210  1.00  0.00     0.029 C 
HETATM   19  C   UNL     1     -40.154 -44.241  10.745  1.00  0.00     0.168 C 
HETATM   20  O   UNL     1     -40.899 -45.286  10.112  1.00  0.00    -0.384 OA
ENDBRANCH  15  16
ENDBRANCH   3  15
TORSDOF 4
ENDMDL
MODEL 3
REMARK VINA RESULT:      -5.7      2.749      3.878
REMARK  4 active torsions:
REMARK  status: ('A' for Active; 'I' for Inactive)
REMARK    1  A    between atoms: C_2  and  C_3 
REMARK       I    between atoms: C_2  and  N_12 
REMARK    2  A    between atoms: C_3  and  N_4 
REMARK    3  A    between atoms: N_12  and  C_13 
REMARK    4  A    between atoms: C_13  and  C_14 
ROOT
HETATM    1  O   UNL     1     -42.226 -50.438  12.697  1.00  0.00    -0.272 OA
HETATM    2  C   UNL     1     -41.398 -51.151  12.129  1.00  0.00     0.237 C 
HETATM    3  N   UNL     1     -40.469 -50.639  11.258  1.00  0.00    -0.357 N 
HETATM    4  H   UNL     1     -39.679 -51.198  10.950  1.00  0.00     0.162 HD
ENDROOT
BRANCH   2   5
HETATM    5  C   UNL     1     -41.380 -52.674  12.278  1.00  0.00     0.255 C 
BRANCH   5   6
HETATM    6  N   UNL     1     -42.610 -53.229  12.843  1.00  0.00    -0.246 N 
HETATM    7  N   UNL     1     -43.785 -53.012  12.083  1.00  0.00    -0.261 N 
HETATM    8  C   UNL     1     -45.014 -53.401  12.544  1.00  0.00     0.260 C 
HETATM    9  H   UNL     1     -43.823 -52.161  11.522  1.00  0.00     0.190 HD
HETATM   10  O   UNL     1     -46.064 -52.989  12.070  1.00  0.00    -0.267 OA
HETATM   11  C   UNL     1     -45.011 -54.380  13.641  1.00  0.00     0.081 C 
HETATM   12  C   UNL     1     -43.875 -54.752  14.233  1.00  0.00     0.081 C 
HETATM   13  C   UNL     1     -42.567 -54.191  13.829  1.00  0.00     0.262 C 
HETATM   14  O   UNL     1     -41.542 -54.581  14.378  1.00  0.00    -0.267 OA
ENDBRANCH   5   6
ENDBRANCH   2   5
BRANCH   3  15
HETATM   15  C   UNL     1     -40.420 -49.217  10.949  1.00  0.00     0.154 C 
BRANCH  15  16
HETATM   16  C   UNL     1     -39.344 -48.496  11.758  1.00  0.00     0.139 C 
HETATM   17  C   UNL     1     -38.136 -49.353  12.121  1.00  0.00     0.035 C 
HETATM   18  C   UNL     1     -37.752 -48.896  13.515  1.00  0.00     0.029 C 
HETATM   19  C   UNL     1     -38.758 -47.819  13.864  1.00  0.00     0.168 C 
HETATM   20  O   UNL     1     -39.885 -48.047  13.013  1.00  0.00    -0.384 OA
ENDBRANCH  15  16
ENDBRANCH   3  15
TORSDOF 4
ENDMDL
MODEL 4
REMARK VINA RESULT:      -5.7      3.761      6.119
REMARK  4 active torsions:
REMARK  status: ('A' for Active; 'I' for Inactive)
REMARK    1  A    between atoms: C_2  and  C_3 
REMARK       I    between atoms: C_2  and  N_12 
REMARK    2  A    between atoms: C_3  and  N_4 
REMARK    3  A    between atoms: N_12  and  C_13 
REMARK    4  A    between atoms: C_13  and  C_14 
ROOT
HETATM    1  O   UNL     1     -43.245 -55.320  15.076  1.00  0.00    -0.272 OA
HETATM    2  C   UNL     1     -43.714 -54.895  14.020  1.00  0.00     0.237 C 
HETATM    3  N   UNL     1     -42.931 -54.315  13.054  1.00  0.00    -0.357 N 
HETATM    4  H   UNL     1     -43.292 -54.147  12.120  1.00  0.00     0.162 HD
ENDROOT
BRANCH   2   5
HETATM    5  C   UNL     1     -45.216 -54.900  13.722  1.00  0.00     0.255 C 
BRANCH   5   6
HETATM    6  N   UNL     1     -45.913 -53.692  14.164  1.00  0.00    -0.246 N 
HETATM    7  N   UNL     1     -45.915 -53.463  15.561  1.00  0.00    -0.261 N 
HETATM    8  C   UNL     1     -46.608 -52.418  16.111  1.00  0.00     0.260 C 
HETATM    9  H   UNL     1     -45.890 -54.285  16.166  1.00  0.00     0.190 HD
HETATM   10  O   UNL     1     -46.871 -52.348  17.305  1.00  0.00    -0.267 OA
HETATM   11  C   UNL     1     -47.005 -51.348  15.184  1.00  0.00     0.081 C 
HETATM   12  C   UNL     1     -46.816 -51.467  13.869  1.00  0.00     0.081 C 
HETATM   13  C   UNL     1     -46.215 -52.682  13.276  1.00  0.00     0.262 C 
HETATM   14  O   UNL     1     -46.030 -52.741  12.065  1.00  0.00    -0.267 OA
ENDBRANCH   5   6
ENDBRANCH   2   5
BRANCH   3  15
HETATM   15  C   UNL     1     -41.494 -54.161  13.234  1.00  0.00     0.154 C 
BRANCH  15  16
HETATM   16  C   UNL     1     -41.082 -52.692  13.289  1.00  0.00     0.139 C 
HETATM   17  C   UNL     1     -41.875 -51.770  12.370  1.00  0.00     0.035 C 
HETATM   18  C   UNL     1     -40.857 -50.764  11.870  1.00  0.00     0.029 C 
HETATM   19  C   UNL     1     -39.552 -51.171  12.523  1.00  0.00     0.168 C 
HETATM   20  O   UNL     1     -39.709 -52.547  12.883  1.00  0.00    -0.384 OA
ENDBRANCH  15  16
ENDBRANCH   3  15
TORSDOF 4
ENDMDL
MODEL 5
REMARK VINA RESULT:      -5.7      1.649      6.852
REMARK  4 active torsions:
REMARK  status: ('A' for Active; 'I' for Inactive)
REMARK    1  A    between atoms: C_2  and  C_3 
REMARK       I    between atoms: C_2  and  N_12 
REMARK    2  A    between atoms: C_3  and  N_4 
REMARK    3  A    between atoms: N_12  and  C_13 
REMARK    4  A    between atoms: C_13  and  C_14 
ROOT
HETATM    1  O   UNL     1     -42.181 -50.117  12.799  1.00  0.00    -0.272 OA
HETATM    2  C   UNL     1     -41.343 -50.440  11.956  1.00  0.00     0.237 C 
HETATM    3  N   UNL     1     -41.152 -51.745  11.578  1.00  0.00    -0.357 N 
HETATM    4  H   UNL     1     -40.605 -51.976  10.755  1.00  0.00     0.162 HD
ENDROOT
BRANCH   2   5
HETATM    5  C   UNL     1     -40.387 -49.431  11.315  1.00  0.00     0.255 C 
BRANCH   5   6
HETATM    6  N   UNL     1     -41.054 -48.253  10.759  1.00  0.00    -0.246 N 
HETATM    7  N   UNL     1     -42.304 -48.493  10.138  1.00  0.00    -0.261 N 
HETATM    8  C   UNL     1     -42.987 -47.493   9.500  1.00  0.00     0.260 C 
HETATM    9  H   UNL     1     -42.437 -49.405   9.701  1.00  0.00     0.190 HD
HETATM   10  O   UNL     1     -43.907 -47.706   8.721  1.00  0.00    -0.267 OA
HETATM   11  C   UNL     1     -42.572 -46.120   9.824  1.00  0.00     0.081 C 
HETATM   12  C   UNL     1     -41.504 -45.882  10.588  1.00  0.00     0.081 C 
HETATM   13  C   UNL     1     -40.677 -46.982  11.133  1.00  0.00     0.262 C 
HETATM   14  O   UNL     1     -39.721 -46.722  11.855  1.00  0.00    -0.267 OA
ENDBRANCH   5   6
ENDBRANCH   2   5
BRANCH   3  15
HETATM   15  C   UNL     1     -41.929 -52.827  12.167  1.00  0.00     0.154 C 
BRANCH  15  16
HETATM   16  C   UNL     1     -41.038 -53.852  12.866  1.00  0.00     0.139 C 
HETATM   17  C   UNL     1     -41.528 -54.295  14.240  1.00  0.00     0.035 C 
HETATM   18  C   UNL     1     -40.263 -54.462  15.058  1.00  0.00     0.029 C 
HETATM   19  C   UNL     1     -39.136 -54.102  14.113  1.00  0.00     0.168 C 
HETATM   20  O   UNL     1     -39.728 -53.300  13.087  1.00  0.00    -0.384 OA
ENDBRANCH  15  16
ENDBRANCH   3  15
TORSDOF 4
ENDMDL
MODEL 6
REMARK VINA RESULT:      -5.4      2.382      5.369
REMARK  4 active torsions:
REMARK  status: ('A' for Active; 'I' for Inactive)
REMARK    1  A    between atoms: C_2  and  C_3 
REMARK       I    between atoms: C_2  and  N_12 
REMARK    2  A    between atoms: C_3  and  N_4 
REMARK    3  A    between atoms: N_12  and  C_13 
REMARK    4  A    between atoms: C_13  and  C_14 
ROOT
HETATM    1  O   UNL     1     -42.095 -52.347  14.157  1.00  0.00    -0.272 OA
HETATM    2  C   UNL     1     -42.219 -52.829  13.031  1.00  0.00     0.237 C 
HETATM    3  N   UNL     1     -43.184 -53.760  12.737  1.00  0.00    -0.357 N 
HETATM    4  H   UNL     1     -43.400 -54.001  11.775  1.00  0.00     0.162 HD
ENDROOT
BRANCH   2   5
HETATM    5  C   UNL     1     -41.265 -52.496  11.881  1.00  0.00     0.255 C 
BRANCH   5   6
HETATM    6  N   UNL     1     -40.932 -51.075  11.780  1.00  0.00    -0.246 N 
HETATM    7  N   UNL     1     -42.035 -50.191  11.707  1.00  0.00    -0.261 N 
HETATM    8  C   UNL     1     -41.860 -48.847  11.518  1.00  0.00     0.260 C 
HETATM    9  H   UNL     1     -42.885 -50.546  11.267  1.00  0.00     0.190 HD
HETATM   10  O   UNL     1     -42.764 -48.099  11.168  1.00  0.00    -0.267 OA
HETATM   11  C   UNL     1     -40.511 -48.327  11.789  1.00  0.00     0.081 C 
HETATM   12  C   UNL     1     -39.497 -49.148  12.066  1.00  0.00     0.081 C 
HETATM   13  C   UNL     1     -39.672 -50.617  12.100  1.00  0.00     0.262 C 
HETATM   14  O   UNL     1     -38.721 -51.336  12.388  1.00  0.00    -0.267 OA
ENDBRANCH   5   6
ENDBRANCH   2   5
BRANCH   3  15
HETATM   15  C   UNL     1     -44.111 -54.238  13.753  1.00  0.00     0.154 C 
BRANCH  15  16
HETATM   16  C   UNL     1     -45.443 -53.493  13.703  1.00  0.00     0.139 C 
HETATM   17  C   UNL     1     -45.734 -52.790  12.382  1.00  0.00     0.035 C 
HETATM   18  C   UNL     1     -46.434 -51.505  12.782  1.00  0.00     0.029 C 
HETATM   19  C   UNL     1     -46.495 -51.548  14.294  1.00  0.00     0.168 C 
HETATM   20  O   UNL     1     -45.468 -52.456  14.701  1.00  0.00    -0.384 OA
ENDBRANCH  15  16
ENDBRANCH   3  15
TORSDOF 4
ENDMDL
MODEL 7
REMARK VINA RESULT:      -5.2      1.853      2.367
REMARK  4 active torsions:
REMARK  status: ('A' for Active; 'I' for Inactive)
REMARK    1  A    between atoms: C_2  and  C_3 
REMARK       I    between atoms: C_2  and  N_12 
REMARK    2  A    between atoms: C_3  and  N_4 
REMARK    3  A    between atoms: N_12  and  C_13 
REMARK    4  A    between atoms: C_13  and  C_14 
ROOT
HETATM    1  O   UNL     1     -40.560 -48.153  12.644  1.00  0.00    -0.272 OA
HETATM    2  C   UNL     1     -40.812 -49.033  11.821  1.00  0.00     0.237 C 
HETATM    3  N   UNL     1     -42.035 -49.130  11.206  1.00  0.00    -0.357 N 
HETATM    4  H   UNL     1     -42.167 -49.730  10.399  1.00  0.00     0.162 HD
ENDROOT
BRANCH   2   5
HETATM    5  C   UNL     1     -39.817 -50.143  11.469  1.00  0.00     0.255 C 
BRANCH   5   6
HETATM    6  N   UNL     1     -39.802 -51.250  12.424  1.00  0.00    -0.246 N 
HETATM    7  N   UNL     1     -40.609 -52.363  12.086  1.00  0.00    -0.261 N 
HETATM    8  C   UNL     1     -40.754 -53.424  12.937  1.00  0.00     0.260 C 
HETATM    9  H   UNL     1     -41.451 -52.175  11.539  1.00  0.00     0.190 HD
HETATM   10  O   UNL     1     -41.645 -54.256  12.820  1.00  0.00    -0.267 OA
HETATM   11  C   UNL     1     -39.749 -53.537  14.005  1.00  0.00     0.081 C 
HETATM   12  C   UNL     1     -38.842 -52.580  14.203  1.00  0.00     0.081 C 
HETATM   13  C   UNL     1     -38.809 -51.355  13.374  1.00  0.00     0.262 C 
HETATM   14  O   UNL     1     -37.939 -50.512  13.569  1.00  0.00    -0.267 OA
ENDBRANCH   5   6
ENDBRANCH   2   5
BRANCH   3  15
HETATM   15  C   UNL     1     -43.111 -48.195  11.506  1.00  0.00     0.154 C 
BRANCH  15  16
HETATM   16  C   UNL     1     -43.587 -47.457  10.257  1.00  0.00     0.139 C 
HETATM   17  C   UNL     1     -45.051 -47.686   9.898  1.00  0.00     0.035 C 
HETATM   18  C   UNL     1     -45.067 -47.728   8.382  1.00  0.00     0.029 C 
HETATM   19  C   UNL     1     -43.624 -47.528   7.970  1.00  0.00     0.168 C 
HETATM   20  O   UNL     1     -42.839 -47.894   9.109  1.00  0.00    -0.384 OA
ENDBRANCH  15  16
ENDBRANCH   3  15
TORSDOF 4
ENDMDL
MODEL 8
REMARK VINA RESULT:      -5.2      3.073      4.819
REMARK  4 active torsions:
REMARK  status: ('A' for Active; 'I' for Inactive)
REMARK    1  A    between atoms: C_2  and  C_3 
REMARK       I    between atoms: C_2  and  N_12 
REMARK    2  A    between atoms: C_3  and  N_4 
REMARK    3  A    between atoms: N_12  and  C_13 
REMARK    4  A    between atoms: C_13  and  C_14 
ROOT
HETATM    1  O   UNL     1     -42.000 -50.830  13.215  1.00  0.00    -0.272 OA
HETATM    2  C   UNL     1     -41.580 -51.401  12.208  1.00  0.00     0.237 C 
HETATM    3  N   UNL     1     -40.734 -50.786  11.319  1.00  0.00    -0.357 N 
HETATM    4  H   UNL     1     -40.247 -51.321  10.608  1.00  0.00     0.162 HD
ENDROOT
BRANCH   2   5
HETATM    5  C   UNL     1     -42.022 -52.813  11.815  1.00  0.00     0.255 C 
BRANCH   5   6
HETATM    6  N   UNL     1     -42.422 -53.646  12.949  1.00  0.00    -0.246 N 
HETATM    7  N   UNL     1     -41.490 -53.722  14.012  1.00  0.00    -0.261 N 
HETATM    8  C   UNL     1     -41.702 -54.539  15.089  1.00  0.00     0.260 C 
HETATM    9  H   UNL     1     -40.502 -53.634  13.769  1.00  0.00     0.190 HD
HETATM   10  O   UNL     1     -40.816 -54.851  15.874  1.00  0.00    -0.267 OA
HETATM   11  C   UNL     1     -43.081 -55.012  15.279  1.00  0.00     0.081 C 
HETATM   12  C   UNL     1     -44.027 -54.765  14.371  1.00  0.00     0.081 C 
HETATM   13  C   UNL     1     -43.736 -54.020  13.127  1.00  0.00     0.262 C 
HETATM   14  O   UNL     1     -44.641 -53.788  12.331  1.00  0.00    -0.267 OA
ENDBRANCH   5   6
ENDBRANCH   2   5
BRANCH   3  15
HETATM   15  C   UNL     1     -40.296 -49.411  11.517  1.00  0.00     0.154 C 
BRANCH  15  16
HETATM   16  C   UNL     1     -38.920 -49.343  12.175  1.00  0.00     0.139 C 
HETATM   17  C   UNL     1     -37.972 -50.475  11.796  1.00  0.00     0.035 C 
HETATM   18  C   UNL     1     -37.209 -50.775  13.071  1.00  0.00     0.029 C 
HETATM   19  C   UNL     1     -37.765 -49.809  14.096  1.00  0.00     0.168 C 
HETATM   20  O   UNL     1     -39.051 -49.419  13.606  1.00  0.00    -0.384 OA
ENDBRANCH  15  16
ENDBRANCH   3  15
TORSDOF 4
ENDMDL
MODEL 9
REMARK VINA RESULT:      -5.2      3.069      5.012
REMARK  4 active torsions:
REMARK  status: ('A' for Active; 'I' for Inactive)
REMARK    1  A    between atoms: C_2  and  C_3 
REMARK       I    between atoms: C_2  and  N_12 
REMARK    2  A    between atoms: C_3  and  N_4 
REMARK    3  A    between atoms: N_12  and  C_13 
REMARK    4  A    between atoms: C_13  and  C_14 
ROOT
HETATM    1  O   UNL     1     -42.913 -51.057  13.580  1.00  0.00    -0.272 OA
HETATM    2  C   UNL     1     -42.568 -51.834  12.689  1.00  0.00     0.237 C 
HETATM    3  N   UNL     1     -41.683 -51.469  11.705  1.00  0.00    -0.357 N 
HETATM    4  H   UNL     1     -41.262 -52.165  11.098  1.00  0.00     0.162 HD
ENDROOT
BRANCH   2   5
HETATM    5  C   UNL     1     -43.150 -53.242  12.551  1.00  0.00     0.255 C 
BRANCH   5   6
HETATM    6  N   UNL     1     -44.222 -53.536  13.501  1.00  0.00    -0.246 N 
HETATM    7  N   UNL     1     -43.814 -53.740  14.841  1.00  0.00    -0.261 N 
HETATM    8  C   UNL     1     -44.707 -54.112  15.810  1.00  0.00     0.260 C 
HETATM    9  H   UNL     1     -42.884 -54.134  14.987  1.00  0.00     0.190 HD
HETATM   10  O   UNL     1     -44.364 -54.569  16.893  1.00  0.00    -0.267 OA
HETATM   11  C   UNL     1     -46.127 -53.904  15.493  1.00  0.00     0.081 C 
HETATM   12  C   UNL     1     -46.513 -53.507  14.279  1.00  0.00     0.081 C 
HETATM   13  C   UNL     1     -45.539 -53.271  13.191  1.00  0.00     0.262 C 
HETATM   14  O   UNL     1     -45.931 -52.878  12.097  1.00  0.00    -0.267 OA
ENDBRANCH   5   6
ENDBRANCH   2   5
BRANCH   3  15
HETATM   15  C   UNL     1     -41.111 -50.131  11.656  1.00  0.00     0.154 C 
BRANCH  15  16
HETATM   16  C   UNL     1     -39.775 -50.057  12.392  1.00  0.00     0.139 C 
HETATM   17  C   UNL     1     -38.785 -49.049  11.821  1.00  0.00     0.035 C 
HETATM   18  C   UNL     1     -37.432 -49.717  11.973  1.00  0.00     0.029 C 
HETATM   19  C   UNL     1     -37.728 -51.058  12.610  1.00  0.00     0.168 C 
HETATM   20  O   UNL     1     -39.104 -51.329  12.329  1.00  0.00    -0.384 OA
ENDBRANCH  15  16
ENDBRANCH   3  15
TORSDOF 4
ENDMDL
