MODEL 1
REMARK VINA RESULT:      -4.8      0.000      0.000
REMARK  4 active torsions:
REMARK  status: ('A' for Active; 'I' for Inactive)
REMARK    1  A    between atoms: S_2  and  C_3 
REMARK    2  A    between atoms: C_8  and  C_9 
REMARK    3  A    between atoms: N_12  and  C_13 
REMARK    4  A    between atoms: C_13  and  C_14 
REMARK       I    between atoms: C_14  and  N_16 
ROOT
HETATM    1  C   UNL     1     -40.759 -51.145  12.362  1.00  0.00     0.162 A 
HETATM    2  N   UNL     1     -41.886 -50.846  11.761  1.00  0.00    -0.278 N 
ATOM      3  HN  UNL     1     -42.697 -51.457  11.663  1.00  0.00     0.189 HD
HETATM    4  N   UNL     1     -41.778 -49.566  11.287  1.00  0.00    -0.286 N 
ATOM      5  HN  UNL     1     -42.493 -49.058  10.765  1.00  0.00     0.188 HD
HETATM    6  C   UNL     1     -40.591 -49.104  11.621  1.00  0.00     0.104 A 
HETATM    7  N   UNL     1     -39.902 -50.081  12.300  1.00  0.00    -0.306 N 
ENDROOT
BRANCH   7   8
HETATM    8  C   UNL     1     -38.537 -49.997  12.770  1.00  0.00     0.235 C 
BRANCH   8   9
HETATM    9  C   UNL     1     -37.540 -50.657  11.844  1.00  0.00     0.233 C 
HETATM   10  O   UNL     1     -36.870 -51.629  12.184  1.00  0.00    -0.272 OA
HETATM   11  N   UNL     1     -37.351 -50.092  10.617  1.00  0.00    -0.369 N 
HETATM   12  H   UNL     1     -37.991 -49.421  10.207  1.00  0.00     0.159 HD
HETATM   13  H   UNL     1     -36.705 -50.559   9.993  1.00  0.00     0.159 HD
ENDBRANCH   8   9
ENDBRANCH   7   8
BRANCH   1  14
HETATM   14  S   UNL     1     -40.411 -52.652  13.133  1.00  0.00    -0.097 SA
HETATM   15  C   UNL     1     -42.041 -53.440  13.032  1.00  0.00     0.099 C 
ENDBRANCH   1  14
BRANCH   6  16
HETATM   16  C   UNL     1     -40.135 -47.688  11.296  1.00  0.00     0.055 A 
HETATM   17  C   UNL     1     -40.477 -46.616  12.316  1.00  0.00     0.013 A 
HETATM   18  C   UNL     1     -41.186 -46.637  11.008  1.00  0.00     0.013 A 
ENDBRANCH   6  16
TORSDOF 4
ENDMDL
MODEL 2
REMARK VINA RESULT:      -4.7      3.575      4.707
REMARK  4 active torsions:
REMARK  status: ('A' for Active; 'I' for Inactive)
REMARK    1  A    between atoms: S_2  and  C_3 
REMARK    2  A    between atoms: C_8  and  C_9 
REMARK    3  A    between atoms: N_12  and  C_13 
REMARK    4  A    between atoms: C_13  and  C_14 
REMARK       I    between atoms: C_14  and  N_16 
ROOT
HETATM    1  C   UNL     1     -40.261 -48.277  11.410  1.00  0.00     0.162 A 
HETATM    2  N   UNL     1     -40.688 -49.295  10.702  1.00  0.00    -0.278 N 
ATOM      3  HN  UNL     1     -40.314 -50.244  10.727  1.00  0.00     0.189 HD
HETATM    4  N   UNL     1     -41.726 -48.857   9.924  1.00  0.00    -0.286 N 
ATOM      5  HN  UNL     1     -42.256 -49.421   9.259  1.00  0.00     0.188 HD
HETATM    6  C   UNL     1     -41.921 -47.580  10.183  1.00  0.00     0.104 A 
HETATM    7  N   UNL     1     -41.002 -47.165  11.118  1.00  0.00    -0.306 N 
ENDROOT
BRANCH   7   8
HETATM    8  C   UNL     1     -40.833 -45.816  11.612  1.00  0.00     0.235 C 
BRANCH   8   9
HETATM    9  C   UNL     1     -40.246 -44.869  10.590  1.00  0.00     0.233 C 
HETATM   10  O   UNL     1     -40.633 -43.710  10.469  1.00  0.00    -0.272 OA
HETATM   11  N   UNL     1     -39.299 -45.366   9.742  1.00  0.00    -0.369 N 
HETATM   12  H   UNL     1     -38.807 -46.237   9.905  1.00  0.00     0.159 HD
HETATM   13  H   UNL     1     -38.890 -44.716   9.082  1.00  0.00     0.159 HD
ENDBRANCH   8   9
ENDBRANCH   7   8
BRANCH   1  14
HETATM   14  S   UNL     1     -38.967 -48.330  12.554  1.00  0.00    -0.097 SA
HETATM   15  C   UNL     1     -37.959 -49.649  11.824  1.00  0.00     0.099 C 
ENDBRANCH   1  14
BRANCH   6  16
HETATM   16  C   UNL     1     -43.029 -46.766   9.529  1.00  0.00     0.055 A 
HETATM   17  C   UNL     1     -44.450 -47.248   9.762  1.00  0.00     0.013 A 
HETATM   18  C   UNL     1     -43.834 -47.401   8.416  1.00  0.00     0.013 A 
ENDBRANCH   6  16
TORSDOF 4
ENDMDL
MODEL 3
REMARK VINA RESULT:      -4.7      3.752      5.106
REMARK  4 active torsions:
REMARK  status: ('A' for Active; 'I' for Inactive)
REMARK    1  A    between atoms: S_2  and  C_3 
REMARK    2  A    between atoms: C_8  and  C_9 
REMARK    3  A    between atoms: N_12  and  C_13 
REMARK    4  A    between atoms: C_13  and  C_14 
REMARK       I    between atoms: C_14  and  N_16 
ROOT
HETATM    1  C   UNL     1     -41.901 -47.494  10.336  1.00  0.00     0.162 A 
HETATM    2  N   UNL     1     -41.924 -48.791  10.142  1.00  0.00    -0.278 N 
ATOM      3  HN  UNL     1     -42.628 -49.308   9.616  1.00  0.00     0.189 HD
HETATM    4  N   UNL     1     -40.832 -49.326  10.772  1.00  0.00    -0.286 N 
ATOM      5  HN  UNL     1     -40.585 -50.316  10.806  1.00  0.00     0.188 HD
HETATM    6  C   UNL     1     -40.156 -48.341  11.327  1.00  0.00     0.104 A 
HETATM    7  N   UNL     1     -40.806 -47.155  11.083  1.00  0.00    -0.306 N 
ENDROOT
BRANCH   7   8
HETATM    8  C   UNL     1     -40.429 -45.852  11.585  1.00  0.00     0.235 C 
BRANCH   8   9
HETATM    9  C   UNL     1     -39.931 -44.913  10.510  1.00  0.00     0.233 C 
HETATM   10  O   UNL     1     -40.325 -43.753  10.415  1.00  0.00    -0.272 OA
HETATM   11  N   UNL     1     -39.063 -45.417   9.586  1.00  0.00    -0.369 N 
HETATM   12  H   UNL     1     -38.560 -46.288   9.711  1.00  0.00     0.159 HD
HETATM   13  H   UNL     1     -38.712 -44.772   8.889  1.00  0.00     0.159 HD
ENDBRANCH   8   9
ENDBRANCH   7   8
BRANCH   1  14
HETATM   14  S   UNL     1     -43.067 -46.374   9.726  1.00  0.00    -0.097 SA
HETATM   15  C   UNL     1     -43.625 -47.274   8.254  1.00  0.00     0.099 C 
ENDBRANCH   1  14
BRANCH   6  16
HETATM   16  C   UNL     1     -38.851 -48.558  12.081  1.00  0.00     0.055 A 
HETATM   17  C   UNL     1     -37.892 -49.578  11.493  1.00  0.00     0.013 A 
HETATM   18  C   UNL     1     -38.617 -49.894  12.753  1.00  0.00     0.013 A 
ENDBRANCH   6  16
TORSDOF 4
ENDMDL
MODEL 4
REMARK VINA RESULT:      -4.6      1.649      3.951
REMARK  4 active torsions:
REMARK  status: ('A' for Active; 'I' for Inactive)
REMARK    1  A    between atoms: S_2  and  C_3 
REMARK    2  A    between atoms: C_8  and  C_9 
REMARK    3  A    between atoms: N_12  and  C_13 
REMARK    4  A    between atoms: C_13  and  C_14 
REMARK       I    between atoms: C_14  and  N_16 
ROOT
HETATM    1  C   UNL     1     -40.735 -49.247  11.795  1.00  0.00     0.162 A 
HETATM    2  N   UNL     1     -41.929 -49.691  11.482  1.00  0.00    -0.278 N 
ATOM      3  HN  UNL     1     -42.688 -49.143  11.078  1.00  0.00     0.189 HD
HETATM    4  N   UNL     1     -41.973 -51.024  11.795  1.00  0.00    -0.286 N 
ATOM      5  HN  UNL     1     -42.777 -51.641  11.673  1.00  0.00     0.188 HD
HETATM    6  C   UNL     1     -40.798 -51.370  12.280  1.00  0.00     0.104 A 
HETATM    7  N   UNL     1     -39.980 -50.266  12.308  1.00  0.00    -0.306 N 
ENDROOT
BRANCH   7   8
HETATM    8  C   UNL     1     -38.637 -50.209  12.841  1.00  0.00     0.235 C 
BRANCH   8   9
HETATM    9  C   UNL     1     -37.587 -50.733  11.887  1.00  0.00     0.233 C 
HETATM   10  O   UNL     1     -36.849 -51.672  12.173  1.00  0.00    -0.272 OA
HETATM   11  N   UNL     1     -37.434 -50.081  10.699  1.00  0.00    -0.369 N 
HETATM   12  H   UNL     1     -38.120 -49.435  10.325  1.00  0.00     0.159 HD
HETATM   13  H   UNL     1     -36.751 -50.458  10.055  1.00  0.00     0.159 HD
ENDBRANCH   8   9
ENDBRANCH   7   8
BRANCH   1  14
HETATM   14  S   UNL     1     -40.187 -47.623  11.577  1.00  0.00    -0.097 SA
HETATM   15  C   UNL     1     -41.616 -46.925  10.705  1.00  0.00     0.099 C 
ENDBRANCH   1  14
BRANCH   6  16
HETATM   16  C   UNL     1     -40.466 -52.796  12.697  1.00  0.00     0.055 A 
HETATM   17  C   UNL     1     -41.355 -53.414  13.761  1.00  0.00     0.013 A 
HETATM   18  C   UNL     1     -39.955 -53.040  14.101  1.00  0.00     0.013 A 
ENDBRANCH   6  16
TORSDOF 4
ENDMDL
MODEL 5
REMARK VINA RESULT:      -4.5      2.819      3.697
REMARK  4 active torsions:
REMARK  status: ('A' for Active; 'I' for Inactive)
REMARK    1  A    between atoms: S_2  and  C_3 
REMARK    2  A    between atoms: C_8  and  C_9 
REMARK    3  A    between atoms: N_12  and  C_13 
REMARK    4  A    between atoms: C_13  and  C_14 
REMARK       I    between atoms: C_14  and  N_16 
ROOT
HETATM    1  C   UNL     1     -41.872 -52.870  12.752  1.00  0.00     0.162 A 
HETATM    2  N   UNL     1     -41.970 -52.328  11.562  1.00  0.00    -0.278 N 
ATOM      3  HN  UNL     1     -42.743 -52.449  10.908  1.00  0.00     0.189 HD
HETATM    4  N   UNL     1     -40.848 -51.571  11.355  1.00  0.00    -0.286 N 
ATOM      5  HN  UNL     1     -40.633 -51.035  10.514  1.00  0.00     0.188 HD
HETATM    6  C   UNL     1     -40.093 -51.655  12.431  1.00  0.00     0.104 A 
HETATM    7  N   UNL     1     -40.702 -52.482  13.345  1.00  0.00    -0.306 N 
ENDROOT
BRANCH   7   8
HETATM    8  C   UNL     1     -40.161 -52.894  14.621  1.00  0.00     0.235 C 
BRANCH   8   9
HETATM    9  C   UNL     1     -39.718 -54.340  14.650  1.00  0.00     0.233 C 
HETATM   10  O   UNL     1     -40.072 -55.119  15.531  1.00  0.00    -0.272 OA
HETATM   11  N   UNL     1     -38.843 -54.749  13.687  1.00  0.00    -0.369 N 
HETATM   12  H   UNL     1     -38.663 -54.225  12.838  1.00  0.00     0.159 HD
HETATM   13  H   UNL     1     -38.577 -55.725  13.696  1.00  0.00     0.159 HD
ENDBRANCH   8   9
ENDBRANCH   7   8
BRANCH   1  14
HETATM   14  S   UNL     1     -43.051 -53.907  13.475  1.00  0.00    -0.097 SA
HETATM   15  C   UNL     1     -44.528 -53.385  12.563  1.00  0.00     0.099 C 
ENDBRANCH   1  14
BRANCH   6  16
HETATM   16  C   UNL     1     -38.778 -50.903  12.577  1.00  0.00     0.055 A 
HETATM   17  C   UNL     1     -38.864 -49.490  13.128  1.00  0.00     0.013 A 
HETATM   18  C   UNL     1     -38.530 -49.699  11.693  1.00  0.00     0.013 A 
ENDBRANCH   6  16
TORSDOF 4
ENDMDL
MODEL 6
REMARK VINA RESULT:      -4.5      3.964      5.431
REMARK  4 active torsions:
REMARK  status: ('A' for Active; 'I' for Inactive)
REMARK    1  A    between atoms: S_2  and  C_3 
REMARK    2  A    between atoms: C_8  and  C_9 
REMARK    3  A    between atoms: N_12  and  C_13 
REMARK    4  A    between atoms: C_13  and  C_14 
REMARK       I    between atoms: C_14  and  N_16 
ROOT
HETATM    1  C   UNL     1     -42.669 -54.496  14.796  1.00  0.00     0.162 A 
HETATM    2  N   UNL     1     -43.744 -55.246  14.778  1.00  0.00    -0.278 N 
ATOM      3  HN  UNL     1     -43.879 -56.116  15.293  1.00  0.00     0.189 HD
HETATM    4  N   UNL     1     -44.654 -54.653  13.945  1.00  0.00    -0.286 N 
ATOM      5  HN  UNL     1     -45.584 -55.009  13.722  1.00  0.00     0.188 HD
HETATM    6  C   UNL     1     -44.120 -53.542  13.480  1.00  0.00     0.104 A 
HETATM    7  N   UNL     1     -42.850 -53.406  13.988  1.00  0.00    -0.306 N 
ENDROOT
BRANCH   7   8
HETATM    8  C   UNL     1     -41.904 -52.362  13.662  1.00  0.00     0.235 C 
BRANCH   8   9
HETATM    9  C   UNL     1     -40.945 -52.742  12.556  1.00  0.00     0.233 C 
HETATM   10  O   UNL     1     -39.816 -53.170  12.782  1.00  0.00    -0.272 OA
HETATM   11  N   UNL     1     -41.351 -52.531  11.271  1.00  0.00    -0.369 N 
HETATM   12  H   UNL     1     -42.316 -52.365  11.011  1.00  0.00     0.159 HD
HETATM   13  H   UNL     1     -40.714 -52.817  10.538  1.00  0.00     0.159 HD
ENDBRANCH   8   9
ENDBRANCH   7   8
BRANCH   1  14
HETATM   14  S   UNL     1     -41.241 -54.821  15.712  1.00  0.00    -0.097 SA
HETATM   15  C   UNL     1     -41.829 -56.203  16.728  1.00  0.00     0.099 C 
ENDBRANCH   1  14
BRANCH   6  16
HETATM   16  C   UNL     1     -44.866 -52.593  12.552  1.00  0.00     0.055 A 
HETATM   17  C   UNL     1     -45.465 -51.353  13.191  1.00  0.00     0.013 A 
HETATM   18  C   UNL     1     -46.362 -52.443  12.720  1.00  0.00     0.013 A 
ENDBRANCH   6  16
TORSDOF 4
ENDMDL
MODEL 7
REMARK VINA RESULT:      -4.5      3.153      5.558
REMARK  4 active torsions:
REMARK  status: ('A' for Active; 'I' for Inactive)
REMARK    1  A    between atoms: S_2  and  C_3 
REMARK    2  A    between atoms: C_8  and  C_9 
REMARK    3  A    between atoms: N_12  and  C_13 
REMARK    4  A    between atoms: C_13  and  C_14 
REMARK       I    between atoms: C_14  and  N_16 
ROOT
HETATM    1  C   UNL     1     -43.177 -50.796  13.119  1.00  0.00     0.162 A 
HETATM    2  N   UNL     1     -44.405 -50.650  12.684  1.00  0.00    -0.278 N 
ATOM      3  HN  UNL     1     -44.852 -49.769  12.427  1.00  0.00     0.189 HD
HETATM    4  N   UNL     1     -44.981 -51.891  12.636  1.00  0.00    -0.286 N 
ATOM      5  HN  UNL     1     -45.938 -52.098  12.345  1.00  0.00     0.188 HD
HETATM    6  C   UNL     1     -44.086 -52.774  13.030  1.00  0.00     0.104 A 
HETATM    7  N   UNL     1     -42.923 -52.119  13.358  1.00  0.00    -0.306 N 
ENDROOT
BRANCH   7   8
HETATM    8  C   UNL     1     -41.727 -52.720  13.907  1.00  0.00     0.235 C 
BRANCH   8   9
HETATM    9  C   UNL     1     -40.714 -53.113  12.856  1.00  0.00     0.233 C 
HETATM   10  O   UNL     1     -39.835 -52.346  12.470  1.00  0.00    -0.272 OA
HETATM   11  N   UNL     1     -40.842 -54.346  12.287  1.00  0.00    -0.369 N 
HETATM   12  H   UNL     1     -41.412 -55.086  12.682  1.00  0.00     0.159 HD
HETATM   13  H   UNL     1     -40.141 -54.612  11.608  1.00  0.00     0.159 HD
ENDBRANCH   8   9
ENDBRANCH   7   8
BRANCH   1  14
HETATM   14  S   UNL     1     -42.039 -49.515  13.343  1.00  0.00    -0.097 SA
HETATM   15  C   UNL     1     -41.479 -49.292  11.633  1.00  0.00     0.099 C 
ENDBRANCH   1  14
BRANCH   6  16
HETATM   16  C   UNL     1     -44.362 -54.270  13.063  1.00  0.00     0.055 A 
HETATM   17  C   UNL     1     -45.562 -54.719  13.880  1.00  0.00     0.013 A 
HETATM   18  C   UNL     1     -44.188 -55.010  14.372  1.00  0.00     0.013 A 
ENDBRANCH   6  16
TORSDOF 4
ENDMDL
MODEL 8
REMARK VINA RESULT:      -4.4      3.248      4.627
REMARK  4 active torsions:
REMARK  status: ('A' for Active; 'I' for Inactive)
REMARK    1  A    between atoms: S_2  and  C_3 
REMARK    2  A    between atoms: C_8  and  C_9 
REMARK    3  A    between atoms: N_12  and  C_13 
REMARK    4  A    between atoms: C_13  and  C_14 
REMARK       I    between atoms: C_14  and  N_16 
ROOT
HETATM    1  C   UNL     1     -41.512 -47.942  10.657  1.00  0.00     0.162 A 
HETATM    2  N   UNL     1     -41.253 -48.914   9.816  1.00  0.00    -0.278 N 
ATOM      3  HN  UNL     1     -41.645 -49.021   8.881  1.00  0.00     0.189 HD
HETATM    4  N   UNL     1     -40.360 -49.760  10.419  1.00  0.00    -0.286 N 
ATOM      5  HN  UNL     1     -39.977 -50.615  10.015  1.00  0.00     0.188 HD
HETATM    6  C   UNL     1     -40.082 -49.278  11.613  1.00  0.00     0.104 A 
HETATM    7  N   UNL     1     -40.803 -48.124  11.812  1.00  0.00    -0.306 N 
ENDROOT
BRANCH   7   8
HETATM    8  C   UNL     1     -40.838 -47.334  13.023  1.00  0.00     0.235 C 
BRANCH   8   9
HETATM    9  C   UNL     1     -39.783 -46.252  13.068  1.00  0.00     0.233 C 
HETATM   10  O   UNL     1     -39.634 -45.441  12.157  1.00  0.00    -0.272 OA
HETATM   11  N   UNL     1     -38.940 -46.238  14.139  1.00  0.00    -0.369 N 
HETATM   12  H   UNL     1     -39.121 -46.744  14.999  1.00  0.00     0.159 HD
HETATM   13  H   UNL     1     -38.257 -45.491  14.175  1.00  0.00     0.159 HD
ENDBRANCH   8   9
ENDBRANCH   7   8
BRANCH   1  14
HETATM   14  S   UNL     1     -42.579 -46.617  10.351  1.00  0.00    -0.097 SA
HETATM   15  C   UNL     1     -43.506 -47.282   8.941  1.00  0.00     0.099 C 
ENDBRANCH   1  14
BRANCH   6  16
HETATM   16  C   UNL     1     -39.086 -49.937  12.558  1.00  0.00     0.055 A 
HETATM   17  C   UNL     1     -37.714 -49.293  12.652  1.00  0.00     0.013 A 
HETATM   18  C   UNL     1     -37.863 -50.606  11.968  1.00  0.00     0.013 A 
ENDBRANCH   6  16
TORSDOF 4
ENDMDL
MODEL 9
REMARK VINA RESULT:      -4.4      2.915      5.125
REMARK  4 active torsions:
REMARK  status: ('A' for Active; 'I' for Inactive)
REMARK    1  A    between atoms: S_2  and  C_3 
REMARK    2  A    between atoms: C_8  and  C_9 
REMARK    3  A    between atoms: N_12  and  C_13 
REMARK    4  A    between atoms: C_13  and  C_14 
REMARK       I    between atoms: C_14  and  N_16 
ROOT
HETATM    1  C   UNL     1     -40.217 -51.692  12.458  1.00  0.00     0.162 A 
HETATM    2  N   UNL     1     -40.988 -51.584  11.403  1.00  0.00    -0.278 N 
ATOM      3  HN  UNL     1     -40.835 -50.966  10.606  1.00  0.00     0.189 HD
HETATM    4  N   UNL     1     -42.036 -52.451  11.562  1.00  0.00    -0.286 N 
ATOM      5  HN  UNL     1     -42.808 -52.586  10.908  1.00  0.00     0.188 HD
HETATM    6  C   UNL     1     -41.875 -53.082  12.708  1.00  0.00     0.104 A 
HETATM    7  N   UNL     1     -40.733 -52.622  13.319  1.00  0.00    -0.306 N 
ENDROOT
BRANCH   7   8
HETATM    8  C   UNL     1     -40.247 -53.005  14.626  1.00  0.00     0.235 C 
BRANCH   8   9
HETATM    9  C   UNL     1     -39.695 -54.412  14.675  1.00  0.00     0.233 C 
HETATM   10  O   UNL     1     -39.965 -55.193  15.583  1.00  0.00    -0.272 OA
HETATM   11  N   UNL     1     -38.819 -54.778  13.696  1.00  0.00    -0.369 N 
HETATM   12  H   UNL     1     -38.701 -54.264  12.831  1.00  0.00     0.159 HD
HETATM   13  H   UNL     1     -38.479 -55.732  13.720  1.00  0.00     0.159 HD
ENDBRANCH   8   9
ENDBRANCH   7   8
BRANCH   1  14
HETATM   14  S   UNL     1     -38.757 -50.806  12.720  1.00  0.00    -0.097 SA
HETATM   15  C   UNL     1     -39.421 -49.359  13.589  1.00  0.00     0.099 C 
ENDBRANCH   1  14
BRANCH   6  16
HETATM   16  C   UNL     1     -42.833 -54.159  13.198  1.00  0.00     0.055 A 
HETATM   17  C   UNL     1     -44.308 -53.932  12.916  1.00  0.00     0.013 A 
HETATM   18  C   UNL     1     -43.801 -53.817  14.310  1.00  0.00     0.013 A 
ENDBRANCH   6  16
TORSDOF 4
ENDMDL
