MODEL 1
REMARK VINA RESULT:      -7.1      0.000      0.000
REMARK  8 active torsions:
REMARK  status: ('A' for Active; 'I' for Inactive)
REMARK    1  A    between atoms: N_6  and  C_7 
REMARK    2  A    between atoms: C_7  and  C_8 
REMARK    3  A    between atoms: C_8  and  N_9 
REMARK    4  A    between atoms: N_9  and  C_10 
REMARK    5  A    between atoms: C_10  and  C_11 
REMARK    6  A    between atoms: N_21  and  C_22 
REMARK    7  A    between atoms: C_22  and  C_23 
REMARK    8  A    between atoms: C_23  and  O_24 
ROOT
HETATM    1  C   UNL     1     -41.095 -51.637  12.255  1.00  0.00     0.113 A 
HETATM    2  N   UNL     1     -42.261 -52.039  11.790  1.00  0.00    -0.342 N 
ATOM      3  HN  UNL     1     -42.723 -51.729  10.934  1.00  0.00     0.167 HD
HETATM    4  C   UNL     1     -42.725 -52.955  12.691  1.00  0.00     0.062 A 
HETATM    5  C   UNL     1     -43.909 -53.702  12.653  1.00  0.00     0.055 A 
HETATM    6  C   UNL     1     -44.166 -54.581  13.706  1.00  0.00     0.036 A 
HETATM    7 CL   UNL     1     -45.618 -55.508  13.690  1.00  0.00    -0.084 Cl
HETATM    8  C   UNL     1     -43.274 -54.719  14.771  1.00  0.00     0.026 A 
HETATM    9  C   UNL     1     -42.085 -53.978  14.819  1.00  0.00     0.034 A 
HETATM   10  C   UNL     1     -41.838 -53.103  13.754  1.00  0.00     0.062 A 
HETATM   11  N   UNL     1     -40.803 -52.241  13.458  1.00  0.00    -0.331 N 
ENDROOT
BRANCH   1  12
HETATM   12  C   UNL     1     -40.217 -50.639  11.570  1.00  0.00     0.345 C 
BRANCH  12  13
HETATM   13  N   UNL     1     -41.018 -49.796  10.679  1.00  0.00     0.092 N 
HETATM   14  H   UNL     1     -40.437 -49.549   9.875  1.00  0.00     0.316 HD
BRANCH  13  15
HETATM   15  C   UNL     1     -41.487 -48.578  11.351  1.00  0.00     0.291 C 
BRANCH  15  16
HETATM   16  C   UNL     1     -41.692 -47.387  10.414  1.00  0.00     0.178 C 
BRANCH  16  17
HETATM   17  N   UNL     1     -42.913 -47.523   9.649  1.00  0.00    -0.302 N 
HETATM   18  N   UNL     1     -42.847 -47.816   8.340  1.00  0.00    -0.310 N 
HETATM   19  C   UNL     1     -44.127 -47.902   7.975  1.00  0.00     0.115 A 
ATOM     20  HN  UNL     1     -42.015 -47.943   7.762  1.00  0.00     0.186 HD
HETATM   21  C   UNL     1     -45.014 -47.644   9.045  1.00  0.00    -0.028 A 
HETATM   22  C   UNL     1     -46.492 -47.639   9.028  1.00  0.00     0.051 C 
HETATM   23  C   UNL     1     -44.186 -47.396  10.118  1.00  0.00     0.118 A 
ENDBRANCH  16  17
ENDBRANCH  15  16
ENDBRANCH  13  15
ENDBRANCH  12  13
ENDBRANCH   1  12
BRANCH  11  24
HETATM   24  C   UNL     1     -39.588 -52.067  14.238  1.00  0.00     0.156 C 
BRANCH  24  25
HETATM   25  C   UNL     1     -38.859 -53.369  14.560  1.00  0.00     0.184 C 
BRANCH  25  26
HETATM   26  O   UNL     1     -38.659 -54.166  13.395  1.00  0.00    -0.399 OA
HETATM   27  H   UNL     1     -37.708 -54.382  13.360  1.00  0.00     0.209 HD
ENDBRANCH  25  26
ENDBRANCH  24  25
ENDBRANCH  11  24
TORSDOF 8
ENDMDL
MODEL 2
REMARK VINA RESULT:      -6.8      1.651      1.783
REMARK  8 active torsions:
REMARK  status: ('A' for Active; 'I' for Inactive)
REMARK    1  A    between atoms: N_6  and  C_7 
REMARK    2  A    between atoms: C_7  and  C_8 
REMARK    3  A    between atoms: C_8  and  N_9 
REMARK    4  A    between atoms: N_9  and  C_10 
REMARK    5  A    between atoms: C_10  and  C_11 
REMARK    6  A    between atoms: N_21  and  C_22 
REMARK    7  A    between atoms: C_22  and  C_23 
REMARK    8  A    between atoms: C_23  and  O_24 
ROOT
HETATM    1  C   UNL     1     -41.733 -51.009  12.261  1.00  0.00     0.113 A 
HETATM    2  N   UNL     1     -42.816 -50.328  12.582  1.00  0.00    -0.342 N 
ATOM      3  HN  UNL     1     -43.006 -49.345  12.384  1.00  0.00     0.167 HD
HETATM    4  C   UNL     1     -43.630 -51.210  13.235  1.00  0.00     0.062 A 
HETATM    5  C   UNL     1     -44.911 -50.999  13.760  1.00  0.00     0.055 A 
HETATM    6  C   UNL     1     -45.546 -52.067  14.395  1.00  0.00     0.036 A 
HETATM    7 CL   UNL     1     -47.120 -51.835  15.056  1.00  0.00    -0.084 Cl
HETATM    8  C   UNL     1     -44.930 -53.314  14.507  1.00  0.00     0.026 A 
HETATM    9  C   UNL     1     -43.649 -53.539  13.984  1.00  0.00     0.034 A 
HETATM   10  C   UNL     1     -43.025 -52.460  13.347  1.00  0.00     0.062 A 
HETATM   11  N   UNL     1     -41.805 -52.305  12.722  1.00  0.00    -0.331 N 
ENDROOT
BRANCH   1  12
HETATM   12  C   UNL     1     -40.574 -50.437  11.511  1.00  0.00     0.345 C 
BRANCH  12  13
HETATM   13  N   UNL     1     -41.032 -49.369  10.619  1.00  0.00     0.092 N 
HETATM   14  H   UNL     1     -40.664 -49.562   9.685  1.00  0.00     0.316 HD
BRANCH  13  15
HETATM   15  C   UNL     1     -40.585 -48.047  11.071  1.00  0.00     0.291 C 
BRANCH  15  16
HETATM   16  C   UNL     1     -41.723 -47.093  11.436  1.00  0.00     0.178 C 
BRANCH  16  17
HETATM   17  N   UNL     1     -42.746 -47.078  10.412  1.00  0.00    -0.302 N 
HETATM   18  N   UNL     1     -42.477 -46.535   9.213  1.00  0.00    -0.310 N 
HETATM   19  C   UNL     1     -43.603 -46.726   8.525  1.00  0.00     0.115 A 
ATOM     20  HN  UNL     1     -41.616 -46.084   8.902  1.00  0.00     0.186 HD
HETATM   21  C   UNL     1     -44.602 -47.373   9.288  1.00  0.00    -0.028 A 
HETATM   22  C   UNL     1     -45.971 -47.747   8.876  1.00  0.00     0.051 C 
HETATM   23  C   UNL     1     -44.008 -47.582  10.514  1.00  0.00     0.118 A 
ENDBRANCH  16  17
ENDBRANCH  15  16
ENDBRANCH  13  15
ENDBRANCH  12  13
ENDBRANCH   1  12
BRANCH  11  24
HETATM   24  C   UNL     1     -40.812 -53.349  12.520  1.00  0.00     0.156 C 
BRANCH  24  25
HETATM   25  C   UNL     1     -39.903 -53.588  13.722  1.00  0.00     0.184 C 
BRANCH  25  26
HETATM   26  O   UNL     1     -38.783 -54.402  13.386  1.00  0.00    -0.399 OA
HETATM   27  H   UNL     1     -38.379 -54.013  12.588  1.00  0.00     0.209 HD
ENDBRANCH  25  26
ENDBRANCH  24  25
ENDBRANCH  11  24
TORSDOF 8
ENDMDL
MODEL 3
REMARK VINA RESULT:      -6.7      3.235      6.202
REMARK  8 active torsions:
REMARK  status: ('A' for Active; 'I' for Inactive)
REMARK    1  A    between atoms: N_6  and  C_7 
REMARK    2  A    between atoms: C_7  and  C_8 
REMARK    3  A    between atoms: C_8  and  N_9 
REMARK    4  A    between atoms: N_9  and  C_10 
REMARK    5  A    between atoms: C_10  and  C_11 
REMARK    6  A    between atoms: N_21  and  C_22 
REMARK    7  A    between atoms: C_22  and  C_23 
REMARK    8  A    between atoms: C_23  and  O_24 
ROOT
HETATM    1  C   UNL     1     -40.774 -50.457  11.942  1.00  0.00     0.113 A 
HETATM    2  N   UNL     1     -41.930 -50.037  11.469  1.00  0.00    -0.342 N 
ATOM      3  HN  UNL     1     -42.783 -50.584  11.352  1.00  0.00     0.167 HD
HETATM    4  C   UNL     1     -41.750 -48.716  11.166  1.00  0.00     0.062 A 
HETATM    5  C   UNL     1     -42.677 -47.798  10.657  1.00  0.00     0.055 A 
HETATM    6  C   UNL     1     -42.247 -46.491  10.424  1.00  0.00     0.036 A 
HETATM    7 CL   UNL     1     -43.364 -45.341   9.792  1.00  0.00    -0.084 Cl
HETATM    8  C   UNL     1     -40.933 -46.101  10.687  1.00  0.00     0.026 A 
HETATM    9  C   UNL     1     -39.996 -47.010  11.198  1.00  0.00     0.034 A 
HETATM   10  C   UNL     1     -40.442 -48.317  11.431  1.00  0.00     0.062 A 
HETATM   11  N   UNL     1     -39.831 -49.453  11.920  1.00  0.00    -0.331 N 
ENDROOT
BRANCH   1  12
HETATM   12  C   UNL     1     -40.519 -51.850  12.420  1.00  0.00     0.345 C 
BRANCH  12  13
HETATM   13  N   UNL     1     -41.539 -52.757  11.886  1.00  0.00     0.092 N 
HETATM   14  H   UNL     1     -42.024 -52.273  11.129  1.00  0.00     0.316 HD
BRANCH  13  15
HETATM   15  C   UNL     1     -42.500 -53.169  12.916  1.00  0.00     0.291 C 
BRANCH  15  16
HETATM   16  C   UNL     1     -43.848 -53.633  12.362  1.00  0.00     0.178 C 
BRANCH  16  17
HETATM   17  N   UNL     1     -44.936 -52.838  12.890  1.00  0.00    -0.302 N 
HETATM   18  N   UNL     1     -45.806 -52.261  12.044  1.00  0.00    -0.310 N 
HETATM   19  C   UNL     1     -46.674 -51.656  12.857  1.00  0.00     0.115 A 
ATOM     20  HN  UNL     1     -45.804 -52.280  11.024  1.00  0.00     0.186 HD
HETATM   21  C   UNL     1     -46.349 -51.827  14.222  1.00  0.00    -0.028 A 
HETATM   22  C   UNL     1     -47.063 -51.305  15.406  1.00  0.00     0.051 C 
HETATM   23  C   UNL     1     -45.207 -52.599  14.203  1.00  0.00     0.118 A 
ENDBRANCH  16  17
ENDBRANCH  15  16
ENDBRANCH  13  15
ENDBRANCH  12  13
ENDBRANCH   1  12
BRANCH  11  24
HETATM   24  C   UNL     1     -38.461 -49.545  12.400  1.00  0.00     0.156 C 
BRANCH  24  25
HETATM   25  C   UNL     1     -37.444 -49.908  11.321  1.00  0.00     0.184 C 
BRANCH  25  26
HETATM   26  O   UNL     1     -37.225 -51.314  11.251  1.00  0.00    -0.399 OA
HETATM   27  H   UNL     1     -36.469 -51.454  10.649  1.00  0.00     0.209 HD
ENDBRANCH  25  26
ENDBRANCH  24  25
ENDBRANCH  11  24
TORSDOF 8
ENDMDL
MODEL 4
REMARK VINA RESULT:      -6.4      1.925      2.514
REMARK  8 active torsions:
REMARK  status: ('A' for Active; 'I' for Inactive)
REMARK    1  A    between atoms: N_6  and  C_7 
REMARK    2  A    between atoms: C_7  and  C_8 
REMARK    3  A    between atoms: C_8  and  N_9 
REMARK    4  A    between atoms: N_9  and  C_10 
REMARK    5  A    between atoms: C_10  and  C_11 
REMARK    6  A    between atoms: N_21  and  C_22 
REMARK    7  A    between atoms: C_22  and  C_23 
REMARK    8  A    between atoms: C_23  and  O_24 
ROOT
HETATM    1  C   UNL     1     -42.893 -49.725  12.746  1.00  0.00     0.113 A 
HETATM    2  N   UNL     1     -44.074 -50.306  12.829  1.00  0.00    -0.342 N 
ATOM      3  HN  UNL     1     -44.987 -49.866  12.714  1.00  0.00     0.167 HD
HETATM    4  C   UNL     1     -43.821 -51.621  13.103  1.00  0.00     0.062 A 
HETATM    5  C   UNL     1     -44.731 -52.675  13.262  1.00  0.00     0.055 A 
HETATM    6  C   UNL     1     -44.224 -53.944  13.545  1.00  0.00     0.036 A 
HETATM    7 CL   UNL     1     -45.319 -55.258  13.753  1.00  0.00    -0.084 Cl
HETATM    8  C   UNL     1     -42.851 -54.166  13.667  1.00  0.00     0.026 A 
HETATM    9  C   UNL     1     -41.931 -53.121  13.507  1.00  0.00     0.034 A 
HETATM   10  C   UNL     1     -42.454 -51.854  13.220  1.00  0.00     0.062 A 
HETATM   11  N   UNL     1     -41.877 -50.621  12.996  1.00  0.00    -0.331 N 
ENDROOT
BRANCH   1  12
HETATM   12  C   UNL     1     -42.692 -48.276  12.440  1.00  0.00     0.345 C 
BRANCH  12  13
HETATM   13  N   UNL     1     -42.889 -48.034  11.009  1.00  0.00     0.092 N 
HETATM   14  H   UNL     1     -42.204 -48.595  10.499  1.00  0.00     0.316 HD
BRANCH  13  15
HETATM   15  C   UNL     1     -42.732 -46.617  10.664  1.00  0.00     0.291 C 
BRANCH  15  16
HETATM   16  C   UNL     1     -43.240 -46.253   9.269  1.00  0.00     0.178 C 
BRANCH  16  17
HETATM   17  N   UNL     1     -44.468 -46.952   8.957  1.00  0.00    -0.302 N 
HETATM   18  N   UNL     1     -45.619 -46.559   9.528  1.00  0.00    -0.310 N 
HETATM   19  C   UNL     1     -46.526 -47.380   8.996  1.00  0.00     0.115 A 
ATOM     20  HN  UNL     1     -45.765 -45.811  10.206  1.00  0.00     0.186 HD
HETATM   21  C   UNL     1     -45.955 -48.312   8.100  1.00  0.00    -0.028 A 
HETATM   22  C   UNL     1     -46.633 -49.375   7.329  1.00  0.00     0.051 C 
HETATM   23  C   UNL     1     -44.611 -48.005   8.105  1.00  0.00     0.118 A 
ENDBRANCH  16  17
ENDBRANCH  15  16
ENDBRANCH  13  15
ENDBRANCH  12  13
ENDBRANCH   1  12
BRANCH  11  24
HETATM   24  C   UNL     1     -40.450 -50.341  12.953  1.00  0.00     0.156 C 
BRANCH  24  25
HETATM   25  C   UNL     1     -39.786 -50.686  11.622  1.00  0.00     0.184 C 
BRANCH  25  26
HETATM   26  O   UNL     1     -40.363 -49.961  10.539  1.00  0.00    -0.399 OA
HETATM   27  H   UNL     1     -39.703 -49.954   9.820  1.00  0.00     0.209 HD
ENDBRANCH  25  26
ENDBRANCH  24  25
ENDBRANCH  11  24
TORSDOF 8
ENDMDL
MODEL 5
REMARK VINA RESULT:      -6.3      2.018      2.911
REMARK  8 active torsions:
REMARK  status: ('A' for Active; 'I' for Inactive)
REMARK    1  A    between atoms: N_6  and  C_7 
REMARK    2  A    between atoms: C_7  and  C_8 
REMARK    3  A    between atoms: C_8  and  N_9 
REMARK    4  A    between atoms: N_9  and  C_10 
REMARK    5  A    between atoms: C_10  and  C_11 
REMARK    6  A    between atoms: N_21  and  C_22 
REMARK    7  A    between atoms: C_22  and  C_23 
REMARK    8  A    between atoms: C_23  and  O_24 
ROOT
HETATM    1  C   UNL     1     -40.895 -51.450  12.141  1.00  0.00     0.113 A 
HETATM    2  N   UNL     1     -42.143 -51.704  11.800  1.00  0.00    -0.342 N 
ATOM      3  HN  UNL     1     -42.687 -51.244  11.069  1.00  0.00     0.167 HD
HETATM    4  C   UNL     1     -42.557 -52.710  12.626  1.00  0.00     0.062 A 
HETATM    5  C   UNL     1     -43.795 -53.366  12.660  1.00  0.00     0.055 A 
HETATM    6  C   UNL     1     -43.981 -54.370  13.610  1.00  0.00     0.036 A 
HETATM    7 CL   UNL     1     -45.495 -55.189  13.679  1.00  0.00    -0.084 Cl
HETATM    8  C   UNL     1     -42.970 -54.718  14.506  1.00  0.00     0.026 A 
HETATM    9  C   UNL     1     -41.726 -54.071  14.482  1.00  0.00     0.034 A 
HETATM   10  C   UNL     1     -41.552 -53.069  13.521  1.00  0.00     0.062 A 
HETATM   11  N   UNL     1     -40.496 -52.241  13.197  1.00  0.00    -0.331 N 
ENDROOT
BRANCH   1  12
HETATM   12  C   UNL     1     -40.036 -50.423  11.478  1.00  0.00     0.345 C 
BRANCH  12  13
HETATM   13  N   UNL     1     -40.847 -49.592  10.585  1.00  0.00     0.092 N 
HETATM   14  H   UNL     1     -40.246 -49.268   9.825  1.00  0.00     0.316 HD
BRANCH  13  15
HETATM   15  C   UNL     1     -41.433 -48.443  11.285  1.00  0.00     0.291 C 
BRANCH  15  16
HETATM   16  C   UNL     1     -41.949 -47.343  10.357  1.00  0.00     0.178 C 
BRANCH  16  17
HETATM   17  N   UNL     1     -41.228 -46.105  10.558  1.00  0.00    -0.302 N 
HETATM   18  N   UNL     1     -39.937 -46.022  10.194  1.00  0.00    -0.310 N 
HETATM   19  C   UNL     1     -39.613 -44.761  10.480  1.00  0.00     0.115 A 
ATOM     20  HN  UNL     1     -39.345 -46.751   9.794  1.00  0.00     0.186 HD
HETATM   21  C   UNL     1     -40.689 -44.039  11.046  1.00  0.00    -0.028 A 
HETATM   22  C   UNL     1     -40.712 -42.631  11.494  1.00  0.00     0.051 C 
HETATM   23  C   UNL     1     -41.722 -44.950  11.085  1.00  0.00     0.118 A 
ENDBRANCH  16  17
ENDBRANCH  15  16
ENDBRANCH  13  15
ENDBRANCH  12  13
ENDBRANCH   1  12
BRANCH  11  24
HETATM   24  C   UNL     1     -39.177 -52.261  13.810  1.00  0.00     0.156 C 
BRANCH  24  25
HETATM   25  C   UNL     1     -39.065 -51.418  15.078  1.00  0.00     0.184 C 
BRANCH  25  26
HETATM   26  O   UNL     1     -38.469 -50.150  14.820  1.00  0.00    -0.399 OA
HETATM   27  H   UNL     1     -38.837 -49.526  15.474  1.00  0.00     0.209 HD
ENDBRANCH  25  26
ENDBRANCH  24  25
ENDBRANCH  11  24
TORSDOF 8
ENDMDL
MODEL 6
REMARK VINA RESULT:      -6.2      2.375      3.309
REMARK  8 active torsions:
REMARK  status: ('A' for Active; 'I' for Inactive)
REMARK    1  A    between atoms: N_6  and  C_7 
REMARK    2  A    between atoms: C_7  and  C_8 
REMARK    3  A    between atoms: C_8  and  N_9 
REMARK    4  A    between atoms: N_9  and  C_10 
REMARK    5  A    between atoms: C_10  and  C_11 
REMARK    6  A    between atoms: N_21  and  C_22 
REMARK    7  A    between atoms: C_22  and  C_23 
REMARK    8  A    between atoms: C_23  and  O_24 
ROOT
HETATM    1  C   UNL     1     -41.683 -51.681  13.514  1.00  0.00     0.113 A 
HETATM    2  N   UNL     1     -40.393 -51.895  13.678  1.00  0.00    -0.342 N 
ATOM      3  HN  UNL     1     -39.625 -51.318  13.335  1.00  0.00     0.167 HD
HETATM    4  C   UNL     1     -40.297 -53.051  14.402  1.00  0.00     0.062 A 
HETATM    5  C   UNL     1     -39.147 -53.703  14.866  1.00  0.00     0.055 A 
HETATM    6  C   UNL     1     -39.308 -54.885  15.588  1.00  0.00     0.036 A 
HETATM    7 CL   UNL     1     -37.912 -55.712  16.167  1.00  0.00    -0.084 Cl
HETATM    8  C   UNL     1     -40.575 -55.412  15.845  1.00  0.00     0.026 A 
HETATM    9  C   UNL     1     -41.733 -54.768  15.387  1.00  0.00     0.034 A 
HETATM   10  C   UNL     1     -41.557 -53.581  14.667  1.00  0.00     0.062 A 
HETATM   11  N   UNL     1     -42.432 -52.690  14.081  1.00  0.00    -0.331 N 
ENDROOT
BRANCH   1  12
HETATM   12  C   UNL     1     -42.254 -50.506  12.789  1.00  0.00     0.345 C 
BRANCH  12  13
HETATM   13  N   UNL     1     -41.743 -50.467  11.417  1.00  0.00     0.092 N 
HETATM   14  H   UNL     1     -41.228 -51.333  11.249  1.00  0.00     0.316 HD
BRANCH  13  15
HETATM   15  C   UNL     1     -40.869 -49.311  11.188  1.00  0.00     0.291 C 
BRANCH  15  16
HETATM   16  C   UNL     1     -41.562 -47.959  11.359  1.00  0.00     0.178 C 
BRANCH  16  17
HETATM   17  N   UNL     1     -42.619 -47.783  10.386  1.00  0.00    -0.302 N 
HETATM   18  N   UNL     1     -42.351 -47.945   9.079  1.00  0.00    -0.310 N 
HETATM   19  C   UNL     1     -43.533 -47.749   8.493  1.00  0.00     0.115 A 
ATOM     20  HN  UNL     1     -41.457 -48.164   8.640  1.00  0.00     0.186 HD
HETATM   21  C   UNL     1     -44.555 -47.443   9.421  1.00  0.00    -0.028 A 
HETATM   22  C   UNL     1     -45.980 -47.159   9.154  1.00  0.00     0.051 C 
HETATM   23  C   UNL     1     -43.919 -47.469  10.644  1.00  0.00     0.118 A 
ENDBRANCH  16  17
ENDBRANCH  15  16
ENDBRANCH  13  15
ENDBRANCH  12  13
ENDBRANCH   1  12
BRANCH  11  24
HETATM   24  C   UNL     1     -43.884 -52.765  14.127  1.00  0.00     0.156 C 
BRANCH  24  25
HETATM   25  C   UNL     1     -44.491 -53.743  13.124  1.00  0.00     0.184 C 
BRANCH  25  26
HETATM   26  O   UNL     1     -44.173 -53.390  11.781  1.00  0.00    -0.399 OA
HETATM   27  H   UNL     1     -43.825 -52.478  11.803  1.00  0.00     0.209 HD
ENDBRANCH  25  26
ENDBRANCH  24  25
ENDBRANCH  11  24
TORSDOF 8
ENDMDL
MODEL 7
REMARK VINA RESULT:      -6.0      3.218      6.625
REMARK  8 active torsions:
REMARK  status: ('A' for Active; 'I' for Inactive)
REMARK    1  A    between atoms: N_6  and  C_7 
REMARK    2  A    between atoms: C_7  and  C_8 
REMARK    3  A    between atoms: C_8  and  N_9 
REMARK    4  A    between atoms: N_9  and  C_10 
REMARK    5  A    between atoms: C_10  and  C_11 
REMARK    6  A    between atoms: N_21  and  C_22 
REMARK    7  A    between atoms: C_22  and  C_23 
REMARK    8  A    between atoms: C_23  and  O_24 
ROOT
HETATM    1  C   UNL     1     -40.160 -49.558  11.722  1.00  0.00     0.113 A 
HETATM    2  N   UNL     1     -40.825 -49.466  10.588  1.00  0.00    -0.342 N 
ATOM      3  HN  UNL     1     -40.828 -50.137   9.820  1.00  0.00     0.167 HD
HETATM    4  C   UNL     1     -41.510 -48.286  10.654  1.00  0.00     0.062 A 
HETATM    5  C   UNL     1     -42.389 -47.727   9.716  1.00  0.00     0.055 A 
HETATM    6  C   UNL     1     -42.968 -46.493  10.012  1.00  0.00     0.036 A 
HETATM    7 CL   UNL     1     -44.048 -45.779   8.875  1.00  0.00    -0.084 Cl
HETATM    8  C   UNL     1     -42.688 -45.827  11.206  1.00  0.00     0.026 A 
HETATM    9  C   UNL     1     -41.812 -46.376  12.153  1.00  0.00     0.034 A 
HETATM   10  C   UNL     1     -41.241 -47.616  11.844  1.00  0.00     0.062 A 
HETATM   11  N   UNL     1     -40.364 -48.447  12.512  1.00  0.00    -0.331 N 
ENDROOT
BRANCH   1  12
HETATM   12  C   UNL     1     -39.283 -50.711  12.090  1.00  0.00     0.345 C 
BRANCH  12  13
HETATM   13  N   UNL     1     -40.018 -51.646  12.946  1.00  0.00     0.092 N 
HETATM   14  H   UNL     1     -39.338 -52.133  13.533  1.00  0.00     0.316 HD
BRANCH  13  15
HETATM   15  C   UNL     1     -40.791 -52.616  12.162  1.00  0.00     0.291 C 
BRANCH  15  16
HETATM   16  C   UNL     1     -41.309 -53.804  12.974  1.00  0.00     0.178 C 
BRANCH  16  17
HETATM   17  N   UNL     1     -42.754 -53.796  13.055  1.00  0.00    -0.302 N 
HETATM   18  N   UNL     1     -43.466 -53.115  12.142  1.00  0.00    -0.310 N 
HETATM   19  C   UNL     1     -44.730 -53.354  12.492  1.00  0.00     0.115 A 
ATOM     20  HN  UNL     1     -43.122 -52.548  11.366  1.00  0.00     0.186 HD
HETATM   21  C   UNL     1     -44.830 -54.173  13.640  1.00  0.00    -0.028 A 
HETATM   22  C   UNL     1     -46.051 -54.645  14.326  1.00  0.00     0.051 C 
HETATM   23  C   UNL     1     -43.520 -54.436  13.981  1.00  0.00     0.118 A 
ENDBRANCH  16  17
ENDBRANCH  15  16
ENDBRANCH  13  15
ENDBRANCH  12  13
ENDBRANCH   1  12
BRANCH  11  24
HETATM   24  C   UNL     1     -39.822 -48.223  13.843  1.00  0.00     0.156 C 
BRANCH  24  25
HETATM   25  C   UNL     1     -38.479 -47.497  13.856  1.00  0.00     0.184 C 
BRANCH  25  26
HETATM   26  O   UNL     1     -37.401 -48.382  14.146  1.00  0.00    -0.399 OA
HETATM   27  H   UNL     1     -37.663 -49.264  13.821  1.00  0.00     0.209 HD
ENDBRANCH  25  26
ENDBRANCH  24  25
ENDBRANCH  11  24
TORSDOF 8
ENDMDL
MODEL 8
REMARK VINA RESULT:      -6.0      1.644      2.041
REMARK  8 active torsions:
REMARK  status: ('A' for Active; 'I' for Inactive)
REMARK    1  A    between atoms: N_6  and  C_7 
REMARK    2  A    between atoms: C_7  and  C_8 
REMARK    3  A    between atoms: C_8  and  N_9 
REMARK    4  A    between atoms: N_9  and  C_10 
REMARK    5  A    between atoms: C_10  and  C_11 
REMARK    6  A    between atoms: N_21  and  C_22 
REMARK    7  A    between atoms: C_22  and  C_23 
REMARK    8  A    between atoms: C_23  and  O_24 
ROOT
HETATM    1  C   UNL     1     -40.845 -49.594  13.254  1.00  0.00     0.113 A 
HETATM    2  N   UNL     1     -41.962 -49.997  13.826  1.00  0.00    -0.342 N 
ATOM      3  HN  UNL     1     -42.663 -49.416  14.285  1.00  0.00     0.167 HD
HETATM    4  C   UNL     1     -41.986 -51.355  13.678  1.00  0.00     0.062 A 
HETATM    5  C   UNL     1     -42.969 -52.266  14.086  1.00  0.00     0.055 A 
HETATM    6  C   UNL     1     -42.761 -53.620  13.823  1.00  0.00     0.036 A 
HETATM    7 CL   UNL     1     -43.950 -54.764  14.318  1.00  0.00    -0.084 Cl
HETATM    8  C   UNL     1     -41.609 -54.064  13.171  1.00  0.00     0.026 A 
HETATM    9  C   UNL     1     -40.619 -53.163  12.757  1.00  0.00     0.034 A 
HETATM   10  C   UNL     1     -40.842 -51.807  13.024  1.00  0.00     0.062 A 
HETATM   11  N   UNL     1     -40.120 -50.660  12.768  1.00  0.00    -0.331 N 
ENDROOT
BRANCH   1  12
HETATM   12  C   UNL     1     -40.417 -48.165  13.164  1.00  0.00     0.345 C 
BRANCH  12  13
HETATM   13  N   UNL     1     -40.614 -47.667  11.800  1.00  0.00     0.092 N 
HETATM   14  H   UNL     1     -39.990 -46.870  11.664  1.00  0.00     0.316 HD
BRANCH  13  15
HETATM   15  C   UNL     1     -42.004 -47.264  11.558  1.00  0.00     0.291 C 
BRANCH  15  16
HETATM   16  C   UNL     1     -42.211 -46.481  10.261  1.00  0.00     0.178 C 
BRANCH  16  17
HETATM   17  N   UNL     1     -43.262 -47.065   9.456  1.00  0.00    -0.302 N 
HETATM   18  N   UNL     1     -42.989 -47.484   8.209  1.00  0.00    -0.310 N 
HETATM   19  C   UNL     1     -44.150 -47.988   7.788  1.00  0.00     0.115 A 
ATOM     20  HN  UNL     1     -42.104 -47.430   7.704  1.00  0.00     0.186 HD
HETATM   21  C   UNL     1     -45.173 -47.875   8.757  1.00  0.00    -0.028 A 
HETATM   22  C   UNL     1     -46.582 -48.309   8.656  1.00  0.00     0.051 C 
HETATM   23  C   UNL     1     -44.558 -47.263   9.828  1.00  0.00     0.118 A 
ENDBRANCH  16  17
ENDBRANCH  15  16
ENDBRANCH  13  15
ENDBRANCH  12  13
ENDBRANCH   1  12
BRANCH  11  24
HETATM   24  C   UNL     1     -38.860 -50.588  12.045  1.00  0.00     0.156 C 
BRANCH  24  25
HETATM   25  C   UNL     1     -37.635 -50.936  12.888  1.00  0.00     0.184 C 
BRANCH  25  26
HETATM   26  O   UNL     1     -36.806 -51.900  12.245  1.00  0.00    -0.399 OA
HETATM   27  H   UNL     1     -36.897 -51.756  11.284  1.00  0.00     0.209 HD
ENDBRANCH  25  26
ENDBRANCH  24  25
ENDBRANCH  11  24
TORSDOF 8
ENDMDL
MODEL 9
REMARK VINA RESULT:      -5.8      3.972      6.422
REMARK  8 active torsions:
REMARK  status: ('A' for Active; 'I' for Inactive)
REMARK    1  A    between atoms: N_6  and  C_7 
REMARK    2  A    between atoms: C_7  and  C_8 
REMARK    3  A    between atoms: C_8  and  N_9 
REMARK    4  A    between atoms: N_9  and  C_10 
REMARK    5  A    between atoms: C_10  and  C_11 
REMARK    6  A    between atoms: N_21  and  C_22 
REMARK    7  A    between atoms: C_22  and  C_23 
REMARK    8  A    between atoms: C_23  and  O_24 
ROOT
HETATM    1  C   UNL     1     -40.683 -50.825  12.864  1.00  0.00     0.113 A 
HETATM    2  N   UNL     1     -39.734 -51.472  13.513  1.00  0.00    -0.342 N 
ATOM      3  HN  UNL     1     -39.634 -52.482  13.610  1.00  0.00     0.167 HD
HETATM    4  C   UNL     1     -38.914 -50.508  14.029  1.00  0.00     0.062 A 
HETATM    5  C   UNL     1     -37.742 -50.663  14.781  1.00  0.00     0.055 A 
HETATM    6  C   UNL     1     -37.075 -49.513  15.203  1.00  0.00     0.036 A 
HETATM    7 CL   UNL     1     -35.635 -49.673  16.135  1.00  0.00    -0.084 Cl
HETATM    8  C   UNL     1     -37.554 -48.240  14.890  1.00  0.00     0.026 A 
HETATM    9  C   UNL     1     -38.725 -48.072  14.137  1.00  0.00     0.034 A 
HETATM   10  C   UNL     1     -39.382 -49.234  13.717  1.00  0.00     0.062 A 
HETATM   11  N   UNL     1     -40.523 -49.461  12.975  1.00  0.00    -0.331 N 
ENDROOT
BRANCH   1  12
HETATM   12  C   UNL     1     -41.795 -51.492  12.121  1.00  0.00     0.345 C 
BRANCH  12  13
HETATM   13  N   UNL     1     -41.631 -52.947  12.172  1.00  0.00     0.092 N 
HETATM   14  H   UNL     1     -41.787 -53.313  11.231  1.00  0.00     0.316 HD
BRANCH  13  15
HETATM   15  C   UNL     1     -42.566 -53.572  13.115  1.00  0.00     0.291 C 
BRANCH  15  16
HETATM   16  C   UNL     1     -43.928 -53.913  12.511  1.00  0.00     0.178 C 
BRANCH  16  17
HETATM   17  N   UNL     1     -44.955 -53.011  12.987  1.00  0.00    -0.302 N 
HETATM   18  N   UNL     1     -45.662 -52.286  12.104  1.00  0.00    -0.310 N 
HETATM   19  C   UNL     1     -46.523 -51.614  12.871  1.00  0.00     0.115 A 
ATOM     20  HN  UNL     1     -45.565 -52.255  11.089  1.00  0.00     0.186 HD
HETATM   21  C   UNL     1     -46.354 -51.893  14.247  1.00  0.00    -0.028 A 
HETATM   22  C   UNL     1     -47.109 -51.342  15.392  1.00  0.00     0.051 C 
HETATM   23  C   UNL     1     -45.320 -52.803  14.283  1.00  0.00     0.118 A 
ENDBRANCH  16  17
ENDBRANCH  15  16
ENDBRANCH  13  15
ENDBRANCH  12  13
ENDBRANCH   1  12
BRANCH  11  24
HETATM   24  C   UNL     1     -41.356 -48.442  12.358  1.00  0.00     0.156 C 
BRANCH  24  25
HETATM   25  C   UNL     1     -40.829 -47.930  11.019  1.00  0.00     0.184 C 
BRANCH  25  26
HETATM   26  O   UNL     1     -41.500 -48.537   9.919  1.00  0.00    -0.399 OA
HETATM   27  H   UNL     1     -41.008 -49.351   9.702  1.00  0.00     0.209 HD
ENDBRANCH  25  26
ENDBRANCH  24  25
ENDBRANCH  11  24
TORSDOF 8
ENDMDL
