MODEL 1
REMARK VINA RESULT:      -6.6      0.000      0.000
REMARK  4 active torsions:
REMARK  status: ('A' for Active; 'I' for Inactive)
REMARK    1  A    between atoms: C_5  and  N_6 
REMARK       I    between atoms: N_6  and  C_7 
REMARK       I    between atoms: C_7  and  N_9 
REMARK    2  A    between atoms: N_9  and  C_10 
REMARK    3  A    between atoms: N_13  and  C_14 
REMARK    4  A    between atoms: C_14  and  C_15 
ROOT
HETATM    1  N   UNL     1     -41.860 -46.907  10.036  1.00  0.00    -0.295 N 
HETATM    2  C   UNL     1     -41.062 -47.563  10.945  1.00  0.00     0.322 C 
HETATM    3  O   UNL     1     -40.055 -47.014  11.376  1.00  0.00    -0.247 OA
HETATM    4  N   UNL     1     -41.463 -48.815  11.279  1.00  0.00    -0.338 N 
HETATM    5  H   UNL     1     -41.502 -45.997   9.780  1.00  0.00     0.172 HD
HETATM    6  H   UNL     1     -42.389 -49.039  10.926  1.00  0.00     0.164 HD
ENDROOT
BRANCH   4   7
HETATM    7  C   UNL     1     -40.939 -49.709  12.297  1.00  0.00     0.089 C 
HETATM    8  C   UNL     1     -40.582 -51.080  11.720  1.00  0.00     0.055 C 
HETATM    9  C   UNL     1     -41.644 -52.136  11.995  1.00  0.00     0.274 C 
HETATM   10  N   UNL     1     -41.977 -52.247  13.420  1.00  0.00     0.089 N 
HETATM   11  C   UNL     1     -42.595 -50.975  13.840  1.00  0.00     0.274 C 
HETATM   12  C   UNL     1     -41.724 -49.734  13.617  1.00  0.00     0.055 C 
BRANCH  10  13
HETATM   13  C   UNL     1     -40.857 -52.633  14.297  1.00  0.00     0.279 C 
BRANCH  13  14
HETATM   14  C   UNL     1     -40.566 -54.141  14.384  1.00  0.00     0.040 C 
HETATM   15  C   UNL     1     -41.130 -54.848  15.609  1.00  0.00     0.035 C 
HETATM   16  C   UNL     1     -39.937 -55.544  16.237  1.00  0.00     0.168 C 
HETATM   17  O   UNL     1     -38.934 -55.617  15.220  1.00  0.00    -0.391 OA
HETATM   18  C   UNL     1     -39.070 -54.419  14.452  1.00  0.00     0.173 C 
ENDBRANCH  13  14
ENDBRANCH  10  13
ENDBRANCH   4   7
BRANCH   1  19
HETATM   19  C   UNL     1     -43.047 -47.351   9.436  1.00  0.00     0.108 A 
HETATM   20  C   UNL     1     -44.243 -47.210  10.135  1.00  0.00     0.052 A 
HETATM   21  C   UNL     1     -45.434 -47.613   9.523  1.00  0.00     0.047 A 
HETATM   22  C   UNL     1     -45.393 -48.148   8.246  1.00  0.00     0.131 A 
HETATM   23  F   UNL     1     -46.516 -48.525   7.625  1.00  0.00    -0.205 F 
HETATM   24  C   UNL     1     -44.169 -48.274   7.624  1.00  0.00     0.132 A 
HETATM   25  N   UNL     1     -43.002 -47.894   8.194  1.00  0.00    -0.349 N 
ATOM     26  HN  UNL     1     -42.115 -48.012   7.704  1.00  0.00     0.167 HD
ENDBRANCH   1  19
TORSDOF 4
ENDMDL
MODEL 2
REMARK VINA RESULT:      -6.5      2.746      3.304
REMARK  4 active torsions:
REMARK  status: ('A' for Active; 'I' for Inactive)
REMARK    1  A    between atoms: C_5  and  N_6 
REMARK       I    between atoms: N_6  and  C_7 
REMARK       I    between atoms: C_7  and  N_9 
REMARK    2  A    between atoms: N_9  and  C_10 
REMARK    3  A    between atoms: N_13  and  C_14 
REMARK    4  A    between atoms: C_14  and  C_15 
ROOT
HETATM    1  N   UNL     1     -40.174 -47.851  11.095  1.00  0.00    -0.295 N 
HETATM    2  C   UNL     1     -40.066 -48.941  11.928  1.00  0.00     0.322 C 
HETATM    3  O   UNL     1     -38.967 -49.265  12.364  1.00  0.00    -0.247 OA
HETATM    4  N   UNL     1     -41.223 -49.600  12.185  1.00  0.00    -0.338 N 
HETATM    5  H   UNL     1     -39.283 -47.417  10.894  1.00  0.00     0.172 HD
HETATM    6  H   UNL     1     -42.042 -49.102  11.847  1.00  0.00     0.164 HD
ENDROOT
BRANCH   4   7
HETATM    7  C   UNL     1     -41.479 -50.682  13.119  1.00  0.00     0.089 C 
HETATM    8  C   UNL     1     -41.128 -52.046  12.518  1.00  0.00     0.055 C 
HETATM    9  C   UNL     1     -42.348 -52.806  12.016  1.00  0.00     0.274 C 
HETATM   10  N   UNL     1     -43.390 -52.946  13.041  1.00  0.00     0.089 N 
HETATM   11  C   UNL     1     -43.893 -51.596  13.361  1.00  0.00     0.274 C 
HETATM   12  C   UNL     1     -42.826 -50.613  13.852  1.00  0.00     0.055 C 
BRANCH  10  13
HETATM   13  C   UNL     1     -42.983 -53.685  14.250  1.00  0.00     0.279 C 
BRANCH  13  14
HETATM   14  C   UNL     1     -44.039 -54.634  14.840  1.00  0.00     0.040 C 
HETATM   15  C   UNL     1     -45.185 -55.002  13.907  1.00  0.00     0.035 C 
HETATM   16  C   UNL     1     -46.442 -54.652  14.681  1.00  0.00     0.168 C 
HETATM   17  O   UNL     1     -46.054 -54.559  16.054  1.00  0.00    -0.391 OA
HETATM   18  C   UNL     1     -44.730 -54.019  16.050  1.00  0.00     0.173 C 
ENDBRANCH  13  14
ENDBRANCH  10  13
ENDBRANCH   4   7
BRANCH   1  19
HETATM   19  C   UNL     1     -41.327 -47.315  10.504  1.00  0.00     0.108 A 
HETATM   20  C   UNL     1     -41.734 -46.036  10.872  1.00  0.00     0.052 A 
HETATM   21  C   UNL     1     -42.860 -45.481  10.255  1.00  0.00     0.047 A 
HETATM   22  C   UNL     1     -43.543 -46.220   9.303  1.00  0.00     0.131 A 
HETATM   23  F   UNL     1     -44.612 -45.712   8.679  1.00  0.00    -0.205 F 
HETATM   24  C   UNL     1     -43.092 -47.489   9.006  1.00  0.00     0.132 A 
HETATM   25  N   UNL     1     -42.007 -48.049   9.589  1.00  0.00    -0.349 N 
ATOM     26  HN  UNL     1     -41.710 -48.995   9.347  1.00  0.00     0.167 HD
ENDBRANCH   1  19
TORSDOF 4
ENDMDL
MODEL 3
REMARK VINA RESULT:      -6.5      3.315      3.887
REMARK  4 active torsions:
REMARK  status: ('A' for Active; 'I' for Inactive)
REMARK    1  A    between atoms: C_5  and  N_6 
REMARK       I    between atoms: N_6  and  C_7 
REMARK       I    between atoms: C_7  and  N_9 
REMARK    2  A    between atoms: N_9  and  C_10 
REMARK    3  A    between atoms: N_13  and  C_14 
REMARK    4  A    between atoms: C_14  and  C_15 
ROOT
HETATM    1  N   UNL     1     -43.514 -45.745   9.147  1.00  0.00    -0.295 N 
HETATM    2  C   UNL     1     -42.583 -45.769  10.160  1.00  0.00     0.322 C 
HETATM    3  O   UNL     1     -41.912 -44.770  10.391  1.00  0.00    -0.247 OA
HETATM    4  N   UNL     1     -42.469 -46.947  10.822  1.00  0.00    -0.338 N 
HETATM    5  H   UNL     1     -43.535 -44.865   8.650  1.00  0.00     0.172 HD
HETATM    6  H   UNL     1     -43.202 -47.608  10.579  1.00  0.00     0.164 HD
ENDROOT
BRANCH   4   7
HETATM    7  C   UNL     1     -41.701 -47.263  12.014  1.00  0.00     0.089 C 
HETATM    8  C   UNL     1     -40.202 -47.357  11.715  1.00  0.00     0.055 C 
HETATM    9  C   UNL     1     -39.713 -48.792  11.578  1.00  0.00     0.274 C 
HETATM   10  N   UNL     1     -40.061 -49.623  12.738  1.00  0.00     0.089 N 
HETATM   11  C   UNL     1     -41.531 -49.731  12.790  1.00  0.00     0.274 C 
HETATM   12  C   UNL     1     -42.271 -48.392  12.884  1.00  0.00     0.055 C 
BRANCH  10  13
HETATM   13  C   UNL     1     -39.493 -49.174  14.022  1.00  0.00     0.279 C 
BRANCH  13  14
HETATM   14  C   UNL     1     -37.962 -49.037  14.063  1.00  0.00     0.040 C 
HETATM   15  C   UNL     1     -37.248 -49.950  15.050  1.00  0.00     0.035 C 
HETATM   16  C   UNL     1     -36.407 -49.017  15.902  1.00  0.00     0.168 C 
HETATM   17  O   UNL     1     -36.293 -47.796  15.166  1.00  0.00    -0.391 OA
HETATM   18  C   UNL     1     -37.538 -47.635  14.482  1.00  0.00     0.173 C 
ENDBRANCH  13  14
ENDBRANCH  10  13
ENDBRANCH   4   7
BRANCH   1  19
HETATM   19  C   UNL     1     -44.381 -46.767   8.733  1.00  0.00     0.108 A 
HETATM   20  C   UNL     1     -45.637 -46.860   9.325  1.00  0.00     0.052 A 
HETATM   21  C   UNL     1     -46.519 -47.853   8.886  1.00  0.00     0.047 A 
HETATM   22  C   UNL     1     -46.119 -48.719   7.882  1.00  0.00     0.131 A 
HETATM   23  F   UNL     1     -46.945 -49.666   7.425  1.00  0.00    -0.205 F 
HETATM   24  C   UNL     1     -44.852 -48.578   7.357  1.00  0.00     0.132 A 
HETATM   25  N   UNL     1     -43.979 -47.628   7.765  1.00  0.00    -0.349 N 
ATOM     26  HN  UNL     1     -43.046 -47.562   7.357  1.00  0.00     0.167 HD
ENDBRANCH   1  19
TORSDOF 4
ENDMDL
MODEL 4
REMARK VINA RESULT:      -6.5      1.482      1.713
REMARK  4 active torsions:
REMARK  status: ('A' for Active; 'I' for Inactive)
REMARK    1  A    between atoms: C_5  and  N_6 
REMARK       I    between atoms: N_6  and  C_7 
REMARK       I    between atoms: C_7  and  N_9 
REMARK    2  A    between atoms: N_9  and  C_10 
REMARK    3  A    between atoms: N_13  and  C_14 
REMARK    4  A    between atoms: C_14  and  C_15 
ROOT
HETATM    1  N   UNL     1     -43.606 -46.885  10.766  1.00  0.00    -0.295 N 
HETATM    2  C   UNL     1     -43.123 -47.509  11.894  1.00  0.00     0.322 C 
HETATM    3  O   UNL     1     -42.689 -46.835  12.821  1.00  0.00    -0.247 OA
HETATM    4  N   UNL     1     -43.149 -48.864  11.870  1.00  0.00    -0.338 N 
HETATM    5  H   UNL     1     -43.527 -45.877  10.807  1.00  0.00     0.172 HD
HETATM    6  H   UNL     1     -43.668 -49.233  11.078  1.00  0.00     0.164 HD
ENDROOT
BRANCH   4   7
HETATM    7  C   UNL     1     -42.853 -49.810  12.931  1.00  0.00     0.089 C 
HETATM    8  C   UNL     1     -41.592 -50.625  12.632  1.00  0.00     0.055 C 
HETATM    9  C   UNL     1     -41.897 -52.019  12.102  1.00  0.00     0.274 C 
HETATM   10  N   UNL     1     -42.803 -52.773  12.979  1.00  0.00     0.089 N 
HETATM   11  C   UNL     1     -44.105 -52.080  12.986  1.00  0.00     0.274 C 
HETATM   12  C   UNL     1     -44.053 -50.619  13.444  1.00  0.00     0.055 C 
BRANCH  10  13
HETATM   13  C   UNL     1     -42.297 -53.013  14.342  1.00  0.00     0.279 C 
BRANCH  13  14
HETATM   14  C   UNL     1     -41.842 -54.451  14.642  1.00  0.00     0.040 C 
HETATM   15  C   UNL     1     -42.818 -55.291  15.455  1.00  0.00     0.035 C 
HETATM   16  C   UNL     1     -42.005 -55.798  16.632  1.00  0.00     0.168 C 
HETATM   17  O   UNL     1     -40.631 -55.658  16.261  1.00  0.00    -0.391 OA
HETATM   18  C   UNL     1     -40.561 -54.471  15.466  1.00  0.00     0.173 C 
ENDBRANCH  13  14
ENDBRANCH  10  13
ENDBRANCH   4   7
BRANCH   1  19
HETATM   19  C   UNL     1     -44.149 -47.466   9.611  1.00  0.00     0.108 A 
HETATM   20  C   UNL     1     -45.515 -47.731   9.575  1.00  0.00     0.052 A 
HETATM   21  C   UNL     1     -46.068 -48.273   8.410  1.00  0.00     0.047 A 
HETATM   22  C   UNL     1     -45.243 -48.539   7.330  1.00  0.00     0.131 A 
HETATM   23  F   UNL     1     -45.742 -49.038   6.194  1.00  0.00    -0.205 F 
HETATM   24  C   UNL     1     -43.897 -48.268   7.447  1.00  0.00     0.132 A 
HETATM   25  N   UNL     1     -43.336 -47.746   8.563  1.00  0.00    -0.349 N 
ATOM     26  HN  UNL     1     -42.333 -47.568   8.613  1.00  0.00     0.167 HD
ENDBRANCH   1  19
TORSDOF 4
ENDMDL
MODEL 5
REMARK VINA RESULT:      -6.4      3.242      4.297
REMARK  4 active torsions:
REMARK  status: ('A' for Active; 'I' for Inactive)
REMARK    1  A    between atoms: C_5  and  N_6 
REMARK       I    between atoms: N_6  and  C_7 
REMARK       I    between atoms: C_7  and  N_9 
REMARK    2  A    between atoms: N_9  and  C_10 
REMARK    3  A    between atoms: N_13  and  C_14 
REMARK    4  A    between atoms: C_14  and  C_15 
ROOT
HETATM    1  N   UNL     1     -38.735 -48.738  11.602  1.00  0.00    -0.295 N 
HETATM    2  C   UNL     1     -38.864 -50.091  11.813  1.00  0.00     0.322 C 
HETATM    3  O   UNL     1     -37.878 -50.815  11.731  1.00  0.00    -0.247 OA
HETATM    4  N   UNL     1     -40.121 -50.525  12.079  1.00  0.00    -0.338 N 
HETATM    5  H   UNL     1     -37.792 -48.463  11.363  1.00  0.00     0.172 HD
HETATM    6  H   UNL     1     -40.774 -49.764  12.240  1.00  0.00     0.164 HD
ENDROOT
BRANCH   4   7
HETATM    7  C   UNL     1     -40.573 -51.845  12.483  1.00  0.00     0.089 C 
HETATM    8  C   UNL     1     -42.047 -52.072  12.134  1.00  0.00     0.055 C 
HETATM    9  C   UNL     1     -42.974 -51.894  13.328  1.00  0.00     0.274 C 
HETATM   10  N   UNL     1     -42.583 -52.719  14.478  1.00  0.00     0.089 N 
HETATM   11  C   UNL     1     -41.268 -52.243  14.949  1.00  0.00     0.274 C 
HETATM   12  C   UNL     1     -40.156 -52.280  13.895  1.00  0.00     0.055 C 
BRANCH  10  13
HETATM   13  C   UNL     1     -42.590 -54.173  14.236  1.00  0.00     0.279 C 
BRANCH  13  14
HETATM   14  C   UNL     1     -43.812 -54.934  14.776  1.00  0.00     0.040 C 
HETATM   15  C   UNL     1     -45.006 -55.010  13.834  1.00  0.00     0.035 C 
HETATM   16  C   UNL     1     -46.172 -54.472  14.643  1.00  0.00     0.168 C 
HETATM   17  O   UNL     1     -45.776 -54.545  16.015  1.00  0.00    -0.391 OA
HETATM   18  C   UNL     1     -44.372 -54.275  16.030  1.00  0.00     0.173 C 
ENDBRANCH  13  14
ENDBRANCH  10  13
ENDBRANCH   4   7
BRANCH   1  19
HETATM   19  C   UNL     1     -39.726 -47.747  11.659  1.00  0.00     0.108 A 
HETATM   20  C   UNL     1     -39.893 -47.034  12.844  1.00  0.00     0.052 A 
HETATM   21  C   UNL     1     -40.852 -46.018  12.891  1.00  0.00     0.047 A 
HETATM   22  C   UNL     1     -41.614 -45.752  11.765  1.00  0.00     0.131 A 
HETATM   23  F   UNL     1     -42.526 -44.773  11.771  1.00  0.00    -0.205 F 
HETATM   24  C   UNL     1     -41.405 -46.513  10.635  1.00  0.00     0.132 A 
HETATM   25  N   UNL     1     -40.485 -47.503  10.563  1.00  0.00    -0.349 N 
ATOM     26  HN  UNL     1     -40.368 -48.049   9.709  1.00  0.00     0.167 HD
ENDBRANCH   1  19
TORSDOF 4
ENDMDL
MODEL 6
REMARK VINA RESULT:      -6.4      1.657      2.216
REMARK  4 active torsions:
REMARK  status: ('A' for Active; 'I' for Inactive)
REMARK    1  A    between atoms: C_5  and  N_6 
REMARK       I    between atoms: N_6  and  C_7 
REMARK       I    between atoms: C_7  and  N_9 
REMARK    2  A    between atoms: N_9  and  C_10 
REMARK    3  A    between atoms: N_13  and  C_14 
REMARK    4  A    between atoms: C_14  and  C_15 
ROOT
HETATM    1  N   UNL     1     -40.886 -48.431  10.314  1.00  0.00    -0.295 N 
HETATM    2  C   UNL     1     -40.818 -49.511  11.163  1.00  0.00     0.322 C 
HETATM    3  O   UNL     1     -39.731 -50.018  11.415  1.00  0.00    -0.247 OA
HETATM    4  N   UNL     1     -42.006 -49.951  11.647  1.00  0.00    -0.338 N 
HETATM    5  H   UNL     1     -39.985 -48.164   9.941  1.00  0.00     0.172 HD
HETATM    6  H   UNL     1     -42.775 -49.321  11.436  1.00  0.00     0.164 HD
ENDROOT
BRANCH   4   7
HETATM    7  C   UNL     1     -42.272 -50.958  12.660  1.00  0.00     0.089 C 
HETATM    8  C   UNL     1     -41.898 -50.468  14.061  1.00  0.00     0.055 C 
HETATM    9  C   UNL     1     -40.556 -51.005  14.539  1.00  0.00     0.274 C 
HETATM   10  N   UNL     1     -40.472 -52.469  14.465  1.00  0.00     0.089 N 
HETATM   11  C   UNL     1     -40.545 -52.853  13.042  1.00  0.00     0.274 C 
HETATM   12  C   UNL     1     -41.806 -52.379  12.312  1.00  0.00     0.055 C 
BRANCH  10  13
HETATM   13  C   UNL     1     -41.458 -53.195  15.285  1.00  0.00     0.279 C 
BRANCH  13  14
HETATM   14  C   UNL     1     -41.326 -54.727  15.288  1.00  0.00     0.040 C 
HETATM   15  C   UNL     1     -42.534 -55.488  15.818  1.00  0.00     0.035 C 
HETATM   16  C   UNL     1     -41.978 -56.386  16.908  1.00  0.00     0.168 C 
HETATM   17  O   UNL     1     -40.569 -56.468  16.680  1.00  0.00    -0.391 OA
HETATM   18  C   UNL     1     -40.179 -55.187  16.179  1.00  0.00     0.173 C 
ENDBRANCH  13  14
ENDBRANCH  10  13
ENDBRANCH   4   7
BRANCH   1  19
HETATM   19  C   UNL     1     -42.018 -47.708   9.910  1.00  0.00     0.108 A 
HETATM   20  C   UNL     1     -42.339 -46.534  10.586  1.00  0.00     0.052 A 
HETATM   21  C   UNL     1     -43.442 -45.788  10.160  1.00  0.00     0.047 A 
HETATM   22  C   UNL     1     -44.190 -46.239   9.085  1.00  0.00     0.131 A 
HETATM   23  F   UNL     1     -45.240 -45.540   8.639  1.00  0.00    -0.205 F 
HETATM   24  C   UNL     1     -43.823 -47.421   8.478  1.00  0.00     0.132 A 
HETATM   25  N   UNL     1     -42.761 -48.162   8.871  1.00  0.00    -0.349 N 
ATOM     26  HN  UNL     1     -42.528 -49.037   8.400  1.00  0.00     0.167 HD
ENDBRANCH   1  19
TORSDOF 4
ENDMDL
MODEL 7
REMARK VINA RESULT:      -6.4      3.653      7.724
REMARK  4 active torsions:
REMARK  status: ('A' for Active; 'I' for Inactive)
REMARK    1  A    between atoms: C_5  and  N_6 
REMARK       I    between atoms: N_6  and  C_7 
REMARK       I    between atoms: C_7  and  N_9 
REMARK    2  A    between atoms: N_9  and  C_10 
REMARK    3  A    between atoms: N_13  and  C_14 
REMARK    4  A    between atoms: C_14  and  C_15 
ROOT
HETATM    1  N   UNL     1     -41.329 -53.442  12.637  1.00  0.00    -0.295 N 
HETATM    2  C   UNL     1     -40.855 -52.152  12.683  1.00  0.00     0.322 C 
HETATM    3  O   UNL     1     -39.736 -51.901  12.248  1.00  0.00    -0.247 OA
HETATM    4  N   UNL     1     -41.686 -51.241  13.247  1.00  0.00    -0.338 N 
HETATM    5  H   UNL     1     -40.662 -54.096  12.250  1.00  0.00     0.172 HD
HETATM    6  H   UNL     1     -42.616 -51.612  13.420  1.00  0.00     0.164 HD
ENDROOT
BRANCH   4   7
HETATM    7  C   UNL     1     -41.556 -49.797  13.323  1.00  0.00     0.089 C 
HETATM    8  C   UNL     1     -41.881 -49.126  11.986  1.00  0.00     0.055 C 
HETATM    9  C   UNL     1     -40.638 -48.735  11.199  1.00  0.00     0.274 C 
HETATM   10  N   UNL     1     -39.710 -47.907  11.979  1.00  0.00     0.089 N 
HETATM   11  C   UNL     1     -39.205 -48.726  13.098  1.00  0.00     0.274 C 
HETATM   12  C   UNL     1     -40.290 -49.286  14.024  1.00  0.00     0.055 C 
BRANCH  10  13
HETATM   13  C   UNL     1     -40.259 -46.619  12.441  1.00  0.00     0.279 C 
BRANCH  13  14
HETATM   14  C   UNL     1     -39.648 -45.364  11.797  1.00  0.00     0.040 C 
HETATM   15  C   UNL     1     -39.923 -44.054  12.524  1.00  0.00     0.035 C 
HETATM   16  C   UNL     1     -40.525 -43.145  11.468  1.00  0.00     0.168 C 
HETATM   17  O   UNL     1     -40.177 -43.714  10.203  1.00  0.00    -0.391 OA
HETATM   18  C   UNL     1     -40.195 -45.131  10.395  1.00  0.00     0.173 C 
ENDBRANCH  13  14
ENDBRANCH  10  13
ENDBRANCH   4   7
BRANCH   1  19
HETATM   19  C   UNL     1     -42.571 -53.932  13.067  1.00  0.00     0.108 A 
HETATM   20  C   UNL     1     -42.650 -54.558  14.308  1.00  0.00     0.052 A 
HETATM   21  C   UNL     1     -43.894 -55.010  14.758  1.00  0.00     0.047 A 
HETATM   22  C   UNL     1     -45.011 -54.832  13.958  1.00  0.00     0.131 A 
HETATM   23  F   UNL     1     -46.219 -55.235  14.367  1.00  0.00    -0.205 F 
HETATM   24  C   UNL     1     -44.851 -54.220  12.733  1.00  0.00     0.132 A 
HETATM   25  N   UNL     1     -43.659 -53.775  12.272  1.00  0.00    -0.349 N 
ATOM     26  HN  UNL     1     -43.581 -53.335  11.355  1.00  0.00     0.167 HD
ENDBRANCH   1  19
TORSDOF 4
ENDMDL
MODEL 8
REMARK VINA RESULT:      -6.4      5.042      9.388
REMARK  4 active torsions:
REMARK  status: ('A' for Active; 'I' for Inactive)
REMARK    1  A    between atoms: C_5  and  N_6 
REMARK       I    between atoms: N_6  and  C_7 
REMARK       I    between atoms: C_7  and  N_9 
REMARK    2  A    between atoms: N_9  and  C_10 
REMARK    3  A    between atoms: N_13  and  C_14 
REMARK    4  A    between atoms: C_14  and  C_15 
ROOT
HETATM    1  N   UNL     1     -41.159 -49.384  10.615  1.00  0.00    -0.295 N 
HETATM    2  C   UNL     1     -41.579 -48.127  10.244  1.00  0.00     0.322 C 
HETATM    3  O   UNL     1     -42.601 -48.001   9.580  1.00  0.00    -0.247 OA
HETATM    4  N   UNL     1     -40.782 -47.104  10.638  1.00  0.00    -0.338 N 
HETATM    5  H   UNL     1     -41.756 -50.121  10.263  1.00  0.00     0.172 HD
HETATM    6  H   UNL     1     -40.060 -47.396  11.291  1.00  0.00     0.164 HD
ENDROOT
BRANCH   4   7
HETATM    7  C   UNL     1     -41.004 -45.672  10.538  1.00  0.00     0.089 C 
HETATM    8  C   UNL     1     -39.694 -44.886  10.624  1.00  0.00     0.055 C 
HETATM    9  C   UNL     1     -39.449 -44.286  12.001  1.00  0.00     0.274 C 
HETATM   10  N   UNL     1     -40.574 -43.467  12.471  1.00  0.00     0.089 N 
HETATM   11  C   UNL     1     -41.737 -44.357  12.649  1.00  0.00     0.274 C 
HETATM   12  C   UNL     1     -42.157 -45.125  11.391  1.00  0.00     0.055 C 
BRANCH  10  13
HETATM   13  C   UNL     1     -40.894 -42.302  11.627  1.00  0.00     0.279 C 
BRANCH  13  14
HETATM   14  C   UNL     1     -40.979 -40.951  12.358  1.00  0.00     0.040 C 
HETATM   15  C   UNL     1     -41.237 -39.740  11.471  1.00  0.00     0.035 C 
HETATM   16  C   UNL     1     -40.115 -38.773  11.801  1.00  0.00     0.168 C 
HETATM   17  O   UNL     1     -39.583 -39.191  13.061  1.00  0.00    -0.391 OA
HETATM   18  C   UNL     1     -39.674 -40.617  13.070  1.00  0.00     0.173 C 
ENDBRANCH  13  14
ENDBRANCH  10  13
ENDBRANCH   4   7
BRANCH   1  19
HETATM   19  C   UNL     1     -40.035 -49.740  11.374  1.00  0.00     0.108 A 
HETATM   20  C   UNL     1     -40.199 -49.997  12.732  1.00  0.00     0.052 A 
HETATM   21  C   UNL     1     -39.088 -50.393  13.484  1.00  0.00     0.047 A 
HETATM   22  C   UNL     1     -37.856 -50.511  12.862  1.00  0.00     0.131 A 
HETATM   23  F   UNL     1     -36.777 -50.906  13.547  1.00  0.00    -0.205 F 
HETATM   24  C   UNL     1     -37.767 -50.220  11.517  1.00  0.00     0.132 A 
HETATM   25  N   UNL     1     -38.826 -49.834  10.767  1.00  0.00    -0.349 N 
ATOM     26  HN  UNL     1     -38.717 -49.620   9.776  1.00  0.00     0.167 HD
ENDBRANCH   1  19
TORSDOF 4
ENDMDL
MODEL 9
REMARK VINA RESULT:      -6.3      3.532      7.433
REMARK  4 active torsions:
REMARK  status: ('A' for Active; 'I' for Inactive)
REMARK    1  A    between atoms: C_5  and  N_6 
REMARK       I    between atoms: N_6  and  C_7 
REMARK       I    between atoms: C_7  and  N_9 
REMARK    2  A    between atoms: N_9  and  C_10 
REMARK    3  A    between atoms: N_13  and  C_14 
REMARK    4  A    between atoms: C_14  and  C_15 
ROOT
HETATM    1  N   UNL     1     -42.546 -52.611  12.633  1.00  0.00    -0.295 N 
HETATM    2  C   UNL     1     -41.584 -51.797  12.081  1.00  0.00     0.322 C 
HETATM    3  O   UNL     1     -40.538 -52.286  11.670  1.00  0.00    -0.247 OA
HETATM    4  N   UNL     1     -41.878 -50.473  12.062  1.00  0.00    -0.338 N 
HETATM    5  H   UNL     1     -42.268 -53.583  12.669  1.00  0.00     0.172 HD
HETATM    6  H   UNL     1     -42.842 -50.281  12.319  1.00  0.00     0.164 HD
ENDROOT
BRANCH   4   7
HETATM    7  C   UNL     1     -41.159 -49.379  11.433  1.00  0.00     0.089 C 
HETATM    8  C   UNL     1     -40.126 -48.761  12.378  1.00  0.00     0.055 C 
HETATM    9  C   UNL     1     -40.607 -47.467  13.020  1.00  0.00     0.274 C 
HETATM   10  N   UNL     1     -41.060 -46.478  12.032  1.00  0.00     0.089 N 
HETATM   11  C   UNL     1     -42.250 -47.028  11.357  1.00  0.00     0.274 C 
HETATM   12  C   UNL     1     -42.030 -48.377  10.663  1.00  0.00     0.055 C 
BRANCH  10  13
HETATM   13  C   UNL     1     -40.032 -46.039  11.071  1.00  0.00     0.279 C 
BRANCH  13  14
HETATM   14  C   UNL     1     -39.572 -44.578  11.208  1.00  0.00     0.040 C 
HETATM   15  C   UNL     1     -38.978 -44.200  12.558  1.00  0.00     0.035 C 
HETATM   16  C   UNL     1     -39.781 -42.996  13.011  1.00  0.00     0.168 C 
HETATM   17  O   UNL     1     -40.415 -42.473  11.841  1.00  0.00    -0.391 OA
HETATM   18  C   UNL     1     -40.732 -43.607  11.030  1.00  0.00     0.173 C 
ENDBRANCH  13  14
ENDBRANCH  10  13
ENDBRANCH   4   7
BRANCH   1  19
HETATM   19  C   UNL     1     -43.802 -52.255  13.147  1.00  0.00     0.108 A 
HETATM   20  C   UNL     1     -43.877 -51.764  14.447  1.00  0.00     0.052 A 
HETATM   21  C   UNL     1     -45.121 -51.369  14.949  1.00  0.00     0.047 A 
HETATM   22  C   UNL     1     -46.244 -51.484  14.145  1.00  0.00     0.131 A 
HETATM   23  F   UNL     1     -47.446 -51.098  14.586  1.00  0.00    -0.205 F 
HETATM   24  C   UNL     1     -46.093 -51.999  12.874  1.00  0.00     0.132 A 
HETATM   25  N   UNL     1     -44.901 -52.390  12.365  1.00  0.00    -0.349 N 
ATOM     26  HN  UNL     1     -44.833 -52.774  11.423  1.00  0.00     0.167 HD
ENDBRANCH   1  19
TORSDOF 4
ENDMDL
