MODEL 1
REMARK VINA RESULT:      -5.8      0.000      0.000
REMARK  3 active torsions:
REMARK  status: ('A' for Active; 'I' for Inactive)
REMARK    1  A    between atoms: C_5  and  N_6 
REMARK    2  A    between atoms: N_6  and  C_7 
REMARK    3  A    between atoms: C_7  and  C_8 
ROOT
HETATM    1  C   UNL     1     -44.520 -47.283   9.458  1.00  0.00     0.183 C 
HETATM    2  N   UNL     1     -43.154 -47.244   9.947  1.00  0.00    -0.245 N 
HETATM    3  N   UNL     1     -42.572 -48.455  10.189  1.00  0.00    -0.275 N 
ATOM      4  HN  UNL     1     -43.082 -49.320  10.008  1.00  0.00     0.189 HD
HETATM    5  C   UNL     1     -41.359 -48.488  10.655  1.00  0.00     0.186 C 
HETATM    6  C   UNL     1     -40.603 -47.191  10.945  1.00  0.00     0.296 C 
HETATM    7  O   UNL     1     -39.514 -47.274  11.504  1.00  0.00    -0.264 OA
HETATM    8  N   UNL     1     -41.228 -46.031  10.549  1.00  0.00    -0.266 N 
HETATM    9  C   UNL     1     -40.548 -44.765  10.718  1.00  0.00     0.165 C 
HETATM   10  C   UNL     1     -42.526 -46.010  10.079  1.00  0.00     0.345 C 
HETATM   11  O   UNL     1     -43.103 -44.954   9.807  1.00  0.00    -0.245 OA
ENDROOT
BRANCH   5  12
HETATM   12  N   UNL     1     -40.698 -49.670  10.906  1.00  0.00    -0.368 N 
HETATM   13  H   UNL     1     -39.968 -49.943  10.246  1.00  0.00     0.161 HD
BRANCH  12  14
HETATM   14  C   UNL     1     -40.715 -50.386  12.165  1.00  0.00     0.153 C 
BRANCH  14  15
HETATM   15  C   UNL     1     -41.081 -51.859  11.968  1.00  0.00     0.139 C 
HETATM   16  C   UNL     1     -42.458 -52.263  12.475  1.00  0.00     0.035 C 
HETATM   17  C   UNL     1     -42.271 -53.671  13.003  1.00  0.00     0.029 C 
HETATM   18  C   UNL     1     -40.800 -53.974  12.806  1.00  0.00     0.168 C 
HETATM   19  O   UNL     1     -40.148 -52.710  12.658  1.00  0.00    -0.384 OA
ENDBRANCH  14  15
ENDBRANCH  12  14
ENDBRANCH   5  12
TORSDOF 3
ENDMDL
MODEL 2
REMARK VINA RESULT:      -5.8      1.592      2.111
REMARK  3 active torsions:
REMARK  status: ('A' for Active; 'I' for Inactive)
REMARK    1  A    between atoms: C_5  and  N_6 
REMARK    2  A    between atoms: N_6  and  C_7 
REMARK    3  A    between atoms: C_7  and  C_8 
ROOT
HETATM    1  C   UNL     1     -44.613 -47.140   8.858  1.00  0.00     0.183 C 
HETATM    2  N   UNL     1     -43.333 -47.036   9.535  1.00  0.00    -0.245 N 
HETATM    3  N   UNL     1     -42.673 -48.212   9.747  1.00  0.00    -0.275 N 
ATOM      4  HN  UNL     1     -43.067 -49.094   9.420  1.00  0.00     0.189 HD
HETATM    5  C   UNL     1     -41.534 -48.189  10.373  1.00  0.00     0.186 C 
HETATM    6  C   UNL     1     -40.953 -46.870  10.882  1.00  0.00     0.296 C 
HETATM    7  O   UNL     1     -39.944 -46.916  11.578  1.00  0.00    -0.264 OA
HETATM    8  N   UNL     1     -41.630 -45.732  10.507  1.00  0.00    -0.266 N 
HETATM    9  C   UNL     1     -41.106 -44.437  10.882  1.00  0.00     0.165 C 
HETATM   10  C   UNL     1     -42.852 -45.774   9.863  1.00  0.00     0.345 C 
HETATM   11  O   UNL     1     -43.488 -44.747   9.609  1.00  0.00    -0.245 OA
ENDROOT
BRANCH   5  12
HETATM   12  N   UNL     1     -40.799 -49.330  10.608  1.00  0.00    -0.368 N 
HETATM   13  H   UNL     1     -39.930 -49.439  10.084  1.00  0.00     0.161 HD
BRANCH  12  14
HETATM   14  C   UNL     1     -40.972 -50.217  11.741  1.00  0.00     0.153 C 
BRANCH  14  15
HETATM   15  C   UNL     1     -39.719 -50.254  12.620  1.00  0.00     0.139 C 
HETATM   16  C   UNL     1     -38.401 -50.055  11.886  1.00  0.00     0.035 C 
HETATM   17  C   UNL     1     -37.420 -50.952  12.615  1.00  0.00     0.029 C 
HETATM   18  C   UNL     1     -38.237 -51.638  13.690  1.00  0.00     0.168 C 
HETATM   19  O   UNL     1     -39.604 -51.524  13.286  1.00  0.00    -0.384 OA
ENDBRANCH  14  15
ENDBRANCH  12  14
ENDBRANCH   5  12
TORSDOF 3
ENDMDL
MODEL 3
REMARK VINA RESULT:      -5.7      3.490      6.496
REMARK  3 active torsions:
REMARK  status: ('A' for Active; 'I' for Inactive)
REMARK    1  A    between atoms: C_5  and  N_6 
REMARK    2  A    between atoms: N_6  and  C_7 
REMARK    3  A    between atoms: C_7  and  C_8 
ROOT
HETATM    1  C   UNL     1     -44.713 -53.811  12.668  1.00  0.00     0.183 C 
HETATM    2  N   UNL     1     -43.298 -53.544  12.850  1.00  0.00    -0.245 N 
HETATM    3  N   UNL     1     -42.752 -52.617  12.009  1.00  0.00    -0.275 N 
ATOM      4  HN  UNL     1     -43.331 -52.140  11.318  1.00  0.00     0.189 HD
HETATM    5  C   UNL     1     -41.483 -52.353  12.103  1.00  0.00     0.186 C 
HETATM    6  C   UNL     1     -40.611 -53.083  13.125  1.00  0.00     0.296 C 
HETATM    7  O   UNL     1     -39.400 -52.894  13.087  1.00  0.00    -0.264 OA
HETATM    8  N   UNL     1     -41.279 -53.901  14.007  1.00  0.00    -0.266 N 
HETATM    9  C   UNL     1     -40.538 -54.571  15.054  1.00  0.00     0.165 C 
HETATM   10  C   UNL     1     -42.623 -54.191  13.879  1.00  0.00     0.345 C 
HETATM   11  O   UNL     1     -43.189 -54.993  14.627  1.00  0.00    -0.245 OA
ENDROOT
BRANCH   5  12
HETATM   12  N   UNL     1     -40.864 -51.418  11.304  1.00  0.00    -0.368 N 
HETATM   13  H   UNL     1     -40.453 -51.751  10.431  1.00  0.00     0.161 HD
BRANCH  12  14
HETATM   14  C   UNL     1     -41.018 -49.982  11.425  1.00  0.00     0.153 C 
BRANCH  14  15
HETATM   15  C   UNL     1     -39.791 -49.339  12.076  1.00  0.00     0.139 C 
HETATM   16  C   UNL     1     -38.445 -49.839  11.568  1.00  0.00     0.035 C 
HETATM   17  C   UNL     1     -37.550 -49.828  12.790  1.00  0.00     0.029 C 
HETATM   18  C   UNL     1     -38.438 -49.367  13.927  1.00  0.00     0.168 C 
HETATM   19  O   UNL     1     -39.784 -49.581  13.494  1.00  0.00    -0.384 OA
ENDBRANCH  14  15
ENDBRANCH  12  14
ENDBRANCH   5  12
TORSDOF 3
ENDMDL
MODEL 4
REMARK VINA RESULT:      -5.5      4.305      7.445
REMARK  3 active torsions:
REMARK  status: ('A' for Active; 'I' for Inactive)
REMARK    1  A    between atoms: C_5  and  N_6 
REMARK    2  A    between atoms: N_6  and  C_7 
REMARK    3  A    between atoms: C_7  and  C_8 
ROOT
HETATM    1  C   UNL     1     -40.554 -54.958  15.921  1.00  0.00     0.183 C 
HETATM    2  N   UNL     1     -41.458 -54.530  14.869  1.00  0.00    -0.245 N 
HETATM    3  N   UNL     1     -40.896 -53.804  13.858  1.00  0.00    -0.275 N 
ATOM      4  HN  UNL     1     -39.895 -53.608  13.855  1.00  0.00     0.189 HD
HETATM    5  C   UNL     1     -41.658 -53.367  12.900  1.00  0.00     0.186 C 
HETATM    6  C   UNL     1     -43.162 -53.644  12.915  1.00  0.00     0.296 C 
HETATM    7  O   UNL     1     -43.854 -53.102  12.060  1.00  0.00    -0.264 OA
HETATM    8  N   UNL     1     -43.606 -54.489  13.906  1.00  0.00    -0.266 N 
HETATM    9  C   UNL     1     -45.003 -54.862  13.947  1.00  0.00     0.165 C 
HETATM   10  C   UNL     1     -42.790 -54.925  14.931  1.00  0.00     0.345 C 
HETATM   11  O   UNL     1     -43.223 -55.612  15.860  1.00  0.00    -0.245 OA
ENDROOT
BRANCH   5  12
HETATM   12  N   UNL     1     -41.163 -52.646  11.836  1.00  0.00    -0.368 N 
HETATM   13  H   UNL     1     -41.052 -53.142  10.950  1.00  0.00     0.161 HD
BRANCH  12  14
HETATM   14  C   UNL     1     -41.093 -51.201  11.766  1.00  0.00     0.153 C 
BRANCH  14  15
HETATM   15  C   UNL     1     -39.810 -50.671  12.413  1.00  0.00     0.139 C 
HETATM   16  C   UNL     1     -39.116 -49.545  11.659  1.00  0.00     0.035 C 
HETATM   17  C   UNL     1     -37.638 -49.798  11.875  1.00  0.00     0.029 C 
HETATM   18  C   UNL     1     -37.570 -51.066  12.699  1.00  0.00     0.168 C 
HETATM   19  O   UNL     1     -38.832 -51.719  12.532  1.00  0.00    -0.384 OA
ENDBRANCH  14  15
ENDBRANCH  12  14
ENDBRANCH   5  12
TORSDOF 3
ENDMDL
MODEL 5
REMARK VINA RESULT:      -5.4      2.277      6.094
REMARK  3 active torsions:
REMARK  status: ('A' for Active; 'I' for Inactive)
REMARK    1  A    between atoms: C_5  and  N_6 
REMARK    2  A    between atoms: N_6  and  C_7 
REMARK    3  A    between atoms: C_7  and  C_8 
ROOT
HETATM    1  C   UNL     1     -43.736 -53.068  12.490  1.00  0.00     0.183 C 
HETATM    2  N   UNL     1     -42.365 -52.596  12.549  1.00  0.00    -0.245 N 
HETATM    3  N   UNL     1     -42.069 -51.523  11.757  1.00  0.00    -0.275 N 
ATOM      4  HN  UNL     1     -42.791 -51.085  11.186  1.00  0.00     0.189 HD
HETATM    5  C   UNL     1     -40.851 -51.069  11.744  1.00  0.00     0.186 C 
HETATM    6  C   UNL     1     -39.763 -51.737  12.585  1.00  0.00     0.296 C 
HETATM    7  O   UNL     1     -38.607 -51.354  12.439  1.00  0.00    -0.264 OA
HETATM    8  N   UNL     1     -40.190 -52.727  13.441  1.00  0.00    -0.266 N 
HETATM    9  C   UNL     1     -39.237 -53.359  14.326  1.00  0.00     0.165 C 
HETATM   10  C   UNL     1     -41.482 -53.215  13.426  1.00  0.00     0.345 C 
HETATM   11  O   UNL     1     -41.828 -54.160  14.140  1.00  0.00    -0.245 OA
ENDROOT
BRANCH   5  12
HETATM   12  N   UNL     1     -40.479 -49.979  10.988  1.00  0.00    -0.368 N 
HETATM   13  H   UNL     1     -40.518 -50.083   9.973  1.00  0.00     0.161 HD
BRANCH  12  14
HETATM   14  C   UNL     1     -40.350 -48.623  11.483  1.00  0.00     0.153 C 
BRANCH  14  15
HETATM   15  C   UNL     1     -41.493 -47.734  10.985  1.00  0.00     0.139 C 
HETATM   16  C   UNL     1     -42.745 -47.735  11.850  1.00  0.00     0.035 C 
HETATM   17  C   UNL     1     -43.889 -47.619  10.863  1.00  0.00     0.029 C 
HETATM   18  C   UNL     1     -43.234 -47.601   9.498  1.00  0.00     0.168 C 
HETATM   19  O   UNL     1     -41.925 -48.150   9.676  1.00  0.00    -0.384 OA
ENDBRANCH  14  15
ENDBRANCH  12  14
ENDBRANCH   5  12
TORSDOF 3
ENDMDL
MODEL 6
REMARK VINA RESULT:      -5.4      3.984      5.646
REMARK  3 active torsions:
REMARK  status: ('A' for Active; 'I' for Inactive)
REMARK    1  A    between atoms: C_5  and  N_6 
REMARK    2  A    between atoms: N_6  and  C_7 
REMARK    3  A    between atoms: C_7  and  C_8 
ROOT
HETATM    1  C   UNL     1     -39.568 -45.371  15.168  1.00  0.00     0.183 C 
HETATM    2  N   UNL     1     -39.832 -44.925  13.812  1.00  0.00    -0.245 N 
HETATM    3  N   UNL     1     -39.952 -45.909  12.873  1.00  0.00    -0.275 N 
ATOM      4  HN  UNL     1     -39.879 -46.891  13.139  1.00  0.00     0.189 HD
HETATM    5  C   UNL     1     -40.162 -45.573  11.635  1.00  0.00     0.186 C 
HETATM    6  C   UNL     1     -40.251 -44.101  11.233  1.00  0.00     0.296 C 
HETATM    7  O   UNL     1     -40.319 -43.835  10.037  1.00  0.00    -0.264 OA
HETATM    8  N   UNL     1     -40.243 -43.195  12.269  1.00  0.00    -0.266 N 
HETATM    9  C   UNL     1     -40.400 -41.786  11.981  1.00  0.00     0.165 C 
HETATM   10  C   UNL     1     -39.996 -43.565  13.576  1.00  0.00     0.345 C 
HETATM   11  O   UNL     1     -39.908 -42.731  14.482  1.00  0.00    -0.245 OA
ENDROOT
BRANCH   5  12
HETATM   12  N   UNL     1     -40.314 -46.507  10.634  1.00  0.00    -0.368 N 
HETATM   13  H   UNL     1     -39.494 -46.713  10.062  1.00  0.00     0.161 HD
BRANCH  12  14
HETATM   14  C   UNL     1     -41.414 -47.444  10.525  1.00  0.00     0.153 C 
BRANCH  14  15
HETATM   15  C   UNL     1     -42.752 -46.720  10.355  1.00  0.00     0.139 C 
HETATM   16  C   UNL     1     -43.973 -47.622  10.248  1.00  0.00     0.035 C 
HETATM   17  C   UNL     1     -44.886 -46.913   9.269  1.00  0.00     0.029 C 
HETATM   18  C   UNL     1     -44.123 -45.676   8.843  1.00  0.00     0.168 C 
HETATM   19  O   UNL     1     -42.750 -45.926   9.155  1.00  0.00    -0.384 OA
ENDBRANCH  14  15
ENDBRANCH  12  14
ENDBRANCH   5  12
TORSDOF 3
ENDMDL
MODEL 7
REMARK VINA RESULT:      -5.3      4.101      6.144
REMARK  3 active torsions:
REMARK  status: ('A' for Active; 'I' for Inactive)
REMARK    1  A    between atoms: C_5  and  N_6 
REMARK    2  A    between atoms: N_6  and  C_7 
REMARK    3  A    between atoms: C_7  and  C_8 
ROOT
HETATM    1  C   UNL     1     -39.351 -54.527  13.978  1.00  0.00     0.183 C 
HETATM    2  N   UNL     1     -40.133 -53.383  13.549  1.00  0.00    -0.245 N 
HETATM    3  N   UNL     1     -41.375 -53.661  13.053  1.00  0.00    -0.275 N 
ATOM      4  HN  UNL     1     -41.716 -54.621  13.017  1.00  0.00     0.189 HD
HETATM    5  C   UNL     1     -42.115 -52.681  12.626  1.00  0.00     0.186 C 
HETATM    6  C   UNL     1     -41.596 -51.243  12.659  1.00  0.00     0.296 C 
HETATM    7  O   UNL     1     -42.277 -50.374  12.127  1.00  0.00    -0.264 OA
HETATM    8  N   UNL     1     -40.388 -51.056  13.293  1.00  0.00    -0.266 N 
HETATM    9  C   UNL     1     -39.862 -49.717  13.435  1.00  0.00     0.165 C 
HETATM   10  C   UNL     1     -39.603 -52.109  13.719  1.00  0.00     0.345 C 
HETATM   11  O   UNL     1     -38.484 -51.929  14.208  1.00  0.00    -0.245 OA
ENDROOT
BRANCH   5  12
HETATM   12  N   UNL     1     -43.384 -52.879  12.130  1.00  0.00    -0.368 N 
HETATM   13  H   UNL     1     -43.631 -52.381  11.274  1.00  0.00     0.161 HD
BRANCH  12  14
HETATM   14  C   UNL     1     -44.275 -53.953  12.518  1.00  0.00     0.153 C 
BRANCH  14  15
HETATM   15  C   UNL     1     -45.474 -53.428  13.312  1.00  0.00     0.139 C 
HETATM   16  C   UNL     1     -46.133 -52.178  12.747  1.00  0.00     0.035 C 
HETATM   17  C   UNL     1     -46.567 -51.392  13.968  1.00  0.00     0.029 C 
HETATM   18  C   UNL     1     -46.098 -52.212  15.153  1.00  0.00     0.168 C 
HETATM   19  O   UNL     1     -45.084 -53.088  14.655  1.00  0.00    -0.384 OA
ENDBRANCH  14  15
ENDBRANCH  12  14
ENDBRANCH   5  12
TORSDOF 3
ENDMDL
MODEL 8
REMARK VINA RESULT:      -5.2      2.561      4.652
REMARK  3 active torsions:
REMARK  status: ('A' for Active; 'I' for Inactive)
REMARK    1  A    between atoms: C_5  and  N_6 
REMARK    2  A    between atoms: N_6  and  C_7 
REMARK    3  A    between atoms: C_7  and  C_8 
ROOT
HETATM    1  C   UNL     1     -41.904 -48.053  11.618  1.00  0.00     0.183 C 
HETATM    2  N   UNL     1     -41.354 -49.367  11.893  1.00  0.00    -0.245 N 
HETATM    3  N   UNL     1     -42.238 -50.407  11.847  1.00  0.00    -0.275 N 
ATOM      4  HN  UNL     1     -43.217 -50.244  11.609  1.00  0.00     0.189 HD
HETATM    5  C   UNL     1     -41.813 -51.606  12.112  1.00  0.00     0.186 C 
HETATM    6  C   UNL     1     -40.351 -51.847  12.489  1.00  0.00     0.296 C 
HETATM    7  O   UNL     1     -40.030 -52.973  12.856  1.00  0.00    -0.264 OA
HETATM    8  N   UNL     1     -39.517 -50.758  12.383  1.00  0.00    -0.266 N 
HETATM    9  C   UNL     1     -38.104 -50.917  12.648  1.00  0.00     0.165 C 
HETATM   10  C   UNL     1     -39.988 -49.485  12.124  1.00  0.00     0.345 C 
HETATM   11  O   UNL     1     -39.239 -48.504  12.117  1.00  0.00    -0.245 OA
ENDROOT
BRANCH   5  12
HETATM   12  N   UNL     1     -42.639 -52.707  12.067  1.00  0.00    -0.368 N 
HETATM   13  H   UNL     1     -42.742 -53.175  11.166  1.00  0.00     0.161 HD
BRANCH  12  14
HETATM   14  C   UNL     1     -43.112 -53.445  13.221  1.00  0.00     0.153 C 
BRANCH  14  15
HETATM   15  C   UNL     1     -44.549 -53.059  13.583  1.00  0.00     0.139 C 
HETATM   16  C   UNL     1     -45.464 -52.769  12.402  1.00  0.00     0.035 C 
HETATM   17  C   UNL     1     -46.366 -51.651  12.885  1.00  0.00     0.029 C 
HETATM   18  C   UNL     1     -45.892 -51.340  14.289  1.00  0.00     0.168 C 
HETATM   19  O   UNL     1     -44.566 -51.866  14.389  1.00  0.00    -0.384 OA
ENDBRANCH  14  15
ENDBRANCH  12  14
ENDBRANCH   5  12
TORSDOF 3
ENDMDL
MODEL 9
REMARK VINA RESULT:      -5.0      6.044      7.933
REMARK  3 active torsions:
REMARK  status: ('A' for Active; 'I' for Inactive)
REMARK    1  A    between atoms: C_5  and  N_6 
REMARK    2  A    between atoms: N_6  and  C_7 
REMARK    3  A    between atoms: C_7  and  C_8 
ROOT
HETATM    1  C   UNL     1     -42.762 -55.196  17.332  1.00  0.00     0.183 C 
HETATM    2  N   UNL     1     -42.232 -54.796  16.042  1.00  0.00    -0.245 N 
HETATM    3  N   UNL     1     -43.144 -54.678  15.033  1.00  0.00    -0.275 N 
ATOM      4  HN  UNL     1     -44.135 -54.845  15.207  1.00  0.00     0.189 HD
HETATM    5  C   UNL     1     -42.728 -54.349  13.846  1.00  0.00     0.186 C 
HETATM    6  C   UNL     1     -41.240 -54.118  13.579  1.00  0.00     0.296 C 
HETATM    7  O   UNL     1     -40.886 -53.938  12.419  1.00  0.00    -0.264 OA
HETATM    8  N   UNL     1     -40.423 -54.137  14.686  1.00  0.00    -0.266 N 
HETATM    9  C   UNL     1     -39.013 -53.853  14.532  1.00  0.00     0.165 C 
HETATM   10  C   UNL     1     -40.875 -54.512  15.936  1.00  0.00     0.345 C 
HETATM   11  O   UNL     1     -40.112 -54.606  16.902  1.00  0.00    -0.245 OA
ENDROOT
BRANCH   5  12
HETATM   12  N   UNL     1     -43.588 -54.191  12.782  1.00  0.00    -0.368 N 
HETATM   13  H   UNL     1     -44.026 -55.034  12.409  1.00  0.00     0.161 HD
BRANCH  12  14
HETATM   14  C   UNL     1     -44.171 -52.934  12.357  1.00  0.00     0.153 C 
BRANCH  14  15
HETATM   15  C   UNL     1     -45.588 -52.759  12.909  1.00  0.00     0.139 C 
HETATM   16  C   UNL     1     -45.930 -51.358  13.397  1.00  0.00     0.035 C 
HETATM   17  C   UNL     1     -46.835 -51.582  14.592  1.00  0.00     0.029 C 
HETATM   18  C   UNL     1     -46.924 -53.087  14.743  1.00  0.00     0.168 C 
HETATM   19  O   UNL     1     -45.804 -53.626  14.037  1.00  0.00    -0.384 OA
ENDBRANCH  14  15
ENDBRANCH  12  14
ENDBRANCH   5  12
TORSDOF 3
ENDMDL
