MODEL 1
REMARK VINA RESULT:      -6.2      0.000      0.000
REMARK  5 active torsions:
REMARK  status: ('A' for Active; 'I' for Inactive)
REMARK    1  A    between atoms: N_2  and  C_4 
REMARK    2  A    between atoms: C_7  and  N_8 
REMARK       I    between atoms: N_8  and  C_9 
REMARK       I    between atoms: C_9  and  N_11 
REMARK    3  A    between atoms: N_11  and  C_12 
REMARK    4  A    between atoms: C_12  and  C_13 
REMARK    5  A    between atoms: C_13  and  N_16 
ROOT
HETATM    1  N   UNL     1     -42.222 -50.681  12.018  1.00  0.00    -0.308 N 
HETATM    2  C   UNL     1     -41.339 -51.733  12.093  1.00  0.00     0.320 C 
HETATM    3  O   UNL     1     -40.117 -51.671  12.075  1.00  0.00    -0.247 OA
HETATM    4  N   UNL     1     -41.931 -52.971  12.213  1.00  0.00    -0.341 N 
HETATM    5  H   UNL     1     -43.203 -50.898  12.049  1.00  0.00     0.170 HD
HETATM    6  H   UNL     1     -41.270 -53.721  12.370  1.00  0.00     0.164 HD
ENDROOT
BRANCH   1   7
HETATM    7  C   UNL     1     -41.939 -49.313  11.879  1.00  0.00     0.051 A 
HETATM    8  C   UNL     1     -42.350 -48.341  12.766  1.00  0.00     0.035 A 
HETATM    9  C   UNL     1     -41.964 -47.016  12.554  1.00  0.00     0.050 A 
HETATM   10  C   UNL     1     -41.165 -46.666  11.463  1.00  0.00     0.102 A 
HETATM   11  N   UNL     1     -40.798 -47.609  10.567  1.00  0.00    -0.350 N 
HETATM   12  C   UNL     1     -41.182 -48.889  10.791  1.00  0.00     0.119 A 
ATOM     13  HN  UNL     1     -40.248 -47.363   9.744  1.00  0.00     0.166 HD
BRANCH  10  14
HETATM   14  N   UNL     1     -40.739 -45.343  11.280  1.00  0.00    -0.376 N 
HETATM   15  C   UNL     1     -41.798 -44.345  11.387  1.00  0.00     0.150 C 
HETATM   16  C   UNL     1     -39.733 -45.123  10.247  1.00  0.00     0.150 C 
ENDBRANCH  10  14
ENDBRANCH   1   7
BRANCH   4  17
HETATM   17  C   UNL     1     -43.345 -53.164  12.399  1.00  0.00     0.154 C 
BRANCH  17  18
HETATM   18  C   UNL     1     -43.904 -53.667  13.759  1.00  0.00     0.036 C 
HETATM   19  C   UNL     1     -45.074 -54.630  13.451  1.00  0.00     0.039 C 
HETATM   20  C   UNL     1     -42.834 -54.460  14.526  1.00  0.00     0.039 C 
BRANCH  18  21
HETATM   21  N   UNL     1     -44.346 -52.422  14.447  1.00  0.00    -0.399 N 
HETATM   22  C   UNL     1     -44.867 -52.532  15.827  1.00  0.00     0.144 C 
HETATM   23  C   UNL     1     -46.392 -52.643  15.915  1.00  0.00     0.187 C 
HETATM   24  O   UNL     1     -47.009 -51.523  15.282  1.00  0.00    -0.388 OA
HETATM   25  C   UNL     1     -46.626 -51.458  13.902  1.00  0.00     0.187 C 
HETATM   26  C   UNL     1     -45.100 -51.393  13.720  1.00  0.00     0.144 C 
ENDBRANCH  18  21
ENDBRANCH  17  18
ENDBRANCH   4  17
TORSDOF 5
ENDMDL
MODEL 2
REMARK VINA RESULT:      -6.2      1.168      1.836
REMARK  5 active torsions:
REMARK  status: ('A' for Active; 'I' for Inactive)
REMARK    1  A    between atoms: N_2  and  C_4 
REMARK    2  A    between atoms: C_7  and  N_8 
REMARK       I    between atoms: N_8  and  C_9 
REMARK       I    between atoms: C_9  and  N_11 
REMARK    3  A    between atoms: N_11  and  C_12 
REMARK    4  A    between atoms: C_12  and  C_13 
REMARK    5  A    between atoms: C_13  and  N_16 
ROOT
HETATM    1  N   UNL     1     -41.703 -50.324  11.798  1.00  0.00    -0.308 N 
HETATM    2  C   UNL     1     -40.822 -51.377  11.882  1.00  0.00     0.320 C 
HETATM    3  O   UNL     1     -39.600 -51.318  11.869  1.00  0.00    -0.247 OA
HETATM    4  N   UNL     1     -41.416 -52.614  12.006  1.00  0.00    -0.341 N 
HETATM    5  H   UNL     1     -42.685 -50.540  11.825  1.00  0.00     0.170 HD
HETATM    6  H   UNL     1     -40.757 -53.364  12.170  1.00  0.00     0.164 HD
ENDROOT
BRANCH   1   7
HETATM    7  C   UNL     1     -41.417 -48.958  11.652  1.00  0.00     0.051 A 
HETATM    8  C   UNL     1     -40.918 -48.158  12.659  1.00  0.00     0.035 A 
HETATM    9  C   UNL     1     -40.621 -46.822  12.385  1.00  0.00     0.050 A 
HETATM   10  C   UNL     1     -40.815 -46.290  11.107  1.00  0.00     0.102 A 
HETATM   11  N   UNL     1     -41.346 -47.059  10.131  1.00  0.00    -0.350 N 
HETATM   12  C   UNL     1     -41.627 -48.353  10.417  1.00  0.00     0.119 A 
ATOM     13  HN  UNL     1     -41.530 -46.674   9.205  1.00  0.00     0.166 HD
BRANCH  10  14
HETATM   14  N   UNL     1     -40.470 -44.961  10.824  1.00  0.00    -0.376 N 
HETATM   15  C   UNL     1     -39.390 -44.808   9.854  1.00  0.00     0.150 C 
HETATM   16  C   UNL     1     -40.475 -44.036  11.951  1.00  0.00     0.150 C 
ENDBRANCH  10  14
ENDBRANCH   1   7
BRANCH   4  17
HETATM   17  C   UNL     1     -42.832 -52.804  12.187  1.00  0.00     0.154 C 
BRANCH  17  18
HETATM   18  C   UNL     1     -43.395 -53.320  13.539  1.00  0.00     0.036 C 
HETATM   19  C   UNL     1     -42.484 -54.479  14.008  1.00  0.00     0.039 C 
HETATM   20  C   UNL     1     -43.337 -52.217  14.608  1.00  0.00     0.039 C 
BRANCH  18  21
HETATM   21  N   UNL     1     -44.775 -53.769  13.206  1.00  0.00    -0.399 N 
HETATM   22  C   UNL     1     -45.778 -52.744  12.841  1.00  0.00     0.144 C 
HETATM   23  C   UNL     1     -46.646 -52.272  14.010  1.00  0.00     0.187 C 
HETATM   24  O   UNL     1     -47.322 -53.378  14.605  1.00  0.00    -0.388 OA
HETATM   25  C   UNL     1     -46.375 -54.339  15.089  1.00  0.00     0.187 C 
HETATM   26  C   UNL     1     -45.425 -54.832  13.983  1.00  0.00     0.144 C 
ENDBRANCH  18  21
ENDBRANCH  17  18
ENDBRANCH   4  17
TORSDOF 5
ENDMDL
MODEL 3
REMARK VINA RESULT:      -6.0      1.992      2.845
REMARK  5 active torsions:
REMARK  status: ('A' for Active; 'I' for Inactive)
REMARK    1  A    between atoms: N_2  and  C_4 
REMARK    2  A    between atoms: C_7  and  N_8 
REMARK       I    between atoms: N_8  and  C_9 
REMARK       I    between atoms: C_9  and  N_11 
REMARK    3  A    between atoms: N_11  and  C_12 
REMARK    4  A    between atoms: C_12  and  C_13 
REMARK    5  A    between atoms: C_13  and  N_16 
ROOT
HETATM    1  N   UNL     1     -43.259 -49.342  12.561  1.00  0.00    -0.308 N 
HETATM    2  C   UNL     1     -43.338 -49.737  13.876  1.00  0.00     0.320 C 
HETATM    3  O   UNL     1     -42.948 -49.118  14.856  1.00  0.00    -0.247 OA
HETATM    4  N   UNL     1     -43.938 -50.962  14.072  1.00  0.00    -0.341 N 
HETATM    5  H   UNL     1     -43.630 -49.967  11.867  1.00  0.00     0.170 HD
HETATM    6  H   UNL     1     -44.081 -51.190  15.047  1.00  0.00     0.164 HD
ENDROOT
BRANCH   1   7
HETATM    7  C   UNL     1     -42.698 -48.167  12.037  1.00  0.00     0.051 A 
HETATM    8  C   UNL     1     -43.006 -46.897  12.476  1.00  0.00     0.035 A 
HETATM    9  C   UNL     1     -42.347 -45.802  11.916  1.00  0.00     0.050 A 
HETATM   10  C   UNL     1     -41.377 -45.977  10.925  1.00  0.00     0.102 A 
HETATM   11  N   UNL     1     -41.105 -47.216  10.460  1.00  0.00    -0.350 N 
HETATM   12  C   UNL     1     -41.756 -48.266  11.017  1.00  0.00     0.119 A 
ATOM     13  HN  UNL     1     -40.429 -47.356   9.710  1.00  0.00     0.166 HD
BRANCH  10  14
HETATM   14  N   UNL     1     -40.682 -44.878  10.399  1.00  0.00    -0.376 N 
HETATM   15  C   UNL     1     -39.336 -45.183   9.925  1.00  0.00     0.150 C 
HETATM   16  C   UNL     1     -40.861 -43.607  11.091  1.00  0.00     0.150 C 
ENDBRANCH  10  14
ENDBRANCH   1   7
BRANCH   4  17
HETATM   17  C   UNL     1     -44.573 -51.716  13.022  1.00  0.00     0.154 C 
BRANCH  17  18
HETATM   18  C   UNL     1     -46.042 -52.199  13.171  1.00  0.00     0.036 C 
HETATM   19  C   UNL     1     -46.697 -51.349  14.284  1.00  0.00     0.039 C 
HETATM   20  C   UNL     1     -46.828 -51.958  11.873  1.00  0.00     0.039 C 
BRANCH  18  21
HETATM   21  N   UNL     1     -45.911 -53.635  13.543  1.00  0.00    -0.399 N 
HETATM   22  C   UNL     1     -46.372 -54.057  14.884  1.00  0.00     0.144 C 
HETATM   23  C   UNL     1     -45.268 -54.097  15.943  1.00  0.00     0.187 C 
HETATM   24  O   UNL     1     -44.215 -54.967  15.529  1.00  0.00    -0.388 OA
HETATM   25  C   UNL     1     -43.654 -54.514  14.290  1.00  0.00     0.187 C 
HETATM   26  C   UNL     1     -44.711 -54.397  13.178  1.00  0.00     0.144 C 
ENDBRANCH  18  21
ENDBRANCH  17  18
ENDBRANCH   4  17
TORSDOF 5
ENDMDL
MODEL 4
REMARK VINA RESULT:      -5.8      2.168      7.807
REMARK  5 active torsions:
REMARK  status: ('A' for Active; 'I' for Inactive)
REMARK    1  A    between atoms: N_2  and  C_4 
REMARK    2  A    between atoms: C_7  and  N_8 
REMARK       I    between atoms: N_8  and  C_9 
REMARK       I    between atoms: C_9  and  N_11 
REMARK    3  A    between atoms: N_11  and  C_12 
REMARK    4  A    between atoms: C_12  and  C_13 
REMARK    5  A    between atoms: C_13  and  N_16 
ROOT
HETATM    1  N   UNL     1     -42.239 -50.825  12.132  1.00  0.00    -0.308 N 
HETATM    2  C   UNL     1     -40.958 -51.008  11.664  1.00  0.00     0.320 C 
HETATM    3  O   UNL     1     -40.274 -52.018  11.764  1.00  0.00    -0.247 OA
HETATM    4  N   UNL     1     -40.426 -49.919  11.008  1.00  0.00    -0.341 N 
HETATM    5  H   UNL     1     -42.668 -49.932  11.967  1.00  0.00     0.170 HD
HETATM    6  H   UNL     1     -39.527 -50.104  10.582  1.00  0.00     0.164 HD
ENDROOT
BRANCH   1   7
HETATM    7  C   UNL     1     -43.042 -51.728  12.846  1.00  0.00     0.051 A 
HETATM    8  C   UNL     1     -43.389 -52.983  12.392  1.00  0.00     0.035 A 
HETATM    9  C   UNL     1     -44.153 -53.817  13.211  1.00  0.00     0.050 A 
HETATM   10  C   UNL     1     -44.560 -53.401  14.481  1.00  0.00     0.102 A 
HETATM   11  N   UNL     1     -44.261 -52.155  14.909  1.00  0.00    -0.350 N 
HETATM   12  C   UNL     1     -43.519 -51.360  14.100  1.00  0.00     0.119 A 
ATOM     13  HN  UNL     1     -44.585 -51.821  15.817  1.00  0.00     0.166 HD
BRANCH  10  14
HETATM   14  N   UNL     1     -45.285 -54.259  15.320  1.00  0.00    -0.376 N 
HETATM   15  C   UNL     1     -46.613 -54.611  14.827  1.00  0.00     0.150 C 
HETATM   16  C   UNL     1     -45.159 -54.022  16.753  1.00  0.00     0.150 C 
ENDBRANCH  10  14
ENDBRANCH   1   7
BRANCH   4  17
HETATM   17  C   UNL     1     -41.178 -48.733  10.692  1.00  0.00     0.154 C 
BRANCH  17  18
HETATM   18  C   UNL     1     -40.980 -47.429  11.512  1.00  0.00     0.036 C 
HETATM   19  C   UNL     1     -42.129 -47.354  12.546  1.00  0.00     0.039 C 
HETATM   20  C   UNL     1     -39.654 -47.470  12.288  1.00  0.00     0.039 C 
BRANCH  18  21
HETATM   21  N   UNL     1     -41.052 -46.348  10.491  1.00  0.00    -0.399 N 
HETATM   22  C   UNL     1     -39.923 -45.397  10.395  1.00  0.00     0.144 C 
HETATM   23  C   UNL     1     -40.120 -44.106  11.193  1.00  0.00     0.187 C 
HETATM   24  O   UNL     1     -41.311 -43.441  10.774  1.00  0.00    -0.388 OA
HETATM   25  C   UNL     1     -42.450 -44.288  10.973  1.00  0.00     0.187 C 
HETATM   26  C   UNL     1     -42.312 -45.636  10.243  1.00  0.00     0.144 C 
ENDBRANCH  18  21
ENDBRANCH  17  18
ENDBRANCH   4  17
TORSDOF 5
ENDMDL
MODEL 5
REMARK VINA RESULT:      -5.7      1.668      2.337
REMARK  5 active torsions:
REMARK  status: ('A' for Active; 'I' for Inactive)
REMARK    1  A    between atoms: N_2  and  C_4 
REMARK    2  A    between atoms: C_7  and  N_8 
REMARK       I    between atoms: N_8  and  C_9 
REMARK       I    between atoms: C_9  and  N_11 
REMARK    3  A    between atoms: N_11  and  C_12 
REMARK    4  A    between atoms: C_12  and  C_13 
REMARK    5  A    between atoms: C_13  and  N_16 
ROOT
HETATM    1  N   UNL     1     -41.642 -51.566  12.934  1.00  0.00    -0.308 N 
HETATM    2  C   UNL     1     -40.737 -51.882  13.920  1.00  0.00     0.320 C 
HETATM    3  O   UNL     1     -39.894 -51.144  14.411  1.00  0.00    -0.247 OA
HETATM    4  N   UNL     1     -40.828 -53.175  14.389  1.00  0.00    -0.341 N 
HETATM    5  H   UNL     1     -42.275 -52.289  12.638  1.00  0.00     0.170 HD
HETATM    6  H   UNL     1     -40.227 -53.360  15.182  1.00  0.00     0.164 HD
ENDROOT
BRANCH   1   7
HETATM    7  C   UNL     1     -41.795 -50.350  12.248  1.00  0.00     0.051 A 
HETATM    8  C   UNL     1     -42.753 -49.406  12.549  1.00  0.00     0.035 A 
HETATM    9  C   UNL     1     -42.778 -48.208  11.832  1.00  0.00     0.050 A 
HETATM   10  C   UNL     1     -41.844 -47.953  10.825  1.00  0.00     0.102 A 
HETATM   11  N   UNL     1     -40.933 -48.895  10.498  1.00  0.00    -0.350 N 
HETATM   12  C   UNL     1     -40.924 -50.051  11.205  1.00  0.00     0.119 A 
ATOM     13  HN  UNL     1     -40.269 -48.741   9.738  1.00  0.00     0.166 HD
BRANCH  10  14
HETATM   14  N   UNL     1     -41.842 -46.729  10.141  1.00  0.00    -0.376 N 
HETATM   15  C   UNL     1     -40.975 -45.710  10.723  1.00  0.00     0.150 C 
HETATM   16  C   UNL     1     -43.127 -46.277   9.619  1.00  0.00     0.150 C 
ENDBRANCH  10  14
ENDBRANCH   1   7
BRANCH   4  17
HETATM   17  C   UNL     1     -41.870 -54.091  14.005  1.00  0.00     0.154 C 
BRANCH  17  18
HETATM   18  C   UNL     1     -43.062 -54.379  14.959  1.00  0.00     0.036 C 
HETATM   19  C   UNL     1     -42.688 -55.618  15.806  1.00  0.00     0.039 C 
HETATM   20  C   UNL     1     -43.283 -53.202  15.923  1.00  0.00     0.039 C 
BRANCH  18  21
HETATM   21  N   UNL     1     -44.205 -54.632  14.039  1.00  0.00    -0.399 N 
HETATM   22  C   UNL     1     -44.219 -53.942  12.731  1.00  0.00     0.144 C 
HETATM   23  C   UNL     1     -45.020 -52.637  12.719  1.00  0.00     0.187 C 
HETATM   24  O   UNL     1     -46.368 -52.878  13.121  1.00  0.00    -0.388 OA
HETATM   25  C   UNL     1     -46.401 -53.432  14.442  1.00  0.00     0.187 C 
HETATM   26  C   UNL     1     -45.575 -54.726  14.556  1.00  0.00     0.144 C 
ENDBRANCH  18  21
ENDBRANCH  17  18
ENDBRANCH   4  17
TORSDOF 5
ENDMDL
MODEL 6
REMARK VINA RESULT:      -5.7      4.046      7.974
REMARK  5 active torsions:
REMARK  status: ('A' for Active; 'I' for Inactive)
REMARK    1  A    between atoms: N_2  and  C_4 
REMARK    2  A    between atoms: C_7  and  N_8 
REMARK       I    between atoms: N_8  and  C_9 
REMARK       I    between atoms: C_9  and  N_11 
REMARK    3  A    between atoms: N_11  and  C_12 
REMARK    4  A    between atoms: C_12  and  C_13 
REMARK    5  A    between atoms: C_13  and  N_16 
ROOT
HETATM    1  N   UNL     1     -45.500 -53.141  15.348  1.00  0.00    -0.308 N 
HETATM    2  C   UNL     1     -45.687 -54.310  14.648  1.00  0.00     0.320 C 
HETATM    3  O   UNL     1     -46.655 -55.056  14.706  1.00  0.00    -0.247 OA
HETATM    4  N   UNL     1     -44.659 -54.636  13.790  1.00  0.00    -0.341 N 
HETATM    5  H   UNL     1     -44.646 -52.637  15.185  1.00  0.00     0.170 HD
HETATM    6  H   UNL     1     -44.858 -55.441  13.210  1.00  0.00     0.164 HD
ENDROOT
BRANCH   1   7
HETATM    7  C   UNL     1     -46.347 -52.549  16.298  1.00  0.00     0.051 A 
HETATM    8  C   UNL     1     -47.274 -51.571  16.009  1.00  0.00     0.035 A 
HETATM    9  C   UNL     1     -48.100 -51.091  17.027  1.00  0.00     0.050 A 
HETATM   10  C   UNL     1     -48.003 -51.593  18.327  1.00  0.00     0.102 A 
HETATM   11  N   UNL     1     -47.065 -52.519  18.624  1.00  0.00    -0.350 N 
HETATM   12  C   UNL     1     -46.273 -52.972  17.622  1.00  0.00     0.119 A 
ATOM     13  HN  UNL     1     -46.955 -52.866  19.577  1.00  0.00     0.166 HD
BRANCH  10  14
HETATM   14  N   UNL     1     -48.868 -51.144  19.336  1.00  0.00    -0.376 N 
HETATM   15  C   UNL     1     -48.330 -50.065  20.159  1.00  0.00     0.150 C 
HETATM   16  C   UNL     1     -49.648 -52.167  20.023  1.00  0.00     0.150 C 
ENDBRANCH  10  14
ENDBRANCH   1   7
BRANCH   4  17
HETATM   17  C   UNL     1     -43.543 -53.770  13.518  1.00  0.00     0.154 C 
BRANCH  17  18
HETATM   18  C   UNL     1     -42.243 -53.864  14.363  1.00  0.00     0.036 C 
HETATM   19  C   UNL     1     -42.193 -52.616  15.276  1.00  0.00     0.039 C 
HETATM   20  C   UNL     1     -42.272 -55.106  15.268  1.00  0.00     0.039 C 
BRANCH  18  21
HETATM   21  N   UNL     1     -41.154 -53.880  13.347  1.00  0.00    -0.399 N 
HETATM   22  C   UNL     1     -39.781 -54.200  13.795  1.00  0.00     0.144 C 
HETATM   23  C   UNL     1     -38.922 -52.973  14.111  1.00  0.00     0.187 C 
HETATM   24  O   UNL     1     -38.841 -52.117  12.973  1.00  0.00    -0.388 OA
HETATM   25  C   UNL     1     -40.150 -51.680  12.584  1.00  0.00     0.187 C 
HETATM   26  C   UNL     1     -41.098 -52.857  12.295  1.00  0.00     0.144 C 
ENDBRANCH  18  21
ENDBRANCH  17  18
ENDBRANCH   4  17
TORSDOF 5
ENDMDL
MODEL 7
REMARK VINA RESULT:      -5.5      2.415      7.445
REMARK  5 active torsions:
REMARK  status: ('A' for Active; 'I' for Inactive)
REMARK    1  A    between atoms: N_2  and  C_4 
REMARK    2  A    between atoms: C_7  and  N_8 
REMARK       I    between atoms: N_8  and  C_9 
REMARK       I    between atoms: C_9  and  N_11 
REMARK    3  A    between atoms: N_11  and  C_12 
REMARK    4  A    between atoms: C_12  and  C_13 
REMARK    5  A    between atoms: C_13  and  N_16 
ROOT
HETATM    1  N   UNL     1     -41.147 -49.917  12.165  1.00  0.00    -0.308 N 
HETATM    2  C   UNL     1     -39.836 -49.669  11.831  1.00  0.00     0.320 C 
HETATM    3  O   UNL     1     -38.888 -50.435  11.947  1.00  0.00    -0.247 OA
HETATM    4  N   UNL     1     -39.606 -48.419  11.300  1.00  0.00    -0.341 N 
HETATM    5  H   UNL     1     -41.812 -49.180  12.005  1.00  0.00     0.170 HD
HETATM    6  H   UNL     1     -38.659 -48.290  10.965  1.00  0.00     0.164 HD
ENDROOT
BRANCH   1   7
HETATM    7  C   UNL     1     -41.697 -51.077  12.733  1.00  0.00     0.051 A 
HETATM    8  C   UNL     1     -42.157 -51.161  14.030  1.00  0.00     0.035 A 
HETATM    9  C   UNL     1     -42.732 -52.354  14.473  1.00  0.00     0.050 A 
HETATM   10  C   UNL     1     -42.854 -53.454  13.621  1.00  0.00     0.102 A 
HETATM   11  N   UNL     1     -42.363 -53.389  12.364  1.00  0.00    -0.350 N 
HETATM   12  C   UNL     1     -41.808 -52.223  11.952  1.00  0.00     0.119 A 
ATOM     13  HN  UNL     1     -42.408 -54.196  11.742  1.00  0.00     0.166 HD
BRANCH  10  14
HETATM   14  N   UNL     1     -43.477 -54.633  14.055  1.00  0.00    -0.376 N 
HETATM   15  C   UNL     1     -44.927 -54.648  13.894  1.00  0.00     0.150 C 
HETATM   16  C   UNL     1     -42.945 -55.235  15.272  1.00  0.00     0.150 C 
ENDBRANCH  10  14
ENDBRANCH   1   7
BRANCH   4  17
HETATM   17  C   UNL     1     -40.653 -47.487  10.972  1.00  0.00     0.154 C 
BRANCH  17  18
HETATM   18  C   UNL     1     -40.595 -46.020  11.480  1.00  0.00     0.036 C 
HETATM   19  C   UNL     1     -39.755 -46.013  12.778  1.00  0.00     0.039 C 
HETATM   20  C   UNL     1     -39.885 -45.118  10.457  1.00  0.00     0.039 C 
BRANCH  18  21
HETATM   21  N   UNL     1     -42.022 -45.664  11.714  1.00  0.00    -0.399 N 
HETATM   22  C   UNL     1     -42.377 -44.233  11.835  1.00  0.00     0.144 C 
HETATM   23  C   UNL     1     -42.430 -43.719  13.276  1.00  0.00     0.187 C 
HETATM   24  O   UNL     1     -43.358 -44.485  14.042  1.00  0.00    -0.388 OA
HETATM   25  C   UNL     1     -42.973 -45.866  14.055  1.00  0.00     0.187 C 
HETATM   26  C   UNL     1     -42.847 -46.452  12.638  1.00  0.00     0.144 C 
ENDBRANCH  18  21
ENDBRANCH  17  18
ENDBRANCH   4  17
TORSDOF 5
ENDMDL
MODEL 8
REMARK VINA RESULT:      -5.5      4.197      7.085
REMARK  5 active torsions:
REMARK  status: ('A' for Active; 'I' for Inactive)
REMARK    1  A    between atoms: N_2  and  C_4 
REMARK    2  A    between atoms: C_7  and  N_8 
REMARK       I    between atoms: N_8  and  C_9 
REMARK       I    between atoms: C_9  and  N_11 
REMARK    3  A    between atoms: N_11  and  C_12 
REMARK    4  A    between atoms: C_12  and  C_13 
REMARK    5  A    between atoms: C_13  and  N_16 
ROOT
HETATM    1  N   UNL     1     -40.790 -44.357  11.421  1.00  0.00    -0.308 N 
HETATM    2  C   UNL     1     -40.162 -45.061  10.420  1.00  0.00     0.320 C 
HETATM    3  O   UNL     1     -39.433 -44.609   9.547  1.00  0.00    -0.247 OA
HETATM    4  N   UNL     1     -40.391 -46.419  10.443  1.00  0.00    -0.341 N 
HETATM    5  H   UNL     1     -41.358 -44.878  12.067  1.00  0.00     0.170 HD
HETATM    6  H   UNL     1     -39.842 -46.933   9.766  1.00  0.00     0.164 HD
ENDROOT
BRANCH   1   7
HETATM    7  C   UNL     1     -40.768 -42.974  11.660  1.00  0.00     0.051 A 
HETATM    8  C   UNL     1     -39.954 -42.360  12.589  1.00  0.00     0.035 A 
HETATM    9  C   UNL     1     -39.979 -40.969  12.705  1.00  0.00     0.050 A 
HETATM   10  C   UNL     1     -40.808 -40.195  11.890  1.00  0.00     0.102 A 
HETATM   11  N   UNL     1     -41.639 -40.796  11.010  1.00  0.00    -0.350 N 
HETATM   12  C   UNL     1     -41.600 -42.147  10.912  1.00  0.00     0.119 A 
ATOM     13  HN  UNL     1     -42.279 -40.247  10.436  1.00  0.00     0.166 HD
BRANCH  10  14
HETATM   14  N   UNL     1     -40.795 -38.795  11.975  1.00  0.00    -0.376 N 
HETATM   15  C   UNL     1     -41.957 -38.217  12.640  1.00  0.00     0.150 C 
HETATM   16  C   UNL     1     -40.282 -38.081  10.812  1.00  0.00     0.150 C 
ENDBRANCH  10  14
ENDBRANCH   1   7
BRANCH   4  17
HETATM   17  C   UNL     1     -41.101 -47.090  11.500  1.00  0.00     0.154 C 
BRANCH  17  18
HETATM   18  C   UNL     1     -40.339 -47.966  12.533  1.00  0.00     0.036 C 
HETATM   19  C   UNL     1     -39.283 -47.065  13.215  1.00  0.00     0.039 C 
HETATM   20  C   UNL     1     -41.295 -48.476  13.623  1.00  0.00     0.039 C 
BRANCH  18  21
HETATM   21  N   UNL     1     -39.730 -49.046  11.708  1.00  0.00    -0.399 N 
HETATM   22  C   UNL     1     -40.459 -50.327  11.579  1.00  0.00     0.144 C 
HETATM   23  C   UNL     1     -40.024 -51.399  12.582  1.00  0.00     0.187 C 
HETATM   24  O   UNL     1     -38.626 -51.657  12.458  1.00  0.00    -0.388 OA
HETATM   25  C   UNL     1     -37.876 -50.460  12.703  1.00  0.00     0.187 C 
HETATM   26  C   UNL     1     -38.287 -49.309  11.768  1.00  0.00     0.144 C 
ENDBRANCH  18  21
ENDBRANCH  17  18
ENDBRANCH   4  17
TORSDOF 5
ENDMDL
MODEL 9
REMARK VINA RESULT:      -5.5      1.482      2.153
REMARK  5 active torsions:
REMARK  status: ('A' for Active; 'I' for Inactive)
REMARK    1  A    between atoms: N_2  and  C_4 
REMARK    2  A    between atoms: C_7  and  N_8 
REMARK       I    between atoms: N_8  and  C_9 
REMARK       I    between atoms: C_9  and  N_11 
REMARK    3  A    between atoms: N_11  and  C_12 
REMARK    4  A    between atoms: C_12  and  C_13 
REMARK    5  A    between atoms: C_13  and  N_16 
ROOT
HETATM    1  N   UNL     1     -42.203 -50.677  12.059  1.00  0.00    -0.308 N 
HETATM    2  C   UNL     1     -41.432 -51.815  12.086  1.00  0.00     0.320 C 
HETATM    3  O   UNL     1     -40.210 -51.878  12.086  1.00  0.00    -0.247 OA
HETATM    4  N   UNL     1     -42.147 -52.992  12.129  1.00  0.00    -0.341 N 
HETATM    5  H   UNL     1     -43.202 -50.794  12.066  1.00  0.00     0.170 HD
HETATM    6  H   UNL     1     -41.568 -53.813  12.252  1.00  0.00     0.164 HD
ENDROOT
BRANCH   1   7
HETATM    7  C   UNL     1     -41.781 -49.339  12.000  1.00  0.00     0.051 A 
HETATM    8  C   UNL     1     -41.847 -48.457  13.057  1.00  0.00     0.035 A 
HETATM    9  C   UNL     1     -41.349 -47.163  12.898  1.00  0.00     0.050 A 
HETATM   10  C   UNL     1     -40.780 -46.755  11.689  1.00  0.00     0.102 A 
HETATM   11  N   UNL     1     -40.755 -47.603  10.637  1.00  0.00    -0.350 N 
HETATM   12  C   UNL     1     -41.243 -48.855  10.811  1.00  0.00     0.119 A 
ATOM     13  HN  UNL     1     -40.379 -47.307   9.736  1.00  0.00     0.166 HD
BRANCH  10  14
HETATM   14  N   UNL     1     -40.236 -45.470  11.548  1.00  0.00    -0.376 N 
HETATM   15  C   UNL     1     -39.746 -45.162  10.209  1.00  0.00     0.150 C 
HETATM   16  C   UNL     1     -39.442 -44.977  12.668  1.00  0.00     0.150 C 
ENDBRANCH  10  14
ENDBRANCH   1   7
BRANCH   4  17
HETATM   17  C   UNL     1     -43.577 -53.051  12.287  1.00  0.00     0.154 C 
BRANCH  17  18
HETATM   18  C   UNL     1     -44.209 -53.348  13.675  1.00  0.00     0.036 C 
HETATM   19  C   UNL     1     -45.254 -52.242  13.953  1.00  0.00     0.039 C 
HETATM   20  C   UNL     1     -44.947 -54.696  13.658  1.00  0.00     0.039 C 
BRANCH  18  21
HETATM   21  N   UNL     1     -43.054 -53.301  14.613  1.00  0.00    -0.399 N 
HETATM   22  C   UNL     1     -42.672 -54.543  15.318  1.00  0.00     0.144 C 
HETATM   23  C   UNL     1     -43.285 -54.686  16.714  1.00  0.00     0.187 C 
HETATM   24  O   UNL     1     -42.926 -53.571  17.530  1.00  0.00    -0.388 OA
HETATM   25  C   UNL     1     -43.395 -52.352  16.939  1.00  0.00     0.187 C 
HETATM   26  C   UNL     1     -42.864 -52.153  15.509  1.00  0.00     0.144 C 
ENDBRANCH  18  21
ENDBRANCH  17  18
ENDBRANCH   4  17
TORSDOF 5
ENDMDL
