MODEL 1
REMARK VINA RESULT:      -6.8      0.000      0.000
REMARK  4 active torsions:
REMARK  status: ('A' for Active; 'I' for Inactive)
REMARK       I    between atoms: C_2  and  N_3 
REMARK       I    between atoms: C_2  and  N_10 
REMARK    1  A    between atoms: N_3  and  C_4 
REMARK    2  A    between atoms: C_4  and  C_5 
REMARK    3  A    between atoms: N_10  and  C_11 
REMARK    4  A    between atoms: C_17  and  N_18 
ROOT
HETATM    1  C   UNL     1     -39.691 -50.254  11.526  1.00  0.00     0.080 A 
HETATM    2  C   UNL     1     -38.332 -49.925  11.499  1.00  0.00     0.035 A 
HETATM    3  C   UNL     1     -37.501 -50.370  12.516  1.00  0.00     0.019 A 
HETATM    4  C   UNL     1     -38.056 -51.153  13.510  1.00  0.00     0.090 A 
HETATM    5  N   UNL     1     -39.353 -51.532  13.540  1.00  0.00    -0.351 N 
ATOM      6  HN  UNL     1     -39.705 -52.128  14.289  1.00  0.00     0.166 HD
HETATM    7  C   UNL     1     -40.177 -51.102  12.551  1.00  0.00     0.130 A 
ENDROOT
BRANCH   1   8
HETATM    8  N   UNL     1     -40.505 -49.680  10.514  1.00  0.00    -0.306 N 
HETATM    9  C   UNL     1     -41.301 -48.576  10.762  1.00  0.00     0.320 C 
HETATM   10  O   UNL     1     -41.350 -47.917  11.789  1.00  0.00    -0.247 OA
HETATM   11  N   UNL     1     -41.967 -48.205   9.607  1.00  0.00    -0.342 N 
HETATM   12  H   UNL     1     -42.210 -48.964   8.987  1.00  0.00     0.164 HD
HETATM   13  H   UNL     1     -40.096 -49.639   9.594  1.00  0.00     0.171 HD
BRANCH  11  14
HETATM   14  C   UNL     1     -42.788 -47.009   9.568  1.00  0.00     0.131 C 
BRANCH  14  15
HETATM   15  C   UNL     1     -44.052 -47.158   8.724  1.00  0.00     0.029 C 
HETATM   16  C   UNL     1     -45.306 -47.541   9.494  1.00  0.00     0.034 C 
HETATM   17  C   UNL     1     -46.122 -48.355   8.504  1.00  0.00     0.168 C 
HETATM   18  O   UNL     1     -45.370 -48.434   7.288  1.00  0.00    -0.391 OA
HETATM   19  C   UNL     1     -43.996 -48.210   7.633  1.00  0.00     0.173 C 
ENDBRANCH  14  15
ENDBRANCH  11  14
ENDBRANCH   1   8
BRANCH   7  20
HETATM   20  N   UNL     1     -41.486 -51.556  12.542  1.00  0.00    -0.365 N 
HETATM   21  C   UNL     1     -42.464 -50.914  13.410  1.00  0.00     0.124 C 
HETATM   22  C   UNL     1     -43.692 -51.833  13.303  1.00  0.00     0.021 C 
HETATM   23  C   UNL     1     -43.223 -53.052  12.507  1.00  0.00     0.021 C 
HETATM   24  C   UNL     1     -41.705 -52.990  12.604  1.00  0.00     0.124 C 
ENDBRANCH   7  20
TORSDOF 4
ENDMDL
MODEL 2
REMARK VINA RESULT:      -6.6      2.402      3.484
REMARK  4 active torsions:
REMARK  status: ('A' for Active; 'I' for Inactive)
REMARK       I    between atoms: C_2  and  N_3 
REMARK       I    between atoms: C_2  and  N_10 
REMARK    1  A    between atoms: N_3  and  C_4 
REMARK    2  A    between atoms: C_4  and  C_5 
REMARK    3  A    between atoms: N_10  and  C_11 
REMARK    4  A    between atoms: C_17  and  N_18 
ROOT
HETATM    1  C   UNL     1     -42.069 -52.518  12.765  1.00  0.00     0.080 A 
HETATM    2  C   UNL     1     -40.881 -53.250  12.864  1.00  0.00     0.035 A 
HETATM    3  C   UNL     1     -40.760 -54.228  13.840  1.00  0.00     0.019 A 
HETATM    4  C   UNL     1     -41.845 -54.456  14.665  1.00  0.00     0.090 A 
HETATM    5  N   UNL     1     -43.024 -53.803  14.565  1.00  0.00    -0.351 N 
ATOM      6  HN  UNL     1     -43.799 -54.026  15.189  1.00  0.00     0.166 HD
HETATM    7  C   UNL     1     -43.154 -52.844  13.614  1.00  0.00     0.130 A 
ENDROOT
BRANCH   1   8
HETATM    8  N   UNL     1     -42.088 -51.463  11.814  1.00  0.00    -0.306 N 
HETATM    9  C   UNL     1     -41.829 -50.154  12.179  1.00  0.00     0.320 C 
HETATM   10  O   UNL     1     -41.476 -49.749  13.275  1.00  0.00    -0.247 OA
HETATM   11  N   UNL     1     -41.886 -49.334  11.065  1.00  0.00    -0.342 N 
HETATM   12  H   UNL     1     -42.547 -49.616  10.356  1.00  0.00     0.164 HD
HETATM   13  H   UNL     1     -41.695 -51.679  10.912  1.00  0.00     0.171 HD
BRANCH  11  14
HETATM   14  C   UNL     1     -41.546 -47.926  11.154  1.00  0.00     0.131 C 
BRANCH  14  15
HETATM   15  C   UNL     1     -42.656 -46.994  10.671  1.00  0.00     0.029 C 
HETATM   16  C   UNL     1     -43.388 -47.451   9.419  1.00  0.00     0.034 C 
HETATM   17  C   UNL     1     -43.796 -46.160   8.729  1.00  0.00     0.168 C 
HETATM   18  O   UNL     1     -43.310 -45.073   9.525  1.00  0.00    -0.391 OA
HETATM   19  C   UNL     1     -42.224 -45.586  10.310  1.00  0.00     0.173 C 
ENDBRANCH  14  15
ENDBRANCH  11  14
ENDBRANCH   1   8
BRANCH   7  20
HETATM   20  N   UNL     1     -44.388 -52.231  13.462  1.00  0.00    -0.365 N 
HETATM   21  C   UNL     1     -45.098 -51.766  14.647  1.00  0.00     0.124 C 
HETATM   22  C   UNL     1     -46.487 -51.390  14.104  1.00  0.00     0.021 C 
HETATM   23  C   UNL     1     -46.501 -51.867  12.650  1.00  0.00     0.021 C 
HETATM   24  C   UNL     1     -45.353 -52.864  12.581  1.00  0.00     0.124 C 
ENDBRANCH   7  20
TORSDOF 4
ENDMDL
MODEL 3
REMARK VINA RESULT:      -6.0      2.562      6.758
REMARK  4 active torsions:
REMARK  status: ('A' for Active; 'I' for Inactive)
REMARK       I    between atoms: C_2  and  N_3 
REMARK       I    between atoms: C_2  and  N_10 
REMARK    1  A    between atoms: N_3  and  C_4 
REMARK    2  A    between atoms: C_4  and  C_5 
REMARK    3  A    between atoms: N_10  and  C_11 
REMARK    4  A    between atoms: C_17  and  N_18 
ROOT
HETATM    1  C   UNL     1     -42.530 -47.440   9.633  1.00  0.00     0.080 A 
HETATM    2  C   UNL     1     -43.567 -47.738   8.743  1.00  0.00     0.035 A 
HETATM    3  C   UNL     1     -44.559 -46.797   8.511  1.00  0.00     0.019 A 
HETATM    4  C   UNL     1     -44.461 -45.580   9.159  1.00  0.00     0.090 A 
HETATM    5  N   UNL     1     -43.447 -45.242   9.986  1.00  0.00    -0.351 N 
ATOM      6  HN  UNL     1     -43.416 -44.320  10.422  1.00  0.00     0.166 HD
HETATM    7  C   UNL     1     -42.471 -46.154  10.221  1.00  0.00     0.130 A 
ENDROOT
BRANCH   1   8
HETATM    8  N   UNL     1     -41.606 -48.485   9.905  1.00  0.00    -0.306 N 
HETATM    9  C   UNL     1     -41.557 -49.106  11.141  1.00  0.00     0.320 C 
HETATM   10  O   UNL     1     -42.309 -48.929  12.086  1.00  0.00    -0.247 OA
HETATM   11  N   UNL     1     -40.593 -50.099  11.131  1.00  0.00    -0.342 N 
HETATM   12  H   UNL     1     -39.792 -49.917  10.545  1.00  0.00     0.164 HD
HETATM   13  H   UNL     1     -41.455 -49.142   9.156  1.00  0.00     0.171 HD
BRANCH  11  14
HETATM   14  C   UNL     1     -40.412 -50.977  12.273  1.00  0.00     0.131 C 
BRANCH  14  15
HETATM   15  C   UNL     1     -41.120 -52.323  12.132  1.00  0.00     0.029 C 
HETATM   16  C   UNL     1     -42.589 -52.328  12.525  1.00  0.00     0.034 C 
HETATM   17  C   UNL     1     -42.833 -53.733  13.051  1.00  0.00     0.168 C 
HETATM   18  O   UNL     1     -41.592 -54.443  12.975  1.00  0.00    -0.391 OA
HETATM   19  C   UNL     1     -40.549 -53.458  12.959  1.00  0.00     0.173 C 
ENDBRANCH  14  15
ENDBRANCH  11  14
ENDBRANCH   1   8
BRANCH   7  20
HETATM   20  N   UNL     1     -41.393 -45.776  11.007  1.00  0.00    -0.365 N 
HETATM   21  C   UNL     1     -41.642 -45.195  12.319  1.00  0.00     0.124 C 
HETATM   22  C   UNL     1     -40.256 -44.694  12.755  1.00  0.00     0.021 C 
HETATM   23  C   UNL     1     -39.353 -44.872  11.532  1.00  0.00     0.021 C 
HETATM   24  C   UNL     1     -40.330 -45.016  10.374  1.00  0.00     0.124 C 
ENDBRANCH   7  20
TORSDOF 4
ENDMDL
MODEL 4
REMARK VINA RESULT:      -5.9      2.765      5.881
REMARK  4 active torsions:
REMARK  status: ('A' for Active; 'I' for Inactive)
REMARK       I    between atoms: C_2  and  N_3 
REMARK       I    between atoms: C_2  and  N_10 
REMARK    1  A    between atoms: N_3  and  C_4 
REMARK    2  A    between atoms: C_4  and  C_5 
REMARK    3  A    between atoms: N_10  and  C_11 
REMARK    4  A    between atoms: C_17  and  N_18 
ROOT
HETATM    1  C   UNL     1     -41.471 -48.828  11.255  1.00  0.00     0.080 A 
HETATM    2  C   UNL     1     -42.284 -47.935  10.550  1.00  0.00     0.035 A 
HETATM    3  C   UNL     1     -41.820 -46.656  10.281  1.00  0.00     0.019 A 
HETATM    4  C   UNL     1     -40.546 -46.327  10.703  1.00  0.00     0.090 A 
HETATM    5  N   UNL     1     -39.715 -47.182  11.342  1.00  0.00    -0.351 N 
ATOM      6  HN  UNL     1     -38.777 -46.891  11.614  1.00  0.00     0.166 HD
HETATM    7  C   UNL     1     -40.158 -48.435  11.611  1.00  0.00     0.130 A 
ENDROOT
BRANCH   1   8
HETATM    8  N   UNL     1     -42.046 -50.084  11.588  1.00  0.00    -0.306 N 
HETATM    9  C   UNL     1     -42.680 -50.292  12.800  1.00  0.00     0.320 C 
HETATM   10  O   UNL     1     -42.908 -49.462  13.666  1.00  0.00    -0.247 OA
HETATM   11  N   UNL     1     -43.170 -51.585  12.860  1.00  0.00    -0.342 N 
HETATM   12  H   UNL     1     -42.623 -52.277  12.368  1.00  0.00     0.164 HD
HETATM   13  H   UNL     1     -42.520 -50.562  10.838  1.00  0.00     0.171 HD
BRANCH  11  14
HETATM   14  C   UNL     1     -43.973 -52.029  13.984  1.00  0.00     0.131 C 
BRANCH  14  15
HETATM   15  C   UNL     1     -44.837 -53.252  13.678  1.00  0.00     0.029 C 
HETATM   16  C   UNL     1     -46.212 -53.254  14.326  1.00  0.00     0.034 C 
HETATM   17  C   UNL     1     -46.517 -54.725  14.557  1.00  0.00     0.168 C 
HETATM   18  O   UNL     1     -45.390 -55.477  14.093  1.00  0.00    -0.391 OA
HETATM   19  C   UNL     1     -44.263 -54.589  14.107  1.00  0.00     0.173 C 
ENDBRANCH  14  15
ENDBRANCH  11  14
ENDBRANCH   1   8
BRANCH   7  20
HETATM   20  N   UNL     1     -39.278 -49.333  12.195  1.00  0.00    -0.365 N 
HETATM   21  C   UNL     1     -38.853 -49.115  13.572  1.00  0.00     0.124 C 
HETATM   22  C   UNL     1     -37.724 -50.141  13.762  1.00  0.00     0.021 C 
HETATM   23  C   UNL     1     -37.476 -50.738  12.376  1.00  0.00     0.021 C 
HETATM   24  C   UNL     1     -38.114 -49.735  11.426  1.00  0.00     0.124 C 
ENDBRANCH   7  20
TORSDOF 4
ENDMDL
MODEL 5
REMARK VINA RESULT:      -5.7      3.324      6.224
REMARK  4 active torsions:
REMARK  status: ('A' for Active; 'I' for Inactive)
REMARK       I    between atoms: C_2  and  N_3 
REMARK       I    between atoms: C_2  and  N_10 
REMARK    1  A    between atoms: N_3  and  C_4 
REMARK    2  A    between atoms: C_4  and  C_5 
REMARK    3  A    between atoms: N_10  and  C_11 
REMARK    4  A    between atoms: C_17  and  N_18 
ROOT
HETATM    1  C   UNL     1     -44.526 -51.900  13.536  1.00  0.00     0.080 A 
HETATM    2  C   UNL     1     -45.750 -51.235  13.403  1.00  0.00     0.035 A 
HETATM    3  C   UNL     1     -46.813 -51.589  14.220  1.00  0.00     0.019 A 
HETATM    4  C   UNL     1     -46.604 -52.579  15.161  1.00  0.00     0.090 A 
HETATM    5  N   UNL     1     -45.422 -53.207  15.350  1.00  0.00    -0.351 N 
ATOM      6  HN  UNL     1     -45.319 -53.918  16.074  1.00  0.00     0.166 HD
HETATM    7  C   UNL     1     -44.374 -52.869  14.556  1.00  0.00     0.130 A 
ENDROOT
BRANCH   1   8
HETATM    8  N   UNL     1     -43.513 -51.561  12.599  1.00  0.00    -0.306 N 
HETATM    9  C   UNL     1     -42.693 -50.462  12.784  1.00  0.00     0.320 C 
HETATM   10  O   UNL     1     -42.655 -49.725  13.757  1.00  0.00    -0.247 OA
HETATM   11  N   UNL     1     -41.782 -50.375  11.746  1.00  0.00    -0.342 N 
HETATM   12  H   UNL     1     -42.115 -50.702  10.851  1.00  0.00     0.164 HD
HETATM   13  H   UNL     1     -43.006 -52.337  12.203  1.00  0.00     0.171 HD
BRANCH  11  14
HETATM   14  C   UNL     1     -40.735 -49.370  11.753  1.00  0.00     0.131 C 
BRANCH  14  15
HETATM   15  C   UNL     1     -39.430 -49.846  12.389  1.00  0.00     0.029 C 
HETATM   16  C   UNL     1     -38.189 -49.683  11.526  1.00  0.00     0.034 C 
HETATM   17  C   UNL     1     -37.287 -50.834  11.943  1.00  0.00     0.168 C 
HETATM   18  O   UNL     1     -37.983 -51.586  12.943  1.00  0.00    -0.391 OA
HETATM   19  C   UNL     1     -39.381 -51.313  12.772  1.00  0.00     0.173 C 
ENDBRANCH  14  15
ENDBRANCH  11  14
ENDBRANCH   1   8
BRANCH   7  20
HETATM   20  N   UNL     1     -43.144 -53.458  14.804  1.00  0.00    -0.365 N 
HETATM   21  C   UNL     1     -43.082 -54.894  15.043  1.00  0.00     0.124 C 
HETATM   22  C   UNL     1     -41.634 -55.113  15.513  1.00  0.00     0.021 C 
HETATM   23  C   UNL     1     -41.043 -53.713  15.684  1.00  0.00     0.021 C 
HETATM   24  C   UNL     1     -42.264 -52.807  15.757  1.00  0.00     0.124 C 
ENDBRANCH   7  20
TORSDOF 4
ENDMDL
MODEL 6
REMARK VINA RESULT:      -5.7      2.460      4.264
REMARK  4 active torsions:
REMARK  status: ('A' for Active; 'I' for Inactive)
REMARK       I    between atoms: C_2  and  N_3 
REMARK       I    between atoms: C_2  and  N_10 
REMARK    1  A    between atoms: N_3  and  C_4 
REMARK    2  A    between atoms: C_4  and  C_5 
REMARK    3  A    between atoms: N_10  and  C_11 
REMARK    4  A    between atoms: C_17  and  N_18 
ROOT
HETATM    1  C   UNL     1     -40.353 -51.596  12.328  1.00  0.00     0.080 A 
HETATM    2  C   UNL     1     -40.948 -52.838  12.086  1.00  0.00     0.035 A 
HETATM    3  C   UNL     1     -40.719 -53.888  12.962  1.00  0.00     0.019 A 
HETATM    4  C   UNL     1     -39.922 -53.648  14.065  1.00  0.00     0.090 A 
HETATM    5  N   UNL     1     -39.372 -52.448  14.356  1.00  0.00    -0.351 N 
ATOM      6  HN  UNL     1     -38.807 -52.324  15.196  1.00  0.00     0.166 HD
HETATM    7  C   UNL     1     -39.589 -51.413  13.506  1.00  0.00     0.130 A 
ENDROOT
BRANCH   1   8
HETATM    8  N   UNL     1     -40.544 -50.595  11.338  1.00  0.00    -0.306 N 
HETATM    9  C   UNL     1     -41.546 -49.647  11.449  1.00  0.00     0.320 C 
HETATM   10  O   UNL     1     -42.303 -49.480  12.394  1.00  0.00    -0.247 OA
HETATM   11  N   UNL     1     -41.498 -48.781  10.371  1.00  0.00    -0.342 N 
HETATM   12  H   UNL     1     -41.184 -49.190   9.503  1.00  0.00     0.164 HD
HETATM   13  H   UNL     1     -39.704 -50.199  10.948  1.00  0.00     0.171 HD
BRANCH  11  14
HETATM   14  C   UNL     1     -42.374 -47.627  10.299  1.00  0.00     0.131 C 
BRANCH  14  15
HETATM   15  C   UNL     1     -41.633 -46.302  10.126  1.00  0.00     0.029 C 
HETATM   16  C   UNL     1     -40.282 -46.218  10.819  1.00  0.00     0.034 C 
HETATM   17  C   UNL     1     -40.137 -44.750  11.184  1.00  0.00     0.168 C 
HETATM   18  O   UNL     1     -41.323 -44.077  10.746  1.00  0.00    -0.391 OA
HETATM   19  C   UNL     1     -42.352 -45.072  10.646  1.00  0.00     0.173 C 
ENDBRANCH  14  15
ENDBRANCH  11  14
ENDBRANCH   1   8
BRANCH   7  20
HETATM   20  N   UNL     1     -39.090 -50.166  13.847  1.00  0.00    -0.365 N 
HETATM   21  C   UNL     1     -37.670 -49.897  13.663  1.00  0.00     0.124 C 
HETATM   22  C   UNL     1     -37.470 -48.546  14.369  1.00  0.00     0.021 C 
HETATM   23  C   UNL     1     -38.796 -48.252  15.073  1.00  0.00     0.021 C 
HETATM   24  C   UNL     1     -39.490 -49.604  15.125  1.00  0.00     0.124 C 
ENDBRANCH   7  20
TORSDOF 4
ENDMDL
MODEL 7
REMARK VINA RESULT:      -5.7      2.635      5.248
REMARK  4 active torsions:
REMARK  status: ('A' for Active; 'I' for Inactive)
REMARK       I    between atoms: C_2  and  N_3 
REMARK       I    between atoms: C_2  and  N_10 
REMARK    1  A    between atoms: N_3  and  C_4 
REMARK    2  A    between atoms: C_4  and  C_5 
REMARK    3  A    between atoms: N_10  and  C_11 
REMARK    4  A    between atoms: C_17  and  N_18 
ROOT
HETATM    1  C   UNL     1     -39.962 -50.552  12.833  1.00  0.00     0.080 A 
HETATM    2  C   UNL     1     -38.726 -51.168  13.053  1.00  0.00     0.035 A 
HETATM    3  C   UNL     1     -37.599 -50.692  12.400  1.00  0.00     0.019 A 
HETATM    4  C   UNL     1     -37.747 -49.597  11.570  1.00  0.00     0.090 A 
HETATM    5  N   UNL     1     -38.916 -48.948  11.373  1.00  0.00    -0.351 N 
ATOM      6  HN  UNL     1     -38.963 -48.132  10.763  1.00  0.00     0.166 HD
HETATM    7  C   UNL     1     -40.025 -49.404  12.006  1.00  0.00     0.130 A 
ENDROOT
BRANCH   1   8
HETATM    8  N   UNL     1     -41.091 -51.154  13.451  1.00  0.00    -0.306 N 
HETATM    9  C   UNL     1     -41.928 -52.010  12.756  1.00  0.00     0.320 C 
HETATM   10  O   UNL     1     -41.779 -52.423  11.616  1.00  0.00    -0.247 OA
HETATM   11  N   UNL     1     -42.928 -52.474  13.592  1.00  0.00    -0.342 N 
HETATM   12  H   UNL     1     -43.229 -51.825  14.305  1.00  0.00     0.164 HD
HETATM   13  H   UNL     1     -40.959 -51.460  14.402  1.00  0.00     0.171 HD
BRANCH  11  14
HETATM   14  C   UNL     1     -43.878 -53.473  13.139  1.00  0.00     0.131 C 
BRANCH  14  15
HETATM   15  C   UNL     1     -45.336 -53.090  13.386  1.00  0.00     0.029 C 
HETATM   16  C   UNL     1     -45.624 -51.596  13.396  1.00  0.00     0.034 C 
HETATM   17  C   UNL     1     -46.783 -51.442  14.366  1.00  0.00     0.168 C 
HETATM   18  O   UNL     1     -47.100 -52.745  14.870  1.00  0.00    -0.391 OA
HETATM   19  C   UNL     1     -45.925 -53.551  14.706  1.00  0.00     0.173 C 
ENDBRANCH  14  15
ENDBRANCH  11  14
ENDBRANCH   1   8
BRANCH   7  20
HETATM   20  N   UNL     1     -41.205 -48.690  11.865  1.00  0.00    -0.365 N 
HETATM   21  C   UNL     1     -41.659 -48.330  10.528  1.00  0.00     0.124 C 
HETATM   22  C   UNL     1     -42.822 -47.362  10.797  1.00  0.00     0.021 C 
HETATM   23  C   UNL     1     -42.802 -47.106  12.305  1.00  0.00     0.021 C 
HETATM   24  C   UNL     1     -41.408 -47.543  12.732  1.00  0.00     0.124 C 
ENDBRANCH   7  20
TORSDOF 4
ENDMDL
MODEL 8
REMARK VINA RESULT:      -5.6      2.668      6.245
REMARK  4 active torsions:
REMARK  status: ('A' for Active; 'I' for Inactive)
REMARK       I    between atoms: C_2  and  N_3 
REMARK       I    between atoms: C_2  and  N_10 
REMARK    1  A    between atoms: N_3  and  C_4 
REMARK    2  A    between atoms: C_4  and  C_5 
REMARK    3  A    between atoms: N_10  and  C_11 
REMARK    4  A    between atoms: C_17  and  N_18 
ROOT
HETATM    1  C   UNL     1     -40.783 -48.965  11.122  1.00  0.00     0.080 A 
HETATM    2  C   UNL     1     -41.705 -48.148  10.460  1.00  0.00     0.035 A 
HETATM    3  C   UNL     1     -41.590 -46.770  10.557  1.00  0.00     0.019 A 
HETATM    4  C   UNL     1     -40.537 -46.258  11.292  1.00  0.00     0.090 A 
HETATM    5  N   UNL     1     -39.600 -47.017  11.902  1.00  0.00    -0.351 N 
ATOM      6  HN  UNL     1     -38.833 -46.585  12.416  1.00  0.00     0.166 HD
HETATM    7  C   UNL     1     -39.702 -48.367  11.815  1.00  0.00     0.130 A 
ENDROOT
BRANCH   1   8
HETATM    8  N   UNL     1     -41.019 -50.365  11.068  1.00  0.00    -0.306 N 
HETATM    9  C   UNL     1     -41.785 -51.008  12.024  1.00  0.00     0.320 C 
HETATM   10  O   UNL     1     -42.407 -50.494  12.940  1.00  0.00    -0.247 OA
HETATM   11  N   UNL     1     -41.879 -52.356  11.724  1.00  0.00    -0.342 N 
HETATM   12  H   UNL     1     -41.070 -52.754  11.269  1.00  0.00     0.164 HD
HETATM   13  H   UNL     1     -41.181 -50.746  10.149  1.00  0.00     0.171 HD
BRANCH  11  14
HETATM   14  C   UNL     1     -42.717 -53.241  12.512  1.00  0.00     0.131 C 
BRANCH  14  15
HETATM   15  C   UNL     1     -41.930 -54.188  13.416  1.00  0.00     0.029 C 
HETATM   16  C   UNL     1     -42.239 -54.077  14.901  1.00  0.00     0.034 C 
HETATM   17  C   UNL     1     -40.932 -54.437  15.586  1.00  0.00     0.168 C 
HETATM   18  O   UNL     1     -39.968 -54.706  14.562  1.00  0.00    -0.391 OA
HETATM   19  C   UNL     1     -40.421 -54.036  13.377  1.00  0.00     0.173 C 
ENDBRANCH  14  15
ENDBRANCH  11  14
ENDBRANCH   1   8
BRANCH   7  20
HETATM   20  N   UNL     1     -38.698 -49.141  12.375  1.00  0.00    -0.365 N 
HETATM   21  C   UNL     1     -38.031 -50.141  11.550  1.00  0.00     0.124 C 
HETATM   22  C   UNL     1     -37.190 -50.933  12.564  1.00  0.00     0.021 C 
HETATM   23  C   UNL     1     -37.613 -50.416  13.940  1.00  0.00     0.021 C 
HETATM   24  C   UNL     1     -38.945 -49.728  13.679  1.00  0.00     0.124 C 
ENDBRANCH   7  20
TORSDOF 4
ENDMDL
MODEL 9
REMARK VINA RESULT:      -5.5      2.724      5.190
REMARK  4 active torsions:
REMARK  status: ('A' for Active; 'I' for Inactive)
REMARK       I    between atoms: C_2  and  N_3 
REMARK       I    between atoms: C_2  and  N_10 
REMARK    1  A    between atoms: N_3  and  C_4 
REMARK    2  A    between atoms: C_4  and  C_5 
REMARK    3  A    between atoms: N_10  and  C_11 
REMARK    4  A    between atoms: C_17  and  N_18 
ROOT
HETATM    1  C   UNL     1     -44.667 -51.852  13.909  1.00  0.00     0.080 A 
HETATM    2  C   UNL     1     -45.966 -51.335  13.891  1.00  0.00     0.035 A 
HETATM    3  C   UNL     1     -46.882 -51.755  14.843  1.00  0.00     0.019 A 
HETATM    4  C   UNL     1     -46.456 -52.660  15.797  1.00  0.00     0.090 A 
HETATM    5  N   UNL     1     -45.195 -53.141  15.874  1.00  0.00    -0.351 N 
ATOM      6  HN  UNL     1     -44.930 -53.793  16.612  1.00  0.00     0.166 HD
HETATM    7  C   UNL     1     -44.290 -52.738  14.948  1.00  0.00     0.130 A 
ENDROOT
BRANCH   1   8
HETATM    8  N   UNL     1     -43.811 -51.460  12.845  1.00  0.00    -0.306 N 
HETATM    9  C   UNL     1     -42.962 -50.373  12.960  1.00  0.00     0.320 C 
HETATM   10  O   UNL     1     -42.764 -49.693  13.955  1.00  0.00    -0.247 OA
HETATM   11  N   UNL     1     -42.226 -50.225  11.798  1.00  0.00    -0.342 N 
HETATM   12  H   UNL     1     -42.699 -50.501  10.950  1.00  0.00     0.164 HD
HETATM   13  H   UNL     1     -43.380 -52.211  12.330  1.00  0.00     0.171 HD
BRANCH  11  14
HETATM   14  C   UNL     1     -41.182 -49.222  11.697  1.00  0.00     0.131 C 
BRANCH  14  15
HETATM   15  C   UNL     1     -41.464 -48.144  10.652  1.00  0.00     0.029 C 
HETATM   16  C   UNL     1     -40.805 -46.799  10.911  1.00  0.00     0.034 C 
HETATM   17  C   UNL     1     -41.767 -45.787  10.311  1.00  0.00     0.168 C 
HETATM   18  O   UNL     1     -42.881 -46.513   9.780  1.00  0.00    -0.391 OA
HETATM   19  C   UNL     1     -42.923 -47.772  10.466  1.00  0.00     0.173 C 
ENDBRANCH  14  15
ENDBRANCH  11  14
ENDBRANCH   1   8
BRANCH   7  20
HETATM   20  N   UNL     1     -42.979 -53.172  15.076  1.00  0.00    -0.365 N 
HETATM   21  C   UNL     1     -42.650 -54.545  14.715  1.00  0.00     0.124 C 
HETATM   22  C   UNL     1     -41.207 -54.707  15.220  1.00  0.00     0.021 C 
HETATM   23  C   UNL     1     -40.904 -53.434  16.013  1.00  0.00     0.021 C 
HETATM   24  C   UNL     1     -42.278 -52.850  16.306  1.00  0.00     0.124 C 
ENDBRANCH   7  20
TORSDOF 4
ENDMDL
