MODEL 1
REMARK VINA RESULT:      -6.4      0.000      0.000
REMARK  8 active torsions:
REMARK  status: ('A' for Active; 'I' for Inactive)
REMARK    1  A    between atoms: O_2  and  C_3 
REMARK    2  A    between atoms: C_6  and  C_7 
REMARK    3  A    between atoms: C_7  and  C_8 
REMARK    4  A    between atoms: N_17  and  C_18 
REMARK    5  A    between atoms: C_18  and  C_19 
REMARK    6  A    between atoms: C_19  and  O_20 
REMARK    7  A    between atoms: C_19  and  C_21 
REMARK    8  A    between atoms: C_21  and  O_22 
ROOT
HETATM    1  C   UNL     1     -41.713 -52.445  12.429  1.00  0.00     0.088 A 
HETATM    2  N   UNL     1     -42.918 -52.616  11.920  1.00  0.00    -0.344 N 
ATOM      3  HN  UNL     1     -43.299 -52.168  11.087  1.00  0.00     0.167 HD
HETATM    4  C   UNL     1     -43.553 -53.511  12.733  1.00  0.00     0.060 A 
HETATM    5  C   UNL     1     -44.882 -53.957  12.683  1.00  0.00     0.032 A 
HETATM    6  C   UNL     1     -45.325 -54.872  13.640  1.00  0.00     0.002 A 
HETATM    7  C   UNL     1     -44.460 -55.333  14.631  1.00  0.00     0.002 A 
HETATM    8  C   UNL     1     -43.135 -54.883  14.708  1.00  0.00     0.032 A 
HETATM    9  C   UNL     1     -42.704 -53.964  13.739  1.00  0.00     0.062 A 
HETATM   10  N   UNL     1     -41.519 -53.288  13.516  1.00  0.00    -0.332 N 
ENDROOT
BRANCH   1  11
HETATM   11  C   UNL     1     -40.785 -51.355  11.971  1.00  0.00     0.115 C 
BRANCH  11  12
HETATM   12  C   UNL     1     -41.290 -49.929  12.020  1.00  0.00    -0.051 A 
HETATM   13  C   UNL     1     -42.039 -49.407  13.082  1.00  0.00     0.010 A 
HETATM   14  C   UNL     1     -42.514 -48.087  13.041  1.00  0.00     0.037 A 
HETATM   15  C   UNL     1     -42.219 -47.264  11.953  1.00  0.00     0.068 A 
HETATM   16  C   UNL     1     -41.396 -47.751  10.940  1.00  0.00     0.037 A 
HETATM   17  C   UNL     1     -40.930 -49.065  10.974  1.00  0.00     0.010 A 
BRANCH  15  18
HETATM   18  O   UNL     1     -42.656 -45.985  11.757  1.00  0.00    -0.356 OA
HETATM   19  C   UNL     1     -42.432 -45.412  10.477  1.00  0.00     0.210 C 
ENDBRANCH  15  18
ENDBRANCH  11  12
ENDBRANCH   1  11
BRANCH  10  20
HETATM   20  C   UNL     1     -40.364 -53.306  14.402  1.00  0.00     0.164 C 
BRANCH  20  21
HETATM   21  C   UNL     1     -39.459 -54.548  14.304  1.00  0.00     0.160 C 
BRANCH  21  22
HETATM   22  O   UNL     1     -38.424 -54.389  13.327  1.00  0.00    -0.392 OA
HETATM   23  H   UNL     1     -37.681 -54.973  13.576  1.00  0.00     0.210 HD
ENDBRANCH  21  22
BRANCH  21  24
HETATM   24  C   UNL     1     -38.795 -54.836  15.658  1.00  0.00     0.197 C 
BRANCH  24  25
HETATM   25  O   UNL     1     -37.906 -55.946  15.550  1.00  0.00    -0.398 OA
HETATM   26  H   UNL     1     -38.365 -56.711  15.945  1.00  0.00     0.209 HD
ENDBRANCH  24  25
ENDBRANCH  21  24
ENDBRANCH  20  21
ENDBRANCH  10  20
TORSDOF 8
ENDMDL
MODEL 2
REMARK VINA RESULT:      -6.3      2.776      5.519
REMARK  8 active torsions:
REMARK  status: ('A' for Active; 'I' for Inactive)
REMARK    1  A    between atoms: O_2  and  C_3 
REMARK    2  A    between atoms: C_6  and  C_7 
REMARK    3  A    between atoms: C_7  and  C_8 
REMARK    4  A    between atoms: N_17  and  C_18 
REMARK    5  A    between atoms: C_18  and  C_19 
REMARK    6  A    between atoms: C_19  and  O_20 
REMARK    7  A    between atoms: C_19  and  C_21 
REMARK    8  A    between atoms: C_21  and  O_22 
ROOT
HETATM    1  C   UNL     1     -41.352 -52.430  12.646  1.00  0.00     0.088 A 
HETATM    2  N   UNL     1     -41.149 -51.522  11.712  1.00  0.00    -0.344 N 
ATOM      3  HN  UNL     1     -41.722 -51.357  10.884  1.00  0.00     0.167 HD
HETATM    4  C   UNL     1     -40.018 -50.847  12.073  1.00  0.00     0.060 A 
HETATM    5  C   UNL     1     -39.327 -49.849  11.371  1.00  0.00     0.032 A 
HETATM    6  C   UNL     1     -38.167 -49.307  11.932  1.00  0.00     0.002 A 
HETATM    7  C   UNL     1     -37.705 -49.754  13.168  1.00  0.00     0.002 A 
HETATM    8  C   UNL     1     -38.372 -50.764  13.874  1.00  0.00     0.032 A 
HETATM    9  C   UNL     1     -39.536 -51.298  13.299  1.00  0.00     0.062 A 
HETATM   10  N   UNL     1     -40.417 -52.298  13.665  1.00  0.00    -0.332 N 
ENDROOT
BRANCH   1  11
HETATM   11  C   UNL     1     -42.355 -53.539  12.497  1.00  0.00     0.115 C 
BRANCH  11  12
HETATM   12  C   UNL     1     -43.676 -53.401  13.222  1.00  0.00    -0.051 A 
HETATM   13  C   UNL     1     -44.586 -54.452  13.385  1.00  0.00     0.010 A 
HETATM   14  C   UNL     1     -45.815 -54.240  14.031  1.00  0.00     0.037 A 
HETATM   15  C   UNL     1     -46.133 -52.984  14.547  1.00  0.00     0.068 A 
HETATM   16  C   UNL     1     -45.191 -51.961  14.469  1.00  0.00     0.037 A 
HETATM   17  C   UNL     1     -43.973 -52.166  13.820  1.00  0.00     0.010 A 
BRANCH  15  18
HETATM   18  O   UNL     1     -47.306 -52.624  15.148  1.00  0.00    -0.356 OA
HETATM   19  C   UNL     1     -47.287 -51.460  15.962  1.00  0.00     0.210 C 
ENDBRANCH  15  18
ENDBRANCH  11  12
ENDBRANCH   1  11
BRANCH  10  20
HETATM   20  C   UNL     1     -40.248 -53.187  14.805  1.00  0.00     0.164 C 
BRANCH  20  21
HETATM   21  C   UNL     1     -39.614 -54.558  14.503  1.00  0.00     0.160 C 
BRANCH  21  22
HETATM   22  O   UNL     1     -38.659 -54.491  13.439  1.00  0.00    -0.392 OA
HETATM   23  H   UNL     1     -37.957 -53.863  13.701  1.00  0.00     0.210 HD
ENDBRANCH  21  22
BRANCH  21  24
HETATM   24  C   UNL     1     -38.902 -55.106  15.748  1.00  0.00     0.197 C 
BRANCH  24  25
HETATM   25  O   UNL     1     -37.844 -55.983  15.369  1.00  0.00    -0.398 OA
HETATM   26  H   UNL     1     -38.207 -56.585  14.693  1.00  0.00     0.209 HD
ENDBRANCH  24  25
ENDBRANCH  21  24
ENDBRANCH  20  21
ENDBRANCH  10  20
TORSDOF 8
ENDMDL
MODEL 3
REMARK VINA RESULT:      -6.2      3.342      5.751
REMARK  8 active torsions:
REMARK  status: ('A' for Active; 'I' for Inactive)
REMARK    1  A    between atoms: O_2  and  C_3 
REMARK    2  A    between atoms: C_6  and  C_7 
REMARK    3  A    between atoms: C_7  and  C_8 
REMARK    4  A    between atoms: N_17  and  C_18 
REMARK    5  A    between atoms: C_18  and  C_19 
REMARK    6  A    between atoms: C_19  and  O_20 
REMARK    7  A    between atoms: C_19  and  C_21 
REMARK    8  A    between atoms: C_21  and  O_22 
ROOT
HETATM    1  C   UNL     1     -42.683 -53.193  13.787  1.00  0.00     0.088 A 
HETATM    2  N   UNL     1     -42.748 -53.900  14.898  1.00  0.00    -0.344 N 
ATOM      3  HN  UNL     1     -43.568 -54.035  15.490  1.00  0.00     0.167 HD
HETATM    4  C   UNL     1     -41.499 -54.415  15.098  1.00  0.00     0.060 A 
HETATM    5  C   UNL     1     -41.017 -55.159  16.184  1.00  0.00     0.032 A 
HETATM    6  C   UNL     1     -39.682 -55.569  16.185  1.00  0.00     0.002 A 
HETATM    7  C   UNL     1     -38.842 -55.241  15.122  1.00  0.00     0.002 A 
HETATM    8  C   UNL     1     -39.301 -54.481  14.039  1.00  0.00     0.032 A 
HETATM    9  C   UNL     1     -40.645 -54.077  14.052  1.00  0.00     0.062 A 
HETATM   10  N   UNL     1     -41.427 -53.313  13.206  1.00  0.00    -0.332 N 
ENDROOT
BRANCH   1  11
HETATM   11  C   UNL     1     -43.782 -52.266  13.348  1.00  0.00     0.115 C 
BRANCH  11  12
HETATM   12  C   UNL     1     -45.006 -52.153  14.230  1.00  0.00    -0.051 A 
HETATM   13  C   UNL     1     -46.106 -53.014  14.146  1.00  0.00     0.010 A 
HETATM   14  C   UNL     1     -47.229 -52.823  14.966  1.00  0.00     0.037 A 
HETATM   15  C   UNL     1     -47.251 -51.788  15.901  1.00  0.00     0.068 A 
HETATM   16  C   UNL     1     -46.121 -50.987  16.052  1.00  0.00     0.037 A 
HETATM   17  C   UNL     1     -45.008 -51.170  15.232  1.00  0.00     0.010 A 
BRANCH  15  18
HETATM   18  O   UNL     1     -48.291 -51.454  16.722  1.00  0.00    -0.356 OA
HETATM   19  C   UNL     1     -48.006 -50.584  17.808  1.00  0.00     0.210 C 
ENDBRANCH  15  18
ENDBRANCH  11  12
ENDBRANCH   1  11
BRANCH  10  20
HETATM   20  C   UNL     1     -40.941 -52.591  12.039  1.00  0.00     0.164 C 
BRANCH  20  21
HETATM   21  C   UNL     1     -40.178 -51.283  12.325  1.00  0.00     0.160 C 
BRANCH  21  22
HETATM   22  O   UNL     1     -38.816 -51.344  11.890  1.00  0.00    -0.392 OA
HETATM   23  H   UNL     1     -38.504 -50.429  11.742  1.00  0.00     0.210 HD
ENDBRANCH  21  22
BRANCH  21  24
HETATM   24  C   UNL     1     -40.853 -50.102  11.614  1.00  0.00     0.197 C 
BRANCH  24  25
HETATM   25  O   UNL     1     -40.357 -49.974  10.283  1.00  0.00    -0.398 OA
HETATM   26  H   UNL     1     -40.326 -50.874   9.908  1.00  0.00     0.209 HD
ENDBRANCH  24  25
ENDBRANCH  21  24
ENDBRANCH  20  21
ENDBRANCH  10  20
TORSDOF 8
ENDMDL
MODEL 4
REMARK VINA RESULT:      -6.0      3.450      6.570
REMARK  8 active torsions:
REMARK  status: ('A' for Active; 'I' for Inactive)
REMARK    1  A    between atoms: O_2  and  C_3 
REMARK    2  A    between atoms: C_6  and  C_7 
REMARK    3  A    between atoms: C_7  and  C_8 
REMARK    4  A    between atoms: N_17  and  C_18 
REMARK    5  A    between atoms: C_18  and  C_19 
REMARK    6  A    between atoms: C_19  and  O_20 
REMARK    7  A    between atoms: C_19  and  C_21 
REMARK    8  A    between atoms: C_21  and  O_22 
ROOT
HETATM    1  C   UNL     1     -42.572 -49.519  12.450  1.00  0.00     0.088 A 
HETATM    2  N   UNL     1     -43.416 -48.749  11.793  1.00  0.00    -0.344 N 
ATOM      3  HN  UNL     1     -44.415 -48.909  11.660  1.00  0.00     0.167 HD
HETATM    4  C   UNL     1     -42.687 -47.693  11.324  1.00  0.00     0.060 A 
HETATM    5  C   UNL     1     -43.094 -46.644  10.488  1.00  0.00     0.032 A 
HETATM    6  C   UNL     1     -42.161 -45.673  10.117  1.00  0.00     0.002 A 
HETATM    7  C   UNL     1     -40.845 -45.749  10.569  1.00  0.00     0.002 A 
HETATM    8  C   UNL     1     -40.416 -46.801  11.389  1.00  0.00     0.032 A 
HETATM    9  C   UNL     1     -41.365 -47.768  11.754  1.00  0.00     0.062 A 
HETATM   10  N   UNL     1     -41.312 -48.934  12.496  1.00  0.00    -0.332 N 
ENDROOT
BRANCH   1  11
HETATM   11  C   UNL     1     -42.926 -50.905  12.912  1.00  0.00     0.115 C 
BRANCH  11  12
HETATM   12  C   UNL     1     -44.218 -51.086  13.678  1.00  0.00    -0.051 A 
HETATM   13  C   UNL     1     -45.417 -51.509  13.090  1.00  0.00     0.010 A 
HETATM   14  C   UNL     1     -46.591 -51.612  13.853  1.00  0.00     0.037 A 
HETATM   15  C   UNL     1     -46.572 -51.324  15.218  1.00  0.00     0.068 A 
HETATM   16  C   UNL     1     -45.362 -50.995  15.825  1.00  0.00     0.037 A 
HETATM   17  C   UNL     1     -44.196 -50.883  15.067  1.00  0.00     0.010 A 
BRANCH  15  18
HETATM   18  O   UNL     1     -47.643 -51.332  16.067  1.00  0.00    -0.356 OA
HETATM   19  C   UNL     1     -47.426 -50.858  17.388  1.00  0.00     0.210 C 
ENDBRANCH  15  18
ENDBRANCH  11  12
ENDBRANCH   1  11
BRANCH  10  20
HETATM   20  C   UNL     1     -40.099 -49.533  13.031  1.00  0.00     0.164 C 
BRANCH  20  21
HETATM   21  C   UNL     1     -39.360 -50.509  12.096  1.00  0.00     0.160 C 
BRANCH  21  22
HETATM   22  O   UNL     1     -39.424 -50.100  10.725  1.00  0.00    -0.392 OA
HETATM   23  H   UNL     1     -38.937 -50.756  10.190  1.00  0.00     0.210 HD
ENDBRANCH  21  22
BRANCH  21  24
HETATM   24  C   UNL     1     -37.881 -50.616  12.492  1.00  0.00     0.197 C 
BRANCH  24  25
HETATM   25  O   UNL     1     -37.183 -51.464  11.583  1.00  0.00    -0.398 OA
HETATM   26  H   UNL     1     -36.271 -51.122  11.524  1.00  0.00     0.209 HD
ENDBRANCH  24  25
ENDBRANCH  21  24
ENDBRANCH  20  21
ENDBRANCH  10  20
TORSDOF 8
ENDMDL
MODEL 5
REMARK VINA RESULT:      -6.0      2.551      6.490
REMARK  8 active torsions:
REMARK  status: ('A' for Active; 'I' for Inactive)
REMARK    1  A    between atoms: O_2  and  C_3 
REMARK    2  A    between atoms: C_6  and  C_7 
REMARK    3  A    between atoms: C_7  and  C_8 
REMARK    4  A    between atoms: N_17  and  C_18 
REMARK    5  A    between atoms: C_18  and  C_19 
REMARK    6  A    between atoms: C_19  and  O_20 
REMARK    7  A    between atoms: C_19  and  C_21 
REMARK    8  A    between atoms: C_21  and  O_22 
ROOT
HETATM    1  C   UNL     1     -41.102 -50.473  11.839  1.00  0.00     0.088 A 
HETATM    2  N   UNL     1     -42.321 -49.971  11.802  1.00  0.00    -0.344 N 
ATOM      3  HN  UNL     1     -43.194 -50.472  11.968  1.00  0.00     0.167 HD
HETATM    4  C   UNL     1     -42.181 -48.647  11.496  1.00  0.00     0.060 A 
HETATM    5  C   UNL     1     -43.176 -47.691  11.248  1.00  0.00     0.032 A 
HETATM    6  C   UNL     1     -42.796 -46.385  10.930  1.00  0.00     0.002 A 
HETATM    7  C   UNL     1     -41.448 -46.039  10.859  1.00  0.00     0.002 A 
HETATM    8  C   UNL     1     -40.440 -46.987  11.085  1.00  0.00     0.032 A 
HETATM    9  C   UNL     1     -40.838 -48.294  11.403  1.00  0.00     0.062 A 
HETATM   10  N   UNL     1     -40.157 -49.472  11.650  1.00  0.00    -0.332 N 
ENDROOT
BRANCH   1  11
HETATM   11  C   UNL     1     -40.833 -51.950  11.903  1.00  0.00     0.115 C 
BRANCH  11  12
HETATM   12  C   UNL     1     -41.777 -52.806  12.718  1.00  0.00    -0.051 A 
HETATM   13  C   UNL     1     -41.452 -53.348  13.967  1.00  0.00     0.010 A 
HETATM   14  C   UNL     1     -42.361 -54.172  14.649  1.00  0.00     0.037 A 
HETATM   15  C   UNL     1     -43.617 -54.438  14.103  1.00  0.00     0.068 A 
HETATM   16  C   UNL     1     -43.979 -53.825  12.906  1.00  0.00     0.037 A 
HETATM   17  C   UNL     1     -43.074 -53.013  12.222  1.00  0.00     0.010 A 
BRANCH  15  18
HETATM   18  O   UNL     1     -44.576 -55.258  14.628  1.00  0.00    -0.356 OA
HETATM   19  C   UNL     1     -45.855 -55.239  14.010  1.00  0.00     0.210 C 
ENDBRANCH  15  18
ENDBRANCH  11  12
ENDBRANCH   1  11
BRANCH  10  20
HETATM   20  C   UNL     1     -38.720 -49.654  11.512  1.00  0.00     0.164 C 
BRANCH  20  21
HETATM   21  C   UNL     1     -37.906 -49.604  12.819  1.00  0.00     0.160 C 
BRANCH  21  22
HETATM   22  O   UNL     1     -38.623 -48.965  13.881  1.00  0.00    -0.392 OA
HETATM   23  H   UNL     1     -39.051 -48.165  13.518  1.00  0.00     0.210 HD
ENDBRANCH  21  22
BRANCH  21  24
HETATM   24  C   UNL     1     -37.541 -51.024  13.279  1.00  0.00     0.197 C 
BRANCH  24  25
HETATM   25  O   UNL     1     -36.856 -51.721  12.241  1.00  0.00    -0.398 OA
HETATM   26  H   UNL     1     -35.990 -51.286  12.136  1.00  0.00     0.209 HD
ENDBRANCH  24  25
ENDBRANCH  21  24
ENDBRANCH  20  21
ENDBRANCH  10  20
TORSDOF 8
ENDMDL
MODEL 6
REMARK VINA RESULT:      -6.0      2.558      7.254
REMARK  8 active torsions:
REMARK  status: ('A' for Active; 'I' for Inactive)
REMARK    1  A    between atoms: O_2  and  C_3 
REMARK    2  A    between atoms: C_6  and  C_7 
REMARK    3  A    between atoms: C_7  and  C_8 
REMARK    4  A    between atoms: N_17  and  C_18 
REMARK    5  A    between atoms: C_18  and  C_19 
REMARK    6  A    between atoms: C_19  and  O_20 
REMARK    7  A    between atoms: C_19  and  C_21 
REMARK    8  A    between atoms: C_21  and  O_22 
ROOT
HETATM    1  C   UNL     1     -41.440 -52.495  12.260  1.00  0.00     0.088 A 
HETATM    2  N   UNL     1     -40.496 -51.704  11.788  1.00  0.00    -0.344 N 
ATOM      3  HN  UNL     1     -39.601 -51.990  11.391  1.00  0.00     0.167 HD
HETATM    4  C   UNL     1     -40.957 -50.427  11.935  1.00  0.00     0.060 A 
HETATM    5  C   UNL     1     -40.297 -49.218  11.674  1.00  0.00     0.032 A 
HETATM    6  C   UNL     1     -40.964 -48.015  11.922  1.00  0.00     0.002 A 
HETATM    7  C   UNL     1     -42.265 -48.020  12.422  1.00  0.00     0.002 A 
HETATM    8  C   UNL     1     -42.932 -49.219  12.707  1.00  0.00     0.032 A 
HETATM    9  C   UNL     1     -42.249 -50.418  12.453  1.00  0.00     0.062 A 
HETATM   10  N   UNL     1     -42.554 -51.754  12.634  1.00  0.00    -0.332 N 
ENDROOT
BRANCH   1  11
HETATM   11  C   UNL     1     -41.224 -53.962  12.504  1.00  0.00     0.115 C 
BRANCH  11  12
HETATM   12  C   UNL     1     -40.636 -54.379  13.835  1.00  0.00    -0.051 A 
HETATM   13  C   UNL     1     -39.263 -54.517  14.068  1.00  0.00     0.010 A 
HETATM   14  C   UNL     1     -38.789 -54.952  15.316  1.00  0.00     0.037 A 
HETATM   15  C   UNL     1     -39.681 -55.222  16.353  1.00  0.00     0.068 A 
HETATM   16  C   UNL     1     -41.041 -54.996  16.154  1.00  0.00     0.037 A 
HETATM   17  C   UNL     1     -41.515 -54.573  14.912  1.00  0.00     0.010 A 
BRANCH  15  18
HETATM   18  O   UNL     1     -39.367 -55.699  17.595  1.00  0.00    -0.356 OA
HETATM   19  C   UNL     1     -38.991 -57.066  17.689  1.00  0.00     0.210 C 
ENDBRANCH  15  18
ENDBRANCH  11  12
ENDBRANCH   1  11
BRANCH  10  20
HETATM   20  C   UNL     1     -43.744 -52.259  13.302  1.00  0.00     0.164 C 
BRANCH  20  21
HETATM   21  C   UNL     1     -44.754 -53.004  12.407  1.00  0.00     0.160 C 
BRANCH  21  22
HETATM   22  O   UNL     1     -44.836 -54.397  12.727  1.00  0.00    -0.392 OA
HETATM   23  H   UNL     1     -43.933 -54.718  12.917  1.00  0.00     0.210 HD
ENDBRANCH  21  22
BRANCH  21  24
HETATM   24  C   UNL     1     -46.156 -52.398  12.561  1.00  0.00     0.197 C 
BRANCH  24  25
HETATM   25  O   UNL     1     -46.852 -52.435  11.317  1.00  0.00    -0.398 OA
HETATM   26  H   UNL     1     -47.783 -52.640  11.523  1.00  0.00     0.209 HD
ENDBRANCH  24  25
ENDBRANCH  21  24
ENDBRANCH  20  21
ENDBRANCH  10  20
TORSDOF 8
ENDMDL
MODEL 7
REMARK VINA RESULT:      -5.9      1.909      2.582
REMARK  8 active torsions:
REMARK  status: ('A' for Active; 'I' for Inactive)
REMARK    1  A    between atoms: O_2  and  C_3 
REMARK    2  A    between atoms: C_6  and  C_7 
REMARK    3  A    between atoms: C_7  and  C_8 
REMARK    4  A    between atoms: N_17  and  C_18 
REMARK    5  A    between atoms: C_18  and  C_19 
REMARK    6  A    between atoms: C_19  and  O_20 
REMARK    7  A    between atoms: C_19  and  C_21 
REMARK    8  A    between atoms: C_21  and  O_22 
ROOT
HETATM    1  C   UNL     1     -42.686 -50.254  13.464  1.00  0.00     0.088 A 
HETATM    2  N   UNL     1     -43.863 -50.007  14.005  1.00  0.00    -0.344 N 
ATOM      3  HN  UNL     1     -44.158 -49.143  14.461  1.00  0.00     0.167 HD
HETATM    4  C   UNL     1     -44.609 -51.138  13.833  1.00  0.00     0.060 A 
HETATM    5  C   UNL     1     -45.896 -51.425  14.309  1.00  0.00     0.032 A 
HETATM    6  C   UNL     1     -46.461 -52.671  14.024  1.00  0.00     0.002 A 
HETATM    7  C   UNL     1     -45.754 -53.614  13.281  1.00  0.00     0.002 A 
HETATM    8  C   UNL     1     -44.459 -53.352  12.815  1.00  0.00     0.032 A 
HETATM    9  C   UNL     1     -43.905 -52.096  13.108  1.00  0.00     0.062 A 
HETATM   10  N   UNL     1     -42.681 -51.504  12.857  1.00  0.00    -0.332 N 
ENDROOT
BRANCH   1  11
HETATM   11  C   UNL     1     -41.498 -49.353  13.657  1.00  0.00     0.115 C 
BRANCH  11  12
HETATM   12  C   UNL     1     -41.366 -48.152  12.747  1.00  0.00    -0.051 A 
HETATM   13  C   UNL     1     -42.356 -47.171  12.607  1.00  0.00     0.010 A 
HETATM   14  C   UNL     1     -42.185 -46.106  11.709  1.00  0.00     0.037 A 
HETATM   15  C   UNL     1     -41.011 -45.992  10.964  1.00  0.00     0.068 A 
HETATM   16  C   UNL     1     -39.987 -46.914  11.170  1.00  0.00     0.037 A 
HETATM   17  C   UNL     1     -40.157 -47.978  12.055  1.00  0.00     0.010 A 
BRANCH  15  18
HETATM   18  O   UNL     1     -40.733 -45.043  10.021  1.00  0.00    -0.356 OA
HETATM   19  C   UNL     1     -39.370 -44.682   9.846  1.00  0.00     0.210 C 
ENDBRANCH  15  18
ENDBRANCH  11  12
ENDBRANCH   1  11
BRANCH  10  20
HETATM   20  C   UNL     1     -41.534 -52.170  12.260  1.00  0.00     0.164 C 
BRANCH  20  21
HETATM   21  C   UNL     1     -41.005 -53.406  13.013  1.00  0.00     0.160 C 
BRANCH  21  22
HETATM   22  O   UNL     1     -40.829 -54.534  12.149  1.00  0.00    -0.392 OA
HETATM   23  H   UNL     1     -40.280 -55.192  12.618  1.00  0.00     0.210 HD
ENDBRANCH  21  22
BRANCH  21  24
HETATM   24  C   UNL     1     -39.652 -53.094  13.670  1.00  0.00     0.197 C 
BRANCH  24  25
HETATM   25  O   UNL     1     -38.728 -54.153  13.429  1.00  0.00    -0.398 OA
HETATM   26  H   UNL     1     -37.840 -53.799  13.623  1.00  0.00     0.209 HD
ENDBRANCH  24  25
ENDBRANCH  21  24
ENDBRANCH  20  21
ENDBRANCH  10  20
TORSDOF 8
ENDMDL
MODEL 8
REMARK VINA RESULT:      -5.9      3.472      5.855
REMARK  8 active torsions:
REMARK  status: ('A' for Active; 'I' for Inactive)
REMARK    1  A    between atoms: O_2  and  C_3 
REMARK    2  A    between atoms: C_6  and  C_7 
REMARK    3  A    between atoms: C_7  and  C_8 
REMARK    4  A    between atoms: N_17  and  C_18 
REMARK    5  A    between atoms: C_18  and  C_19 
REMARK    6  A    between atoms: C_19  and  O_20 
REMARK    7  A    between atoms: C_19  and  C_21 
REMARK    8  A    between atoms: C_21  and  O_22 
ROOT
HETATM    1  C   UNL     1     -42.978 -50.692  12.958  1.00  0.00     0.088 A 
HETATM    2  N   UNL     1     -43.111 -49.544  12.324  1.00  0.00    -0.344 N 
ATOM      3  HN  UNL     1     -43.984 -49.098  12.042  1.00  0.00     0.167 HD
HETATM    4  C   UNL     1     -41.847 -49.071  12.120  1.00  0.00     0.060 A 
HETATM    5  C   UNL     1     -41.436 -47.933  11.409  1.00  0.00     0.032 A 
HETATM    6  C   UNL     1     -40.071 -47.651  11.313  1.00  0.00     0.002 A 
HETATM    7  C   UNL     1     -39.133 -48.489  11.913  1.00  0.00     0.002 A 
HETATM    8  C   UNL     1     -39.524 -49.641  12.609  1.00  0.00     0.032 A 
HETATM    9  C   UNL     1     -40.899 -49.910  12.698  1.00  0.00     0.062 A 
HETATM   10  N   UNL     1     -41.643 -50.935  13.253  1.00  0.00    -0.332 N 
ENDROOT
BRANCH   1  11
HETATM   11  C   UNL     1     -44.121 -51.650  13.153  1.00  0.00     0.115 C 
BRANCH  11  12
HETATM   12  C   UNL     1     -45.043 -51.420  14.330  1.00  0.00    -0.051 A 
HETATM   13  C   UNL     1     -46.384 -51.824  14.356  1.00  0.00     0.010 A 
HETATM   14  C   UNL     1     -47.196 -51.537  15.465  1.00  0.00     0.037 A 
HETATM   15  C   UNL     1     -46.668 -50.872  16.572  1.00  0.00     0.068 A 
HETATM   16  C   UNL     1     -45.313 -50.552  16.587  1.00  0.00     0.037 A 
HETATM   17  C   UNL     1     -44.506 -50.828  15.484  1.00  0.00     0.010 A 
BRANCH  15  18
HETATM   18  O   UNL     1     -47.351 -50.484  17.690  1.00  0.00    -0.356 OA
HETATM   19  C   UNL     1     -46.590 -49.931  18.755  1.00  0.00     0.210 C 
ENDBRANCH  15  18
ENDBRANCH  11  12
ENDBRANCH   1  11
BRANCH  10  20
HETATM   20  C   UNL     1     -41.093 -52.147  13.841  1.00  0.00     0.164 C 
BRANCH  20  21
HETATM   21  C   UNL     1     -41.070 -53.388  12.927  1.00  0.00     0.160 C 
BRANCH  21  22
HETATM   22  O   UNL     1     -40.557 -53.092  11.623  1.00  0.00    -0.392 OA
HETATM   23  H   UNL     1     -40.360 -52.136  11.585  1.00  0.00     0.210 HD
ENDBRANCH  21  22
BRANCH  21  24
HETATM   24  C   UNL     1     -40.196 -54.491  13.542  1.00  0.00     0.197 C 
BRANCH  24  25
HETATM   25  O   UNL     1     -38.815 -54.203  13.338  1.00  0.00    -0.398 OA
HETATM   26  H   UNL     1     -38.565 -53.536  14.004  1.00  0.00     0.209 HD
ENDBRANCH  24  25
ENDBRANCH  21  24
ENDBRANCH  20  21
ENDBRANCH  10  20
TORSDOF 8
ENDMDL
MODEL 9
REMARK VINA RESULT:      -5.7      2.860      6.576
REMARK  8 active torsions:
REMARK  status: ('A' for Active; 'I' for Inactive)
REMARK    1  A    between atoms: O_2  and  C_3 
REMARK    2  A    between atoms: C_6  and  C_7 
REMARK    3  A    between atoms: C_7  and  C_8 
REMARK    4  A    between atoms: N_17  and  C_18 
REMARK    5  A    between atoms: C_18  and  C_19 
REMARK    6  A    between atoms: C_19  and  O_20 
REMARK    7  A    between atoms: C_19  and  C_21 
REMARK    8  A    between atoms: C_21  and  O_22 
ROOT
HETATM    1  C   UNL     1     -43.355 -54.284  15.214  1.00  0.00     0.088 A 
HETATM    2  N   UNL     1     -44.239 -53.971  16.141  1.00  0.00    -0.344 N 
ATOM      3  HN  UNL     1     -44.274 -54.325  17.097  1.00  0.00     0.167 HD
HETATM    4  C   UNL     1     -45.097 -53.078  15.566  1.00  0.00     0.060 A 
HETATM    5  C   UNL     1     -46.264 -52.512  16.098  1.00  0.00     0.032 A 
HETATM    6  C   UNL     1     -47.006 -51.626  15.311  1.00  0.00     0.002 A 
HETATM    7  C   UNL     1     -46.592 -51.314  14.018  1.00  0.00     0.002 A 
HETATM    8  C   UNL     1     -45.440 -51.886  13.464  1.00  0.00     0.032 A 
HETATM    9  C   UNL     1     -44.705 -52.773  14.266  1.00  0.00     0.062 A 
HETATM   10  N   UNL     1     -43.570 -53.537  14.063  1.00  0.00    -0.332 N 
ENDROOT
BRANCH   1  11
HETATM   11  C   UNL     1     -42.383 -55.421  15.368  1.00  0.00     0.115 C 
BRANCH  11  12
HETATM   12  C   UNL     1     -41.095 -55.154  16.115  1.00  0.00    -0.051 A 
HETATM   13  C   UNL     1     -40.374 -56.141  16.797  1.00  0.00     0.010 A 
HETATM   14  C   UNL     1     -39.208 -55.813  17.508  1.00  0.00     0.037 A 
HETATM   15  C   UNL     1     -38.734 -54.501  17.517  1.00  0.00     0.068 A 
HETATM   16  C   UNL     1     -39.396 -53.536  16.763  1.00  0.00     0.037 A 
HETATM   17  C   UNL     1     -40.559 -53.857  16.063  1.00  0.00     0.010 A 
BRANCH  15  18
HETATM   18  O   UNL     1     -37.650 -54.032  18.204  1.00  0.00    -0.356 OA
HETATM   19  C   UNL     1     -36.487 -54.849  18.217  1.00  0.00     0.210 C 
ENDBRANCH  15  18
ENDBRANCH  11  12
ENDBRANCH   1  11
BRANCH  10  20
HETATM   20  C   UNL     1     -42.875 -53.684  12.793  1.00  0.00     0.164 C 
BRANCH  20  21
HETATM   21  C   UNL     1     -41.545 -52.918  12.660  1.00  0.00     0.160 C 
BRANCH  21  22
HETATM   22  O   UNL     1     -40.659 -53.529  11.718  1.00  0.00    -0.392 OA
HETATM   23  H   UNL     1     -41.196 -54.048  11.088  1.00  0.00     0.210 HD
ENDBRANCH  21  22
BRANCH  21  24
HETATM   24  C   UNL     1     -41.802 -51.474  12.205  1.00  0.00     0.197 C 
BRANCH  24  25
HETATM   25  O   UNL     1     -40.925 -51.127  11.135  1.00  0.00    -0.398 OA
HETATM   26  H   UNL     1     -40.601 -50.226  11.319  1.00  0.00     0.209 HD
ENDBRANCH  24  25
ENDBRANCH  21  24
ENDBRANCH  20  21
ENDBRANCH  10  20
TORSDOF 8
ENDMDL
