MODEL 1
REMARK VINA RESULT:      -7.0      0.000      0.000
REMARK  3 active torsions:
REMARK  status: ('A' for Active; 'I' for Inactive)
REMARK       I    between atoms: C_2  and  N_3 
REMARK       I    between atoms: C_2  and  N_18 
REMARK    1  A    between atoms: N_3  and  C_4 
REMARK    2  A    between atoms: C_7  and  C_10 
REMARK       I    between atoms: C_10  and  N_12 
REMARK    3  A    between atoms: N_18  and  C_19 
ROOT
HETATM    1  C   UNL     1     -40.986 -45.725  10.588  1.00  0.00     0.086 C 
HETATM    2  C   UNL     1     -39.758 -44.803  10.583  1.00  0.00     0.026 C 
HETATM    3  C   UNL     1     -39.414 -44.162  11.924  1.00  0.00     0.016 C 
HETATM    4  C   UNL     1     -40.617 -43.479  12.573  1.00  0.00     0.078 C 
HETATM    5  C   UNL     1     -41.747 -44.494  12.769  1.00  0.00     0.016 C 
HETATM    6  C   UNL     1     -42.132 -45.298  11.525  1.00  0.00     0.026 C 
ENDROOT
BRANCH   1   7
HETATM    7  N   UNL     1     -40.617 -47.135  10.715  1.00  0.00    -0.338 N 
HETATM    8  C   UNL     1     -41.394 -48.189  10.407  1.00  0.00     0.322 C 
HETATM    9  O   UNL     1     -42.508 -48.096   9.896  1.00  0.00    -0.247 OA
HETATM   10  N   UNL     1     -40.916 -49.435  10.648  1.00  0.00    -0.295 N 
HETATM   11  H   UNL     1     -41.560 -50.139  10.321  1.00  0.00     0.172 HD
HETATM   12  H   UNL     1     -39.745 -47.370  11.183  1.00  0.00     0.164 HD
BRANCH  10  13
HETATM   13  C   UNL     1     -39.787 -49.874  11.339  1.00  0.00     0.108 A 
HETATM   14  C   UNL     1     -39.980 -50.227  12.672  1.00  0.00     0.049 A 
HETATM   15  C   UNL     1     -38.888 -50.603  13.447  1.00  0.00     0.005 A 
HETATM   16  C   UNL     1     -37.630 -50.630  12.867  1.00  0.00     0.017 A 
HETATM   17  C   UNL     1     -37.525 -50.282  11.526  1.00  0.00     0.089 A 
HETATM   18  N   UNL     1     -38.572 -49.907  10.748  1.00  0.00    -0.352 N 
ATOM     19  HN  UNL     1     -38.448 -49.662   9.766  1.00  0.00     0.166 HD
ENDBRANCH  10  13
ENDBRANCH   1   7
BRANCH   4  20
HETATM   20  C   UNL     1     -41.071 -42.232  11.796  1.00  0.00     0.224 C 
HETATM   21  O   UNL     1     -41.570 -42.341  10.673  1.00  0.00    -0.273 OA
HETATM   22  N   UNL     1     -40.890 -40.984  12.380  1.00  0.00    -0.350 N 
HETATM   23  C   UNL     1     -41.473 -39.801  11.727  1.00  0.00     0.136 C 
HETATM   24  C   UNL     1     -40.146 -40.707  13.615  1.00  0.00     0.136 C 
HETATM   25  C   UNL     1     -40.429 -38.766  11.306  1.00  0.00     0.093 C 
HETATM   26  S   UNL     1     -39.431 -38.178  12.717  1.00  0.00    -0.166 SA
HETATM   27  C   UNL     1     -38.932 -39.811  13.356  1.00  0.00     0.093 C 
ENDBRANCH   4  20
TORSDOF 3
ENDMDL
MODEL 2
REMARK VINA RESULT:      -6.6      6.077      9.877
REMARK  3 active torsions:
REMARK  status: ('A' for Active; 'I' for Inactive)
REMARK       I    between atoms: C_2  and  N_3 
REMARK       I    between atoms: C_2  and  N_18 
REMARK    1  A    between atoms: N_3  and  C_4 
REMARK    2  A    between atoms: C_7  and  C_10 
REMARK       I    between atoms: C_10  and  N_12 
REMARK    3  A    between atoms: N_18  and  C_19 
ROOT
HETATM    1  C   UNL     1     -41.430 -49.693  12.144  1.00  0.00     0.086 C 
HETATM    2  C   UNL     1     -41.000 -51.117  11.765  1.00  0.00     0.026 C 
HETATM    3  C   UNL     1     -41.987 -52.221  12.132  1.00  0.00     0.016 C 
HETATM    4  C   UNL     1     -42.433 -52.146  13.592  1.00  0.00     0.078 C 
HETATM    5  C   UNL     1     -43.068 -50.780  13.872  1.00  0.00     0.016 C 
HETATM    6  C   UNL     1     -42.232 -49.568  13.453  1.00  0.00     0.026 C 
ENDROOT
BRANCH   1   7
HETATM    7  N   UNL     1     -42.032 -48.981  11.016  1.00  0.00    -0.338 N 
HETATM    8  C   UNL     1     -41.660 -47.773  10.552  1.00  0.00     0.322 C 
HETATM    9  O   UNL     1     -40.699 -47.139  10.978  1.00  0.00    -0.247 OA
HETATM   10  N   UNL     1     -42.371 -47.228   9.534  1.00  0.00    -0.295 N 
HETATM   11  H   UNL     1     -41.962 -46.355   9.234  1.00  0.00     0.172 HD
HETATM   12  H   UNL     1     -42.881 -49.355  10.600  1.00  0.00     0.164 HD
BRANCH  10  13
HETATM   13  C   UNL     1     -43.575 -47.606   8.940  1.00  0.00     0.108 A 
HETATM   14  C   UNL     1     -44.727 -47.390   9.695  1.00  0.00     0.049 A 
HETATM   15  C   UNL     1     -45.957 -47.809   9.201  1.00  0.00     0.005 A 
HETATM   16  C   UNL     1     -46.010 -48.423   7.960  1.00  0.00     0.017 A 
HETATM   17  C   UNL     1     -44.819 -48.583   7.263  1.00  0.00     0.089 A 
HETATM   18  N   UNL     1     -43.605 -48.188   7.721  1.00  0.00    -0.352 N 
ATOM     19  HN  UNL     1     -42.755 -48.325   7.174  1.00  0.00     0.166 HD
ENDBRANCH  10  13
ENDBRANCH   1   7
BRANCH   4  20
HETATM   20  C   UNL     1     -41.293 -52.479  14.569  1.00  0.00     0.224 C 
HETATM   21  O   UNL     1     -40.160 -52.030  14.386  1.00  0.00    -0.273 OA
HETATM   22  N   UNL     1     -41.567 -53.311  15.649  1.00  0.00    -0.350 N 
HETATM   23  C   UNL     1     -40.536 -53.498  16.682  1.00  0.00     0.136 C 
HETATM   24  C   UNL     1     -42.812 -54.055  15.873  1.00  0.00     0.136 C 
HETATM   25  C   UNL     1     -40.079 -54.950  16.824  1.00  0.00     0.093 C 
HETATM   26  S   UNL     1     -41.463 -56.074  17.219  1.00  0.00    -0.166 SA
HETATM   27  C   UNL     1     -42.578 -55.567  15.869  1.00  0.00     0.093 C 
ENDBRANCH   4  20
TORSDOF 3
ENDMDL
MODEL 3
REMARK VINA RESULT:      -6.4      6.309      9.952
REMARK  3 active torsions:
REMARK  status: ('A' for Active; 'I' for Inactive)
REMARK       I    between atoms: C_2  and  N_3 
REMARK       I    between atoms: C_2  and  N_18 
REMARK    1  A    between atoms: N_3  and  C_4 
REMARK    2  A    between atoms: C_7  and  C_10 
REMARK       I    between atoms: C_10  and  N_12 
REMARK    3  A    between atoms: N_18  and  C_19 
ROOT
HETATM    1  C   UNL     1     -42.640 -51.058  12.942  1.00  0.00     0.086 C 
HETATM    2  C   UNL     1     -43.878 -51.910  12.628  1.00  0.00     0.026 C 
HETATM    3  C   UNL     1     -45.181 -51.434  13.264  1.00  0.00     0.016 C 
HETATM    4  C   UNL     1     -45.044 -51.186  14.765  1.00  0.00     0.078 C 
HETATM    5  C   UNL     1     -43.943 -50.152  15.024  1.00  0.00     0.016 C 
HETATM    6  C   UNL     1     -42.598 -50.444  14.354  1.00  0.00     0.026 C 
ENDROOT
BRANCH   1   7
HETATM    7  N   UNL     1     -42.345 -50.101  11.875  1.00  0.00    -0.338 N 
HETATM    8  C   UNL     1     -41.124 -49.803  11.392  1.00  0.00     0.322 C 
HETATM    9  O   UNL     1     -40.090 -50.366  11.743  1.00  0.00    -0.247 OA
HETATM   10  N   UNL     1     -41.024 -48.840  10.443  1.00  0.00    -0.295 N 
HETATM   11  H   UNL     1     -40.073 -48.749  10.118  1.00  0.00     0.172 HD
HETATM   12  H   UNL     1     -43.096 -49.510  11.528  1.00  0.00     0.164 HD
BRANCH  10  13
HETATM   13  C   UNL     1     -41.957 -47.928   9.949  1.00  0.00     0.108 A 
HETATM   14  C   UNL     1     -42.100 -46.744  10.670  1.00  0.00     0.049 A 
HETATM   15  C   UNL     1     -43.064 -45.819  10.282  1.00  0.00     0.005 A 
HETATM   16  C   UNL     1     -43.851 -46.092   9.176  1.00  0.00     0.017 A 
HETATM   17  C   UNL     1     -43.631 -47.286   8.500  1.00  0.00     0.089 A 
HETATM   18  N   UNL     1     -42.703 -48.208   8.858  1.00  0.00    -0.352 N 
ATOM     19  HN  UNL     1     -42.575 -49.072   8.331  1.00  0.00     0.166 HD
ENDBRANCH  10  13
ENDBRANCH   1   7
BRANCH   4  20
HETATM   20  C   UNL     1     -44.828 -52.488  15.555  1.00  0.00     0.224 C 
HETATM   21  O   UNL     1     -44.377 -53.491  14.998  1.00  0.00    -0.273 OA
HETATM   22  N   UNL     1     -45.172 -52.511  16.902  1.00  0.00    -0.350 N 
HETATM   23  C   UNL     1     -44.813 -53.689  17.707  1.00  0.00     0.136 C 
HETATM   24  C   UNL     1     -45.886 -51.456  17.631  1.00  0.00     0.136 C 
HETATM   25  C   UNL     1     -46.025 -54.406  18.304  1.00  0.00     0.093 C 
HETATM   26  S   UNL     1     -47.029 -53.305  19.358  1.00  0.00    -0.166 SA
HETATM   27  C   UNL     1     -47.236 -51.946  18.161  1.00  0.00     0.093 C 
ENDBRANCH   4  20
TORSDOF 3
ENDMDL
MODEL 4
REMARK VINA RESULT:      -6.3      3.638      5.241
REMARK  3 active torsions:
REMARK  status: ('A' for Active; 'I' for Inactive)
REMARK       I    between atoms: C_2  and  N_3 
REMARK       I    between atoms: C_2  and  N_18 
REMARK    1  A    between atoms: N_3  and  C_4 
REMARK    2  A    between atoms: C_7  and  C_10 
REMARK       I    between atoms: C_10  and  N_12 
REMARK    3  A    between atoms: N_18  and  C_19 
ROOT
HETATM    1  C   UNL     1     -40.386 -49.788  12.566  1.00  0.00     0.086 C 
HETATM    2  C   UNL     1     -40.888 -48.682  13.506  1.00  0.00     0.026 C 
HETATM    3  C   UNL     1     -42.106 -47.906  13.015  1.00  0.00     0.016 C 
HETATM    4  C   UNL     1     -41.932 -47.384  11.589  1.00  0.00     0.078 C 
HETATM    5  C   UNL     1     -41.655 -48.553  10.638  1.00  0.00     0.016 C 
HETATM    6  C   UNL     1     -40.520 -49.490  11.061  1.00  0.00     0.026 C 
ENDROOT
BRANCH   1   7
HETATM    7  N   UNL     1     -40.886 -51.107  12.951  1.00  0.00    -0.338 N 
HETATM    8  C   UNL     1     -40.149 -52.226  13.085  1.00  0.00     0.322 C 
HETATM    9  O   UNL     1     -38.926 -52.261  12.971  1.00  0.00    -0.247 OA
HETATM   10  N   UNL     1     -40.785 -53.385  13.387  1.00  0.00    -0.295 N 
HETATM   11  H   UNL     1     -40.125 -54.136  13.520  1.00  0.00     0.172 HD
HETATM   12  H   UNL     1     -41.890 -51.248  13.019  1.00  0.00     0.164 HD
BRANCH  10  13
HETATM   13  C   UNL     1     -42.140 -53.711  13.432  1.00  0.00     0.108 A 
HETATM   14  C   UNL     1     -42.573 -54.381  14.574  1.00  0.00     0.049 A 
HETATM   15  C   UNL     1     -43.895 -54.806  14.659  1.00  0.00     0.005 A 
HETATM   16  C   UNL     1     -44.756 -54.539  13.607  1.00  0.00     0.017 A 
HETATM   17  C   UNL     1     -44.250 -53.847  12.513  1.00  0.00     0.089 A 
HETATM   18  N   UNL     1     -42.966 -53.426  12.401  1.00  0.00    -0.352 N 
ATOM     19  HN  UNL     1     -42.639 -52.919  11.578  1.00  0.00     0.166 HD
ENDBRANCH  10  13
ENDBRANCH   1   7
BRANCH   4  20
HETATM   20  C   UNL     1     -40.864 -46.282  11.496  1.00  0.00     0.224 C 
HETATM   21  O   UNL     1     -39.704 -46.558  11.183  1.00  0.00    -0.273 OA
HETATM   22  N   UNL     1     -41.233 -44.974  11.791  1.00  0.00    -0.350 N 
HETATM   23  C   UNL     1     -40.270 -43.890  11.540  1.00  0.00     0.136 C 
HETATM   24  C   UNL     1     -42.519 -44.544  12.353  1.00  0.00     0.136 C 
HETATM   25  C   UNL     1     -39.884 -43.120  12.804  1.00  0.00     0.093 C 
HETATM   26  S   UNL     1     -41.334 -42.387  13.637  1.00  0.00    -0.166 SA
HETATM   27  C   UNL     1     -42.349 -43.898  13.729  1.00  0.00     0.093 C 
ENDBRANCH   4  20
TORSDOF 3
ENDMDL
MODEL 5
REMARK VINA RESULT:      -5.7      3.992      8.775
REMARK  3 active torsions:
REMARK  status: ('A' for Active; 'I' for Inactive)
REMARK       I    between atoms: C_2  and  N_3 
REMARK       I    between atoms: C_2  and  N_18 
REMARK    1  A    between atoms: N_3  and  C_4 
REMARK    2  A    between atoms: C_7  and  C_10 
REMARK       I    between atoms: C_10  and  N_12 
REMARK    3  A    between atoms: N_18  and  C_19 
ROOT
HETATM    1  C   UNL     1     -42.604 -47.175  11.471  1.00  0.00     0.086 C 
HETATM    2  C   UNL     1     -42.947 -47.795  12.834  1.00  0.00     0.026 C 
HETATM    3  C   UNL     1     -41.752 -48.185  13.697  1.00  0.00     0.016 C 
HETATM    4  C   UNL     1     -40.736 -49.039  12.939  1.00  0.00     0.078 C 
HETATM    5  C   UNL     1     -40.245 -48.285  11.699  1.00  0.00     0.016 C 
HETATM    6  C   UNL     1     -41.343 -47.735  10.786  1.00  0.00     0.026 C 
ENDROOT
BRANCH   1   7
HETATM    7  N   UNL     1     -42.657 -45.713  11.502  1.00  0.00    -0.338 N 
HETATM    8  C   UNL     1     -43.047 -44.912  10.493  1.00  0.00     0.322 C 
HETATM    9  O   UNL     1     -43.491 -45.321   9.423  1.00  0.00    -0.247 OA
HETATM   10  N   UNL     1     -42.972 -43.570  10.670  1.00  0.00    -0.295 N 
HETATM   11  H   UNL     1     -43.347 -43.079   9.873  1.00  0.00     0.172 HD
HETATM   12  H   UNL     1     -42.261 -45.228  12.303  1.00  0.00     0.164 HD
BRANCH  10  13
HETATM   13  C   UNL     1     -42.390 -42.801  11.678  1.00  0.00     0.108 A 
HETATM   14  C   UNL     1     -41.066 -42.421  11.474  1.00  0.00     0.049 A 
HETATM   15  C   UNL     1     -40.394 -41.717  12.468  1.00  0.00     0.005 A 
HETATM   16  C   UNL     1     -41.066 -41.399  13.637  1.00  0.00     0.017 A 
HETATM   17  C   UNL     1     -42.392 -41.797  13.753  1.00  0.00     0.089 A 
HETATM   18  N   UNL     1     -43.070 -42.488  12.804  1.00  0.00    -0.352 N 
ATOM     19  HN  UNL     1     -44.045 -42.759  12.932  1.00  0.00     0.166 HD
ENDBRANCH  10  13
ENDBRANCH   1   7
BRANCH   4  20
HETATM   20  C   UNL     1     -41.282 -50.437  12.602  1.00  0.00     0.224 C 
HETATM   21  O   UNL     1     -42.458 -50.584  12.262  1.00  0.00    -0.273 OA
HETATM   22  N   UNL     1     -40.426 -51.527  12.709  1.00  0.00    -0.350 N 
HETATM   23  C   UNL     1     -40.883 -52.840  12.227  1.00  0.00     0.136 C 
HETATM   24  C   UNL     1     -39.073 -51.511  13.278  1.00  0.00     0.136 C 
HETATM   25  C   UNL     1     -40.931 -53.904  13.324  1.00  0.00     0.093 C 
HETATM   26  S   UNL     1     -39.307 -54.146  14.123  1.00  0.00    -0.166 SA
HETATM   27  C   UNL     1     -38.971 -52.400  14.521  1.00  0.00     0.093 C 
ENDBRANCH   4  20
TORSDOF 3
ENDMDL
MODEL 6
REMARK VINA RESULT:      -5.7      4.194      8.892
REMARK  3 active torsions:
REMARK  status: ('A' for Active; 'I' for Inactive)
REMARK       I    between atoms: C_2  and  N_3 
REMARK       I    between atoms: C_2  and  N_18 
REMARK    1  A    between atoms: N_3  and  C_4 
REMARK    2  A    between atoms: C_7  and  C_10 
REMARK       I    between atoms: C_10  and  N_12 
REMARK    3  A    between atoms: N_18  and  C_19 
ROOT
HETATM    1  C   UNL     1     -40.385 -46.969  11.369  1.00  0.00     0.086 C 
HETATM    2  C   UNL     1     -41.444 -47.839  10.675  1.00  0.00     0.026 C 
HETATM    3  C   UNL     1     -42.528 -48.405  11.586  1.00  0.00     0.016 C 
HETATM    4  C   UNL     1     -41.952 -49.107  12.815  1.00  0.00     0.078 C 
HETATM    5  C   UNL     1     -41.077 -48.132  13.609  1.00  0.00     0.016 C 
HETATM    6  C   UNL     1     -40.005 -47.401  12.798  1.00  0.00     0.026 C 
ENDROOT
BRANCH   1   7
HETATM    7  N   UNL     1     -40.676 -45.541  11.244  1.00  0.00    -0.338 N 
HETATM    8  C   UNL     1     -39.988 -44.653  10.502  1.00  0.00     0.322 C 
HETATM    9  O   UNL     1     -39.055 -44.953   9.762  1.00  0.00    -0.247 OA
HETATM   10  N   UNL     1     -40.357 -43.350  10.551  1.00  0.00    -0.295 N 
HETATM   11  H   UNL     1     -39.809 -42.794   9.911  1.00  0.00     0.172 HD
HETATM   12  H   UNL     1     -41.385 -45.133  11.848  1.00  0.00     0.164 HD
BRANCH  10  13
HETATM   13  C   UNL     1     -41.249 -42.672  11.382  1.00  0.00     0.108 A 
HETATM   14  C   UNL     1     -40.722 -42.165  12.568  1.00  0.00     0.049 A 
HETATM   15  C   UNL     1     -41.566 -41.542  13.481  1.00  0.00     0.005 A 
HETATM   16  C   UNL     1     -42.914 -41.430  13.183  1.00  0.00     0.017 A 
HETATM   17  C   UNL     1     -43.356 -41.943  11.970  1.00  0.00     0.089 A 
HETATM   18  N   UNL     1     -42.558 -42.559  11.063  1.00  0.00    -0.352 N 
ATOM     19  HN  UNL     1     -42.927 -42.920  10.183  1.00  0.00     0.166 HD
ENDBRANCH  10  13
ENDBRANCH   1   7
BRANCH   4  20
HETATM   20  C   UNL     1     -41.212 -50.405  12.453  1.00  0.00     0.224 C 
HETATM   21  O   UNL     1     -40.607 -50.504  11.383  1.00  0.00    -0.273 OA
HETATM   22  N   UNL     1     -41.256 -51.467  13.350  1.00  0.00    -0.350 N 
HETATM   23  C   UNL     1     -40.414 -52.647  13.098  1.00  0.00     0.136 C 
HETATM   24  C   UNL     1     -42.087 -51.544  14.557  1.00  0.00     0.136 C 
HETATM   25  C   UNL     1     -41.218 -53.934  12.912  1.00  0.00     0.093 C 
HETATM   26  S   UNL     1     -42.269 -54.308  14.358  1.00  0.00    -0.166 SA
HETATM   27  C   UNL     1     -43.099 -52.690  14.477  1.00  0.00     0.093 C 
ENDBRANCH   4  20
TORSDOF 3
ENDMDL
MODEL 7
REMARK VINA RESULT:      -5.6      5.617      7.712
REMARK  3 active torsions:
REMARK  status: ('A' for Active; 'I' for Inactive)
REMARK       I    between atoms: C_2  and  N_3 
REMARK       I    between atoms: C_2  and  N_18 
REMARK    1  A    between atoms: N_3  and  C_4 
REMARK    2  A    between atoms: C_7  and  C_10 
REMARK       I    between atoms: C_10  and  N_12 
REMARK    3  A    between atoms: N_18  and  C_19 
ROOT
HETATM    1  C   UNL     1     -37.555 -48.504  13.849  1.00  0.00     0.086 C 
HETATM    2  C   UNL     1     -37.128 -49.643  14.786  1.00  0.00     0.026 C 
HETATM    3  C   UNL     1     -37.705 -49.586  16.197  1.00  0.00     0.016 C 
HETATM    4  C   UNL     1     -37.506 -48.222  16.856  1.00  0.00     0.078 C 
HETATM    5  C   UNL     1     -38.150 -47.130  15.997  1.00  0.00     0.016 C 
HETATM    6  C   UNL     1     -37.745 -47.130  14.521  1.00  0.00     0.026 C 
ENDROOT
BRANCH   1   7
HETATM    7  N   UNL     1     -38.666 -48.892  12.981  1.00  0.00    -0.338 N 
HETATM    8  C   UNL     1     -38.564 -49.537  11.803  1.00  0.00     0.322 C 
HETATM    9  O   UNL     1     -37.507 -49.956  11.339  1.00  0.00    -0.247 OA
HETATM   10  N   UNL     1     -39.696 -49.763  11.092  1.00  0.00    -0.295 N 
HETATM   11  H   UNL     1     -39.501 -50.304  10.263  1.00  0.00     0.172 HD
HETATM   12  H   UNL     1     -39.601 -48.558  13.204  1.00  0.00     0.164 HD
BRANCH  10  13
HETATM   13  C   UNL     1     -41.001 -49.298  11.259  1.00  0.00     0.108 A 
HETATM   14  C   UNL     1     -41.385 -48.238  10.441  1.00  0.00     0.049 A 
HETATM   15  C   UNL     1     -42.645 -47.672  10.600  1.00  0.00     0.005 A 
HETATM   16  C   UNL     1     -43.496 -48.186  11.564  1.00  0.00     0.017 A 
HETATM   17  C   UNL     1     -43.045 -49.257  12.325  1.00  0.00     0.089 A 
HETATM   18  N   UNL     1     -41.821 -49.826  12.195  1.00  0.00    -0.352 N 
ATOM     19  HN  UNL     1     -41.532 -50.614  12.775  1.00  0.00     0.166 HD
ENDBRANCH  10  13
ENDBRANCH   1   7
BRANCH   4  20
HETATM   20  C   UNL     1     -36.028 -47.934  17.167  1.00  0.00     0.224 C 
HETATM   21  O   UNL     1     -35.136 -48.387  16.446  1.00  0.00    -0.273 OA
HETATM   22  N   UNL     1     -35.722 -47.169  18.287  1.00  0.00    -0.350 N 
HETATM   23  C   UNL     1     -34.330 -46.743  18.500  1.00  0.00     0.136 C 
HETATM   24  C   UNL     1     -36.669 -46.733  19.321  1.00  0.00     0.136 C 
HETATM   25  C   UNL     1     -33.727 -47.273  19.801  1.00  0.00     0.093 C 
HETATM   26  S   UNL     1     -34.688 -46.761  21.267  1.00  0.00    -0.166 SA
HETATM   27  C   UNL     1     -36.324 -47.322  20.691  1.00  0.00     0.093 C 
ENDBRANCH   4  20
TORSDOF 3
ENDMDL
MODEL 8
REMARK VINA RESULT:      -5.6      3.414      4.882
REMARK  3 active torsions:
REMARK  status: ('A' for Active; 'I' for Inactive)
REMARK       I    between atoms: C_2  and  N_3 
REMARK       I    between atoms: C_2  and  N_18 
REMARK    1  A    between atoms: N_3  and  C_4 
REMARK    2  A    between atoms: C_7  and  C_10 
REMARK       I    between atoms: C_10  and  N_12 
REMARK    3  A    between atoms: N_18  and  C_19 
ROOT
HETATM    1  C   UNL     1     -41.868 -50.362  12.158  1.00  0.00     0.086 C 
HETATM    2  C   UNL     1     -40.730 -49.903  11.235  1.00  0.00     0.026 C 
HETATM    3  C   UNL     1     -39.641 -49.067  11.900  1.00  0.00     0.016 C 
HETATM    4  C   UNL     1     -40.209 -47.898  12.703  1.00  0.00     0.078 C 
HETATM    5  C   UNL     1     -41.173 -48.421  13.772  1.00  0.00     0.016 C 
HETATM    6  C   UNL     1     -42.265 -49.367  13.265  1.00  0.00     0.026 C 
ENDROOT
BRANCH   1   7
HETATM    7  N   UNL     1     -41.669 -51.729  12.640  1.00  0.00    -0.338 N 
HETATM    8  C   UNL     1     -42.589 -52.712  12.639  1.00  0.00     0.322 C 
HETATM    9  O   UNL     1     -43.712 -52.601  12.153  1.00  0.00    -0.247 OA
HETATM   10  N   UNL     1     -42.256 -53.907  13.185  1.00  0.00    -0.295 N 
HETATM   11  H   UNL     1     -43.001 -54.577  13.071  1.00  0.00     0.172 HD
HETATM   12  H   UNL     1     -40.806 -51.954  13.129  1.00  0.00     0.164 HD
BRANCH  10  13
HETATM   13  C   UNL     1     -41.149 -54.305  13.935  1.00  0.00     0.108 A 
HETATM   14  C   UNL     1     -41.358 -54.459  15.304  1.00  0.00     0.049 A 
HETATM   15  C   UNL     1     -40.285 -54.780  16.128  1.00  0.00     0.005 A 
HETATM   16  C   UNL     1     -39.032 -54.952  15.564  1.00  0.00     0.017 A 
HETATM   17  C   UNL     1     -38.912 -54.801  14.188  1.00  0.00     0.089 A 
HETATM   18  N   UNL     1     -39.939 -54.483  13.361  1.00  0.00    -0.352 N 
ATOM     19  HN  UNL     1     -39.805 -54.383  12.355  1.00  0.00     0.166 HD
ENDBRANCH  10  13
ENDBRANCH   1   7
BRANCH   4  20
HETATM   20  C   UNL     1     -40.848 -46.826  11.804  1.00  0.00     0.224 C 
HETATM   21  O   UNL     1     -41.218 -47.107  10.662  1.00  0.00    -0.273 OA
HETATM   22  N   UNL     1     -40.979 -45.535  12.302  1.00  0.00    -0.350 N 
HETATM   23  C   UNL     1     -41.741 -44.546  11.522  1.00  0.00     0.136 C 
HETATM   24  C   UNL     1     -40.413 -45.031  13.559  1.00  0.00     0.136 C 
HETATM   25  C   UNL     1     -40.905 -43.339  11.095  1.00  0.00     0.093 C 
HETATM   26  S   UNL     1     -40.171 -42.467  12.522  1.00  0.00    -0.166 SA
HETATM   27  C   UNL     1     -39.397 -43.913  13.316  1.00  0.00     0.093 C 
ENDBRANCH   4  20
TORSDOF 3
ENDMDL
MODEL 9
REMARK VINA RESULT:      -5.6      5.686      8.792
REMARK  3 active torsions:
REMARK  status: ('A' for Active; 'I' for Inactive)
REMARK       I    between atoms: C_2  and  N_3 
REMARK       I    between atoms: C_2  and  N_18 
REMARK    1  A    between atoms: N_3  and  C_4 
REMARK    2  A    between atoms: C_7  and  C_10 
REMARK       I    between atoms: C_10  and  N_12 
REMARK    3  A    between atoms: N_18  and  C_19 
ROOT
HETATM    1  C   UNL     1     -37.520 -49.073  14.003  1.00  0.00     0.086 C 
HETATM    2  C   UNL     1     -37.686 -50.237  14.991  1.00  0.00     0.026 C 
HETATM    3  C   UNL     1     -38.324 -49.877  16.329  1.00  0.00     0.016 C 
HETATM    4  C   UNL     1     -37.651 -48.677  16.994  1.00  0.00     0.078 C 
HETATM    5  C   UNL     1     -37.708 -47.465  16.060  1.00  0.00     0.016 C 
HETATM    6  C   UNL     1     -37.198 -47.706  14.637  1.00  0.00     0.026 C 
ENDROOT
BRANCH   1   7
HETATM    7  N   UNL     1     -38.604 -49.024  13.021  1.00  0.00    -0.338 N 
HETATM    8  C   UNL     1     -38.614 -49.635  11.821  1.00  0.00     0.322 C 
HETATM    9  O   UNL     1     -37.728 -50.387  11.426  1.00  0.00    -0.247 OA
HETATM   10  N   UNL     1     -39.676 -49.431  11.004  1.00  0.00    -0.295 N 
HETATM   11  H   UNL     1     -39.599 -49.986  10.165  1.00  0.00     0.172 HD
HETATM   12  H   UNL     1     -39.381 -48.389  13.183  1.00  0.00     0.164 HD
BRANCH  10  13
HETATM   13  C   UNL     1     -40.748 -48.541  11.084  1.00  0.00     0.108 A 
HETATM   14  C   UNL     1     -41.919 -49.039  11.651  1.00  0.00     0.049 A 
HETATM   15  C   UNL     1     -43.053 -48.235  11.697  1.00  0.00     0.005 A 
HETATM   16  C   UNL     1     -42.986 -46.949  11.188  1.00  0.00     0.017 A 
HETATM   17  C   UNL     1     -41.775 -46.522  10.658  1.00  0.00     0.089 A 
HETATM   18  N   UNL     1     -40.655 -47.285  10.595  1.00  0.00    -0.352 N 
ATOM     19  HN  UNL     1     -39.786 -46.928  10.199  1.00  0.00     0.166 HD
ENDBRANCH  10  13
ENDBRANCH   1   7
BRANCH   4  20
HETATM   20  C   UNL     1     -36.221 -48.995  17.463  1.00  0.00     0.224 C 
HETATM   21  O   UNL     1     -35.257 -48.774  16.727  1.00  0.00    -0.273 OA
HETATM   22  N   UNL     1     -36.045 -49.552  18.724  1.00  0.00    -0.350 N 
HETATM   23  C   UNL     1     -34.679 -49.701  19.252  1.00  0.00     0.136 C 
HETATM   24  C   UNL     1     -37.109 -50.034  19.613  1.00  0.00     0.136 C 
HETATM   25  C   UNL     1     -34.295 -51.153  19.536  1.00  0.00     0.093 C 
HETATM   26  S   UNL     1     -35.432 -51.949  20.723  1.00  0.00    -0.166 SA
HETATM   27  C   UNL     1     -36.992 -51.537  19.875  1.00  0.00     0.093 C 
ENDBRANCH   4  20
TORSDOF 3
ENDMDL
