MODEL 1
REMARK VINA RESULT:      -6.8      0.000      0.000
REMARK  5 active torsions:
REMARK  status: ('A' for Active; 'I' for Inactive)
REMARK    1  A    between atoms: C_2  and  N_3 
REMARK    2  A    between atoms: C_2  and  C_7 
REMARK       I    between atoms: N_3  and  C_4 
REMARK       I    between atoms: C_4  and  N_6 
REMARK       I    between atoms: C_7  and  N_9 
REMARK    3  A    between atoms: N_9  and  C_10 
REMARK    4  A    between atoms: C_10  and  C_11 
REMARK    5  A    between atoms: C_14  and  N_18 
ROOT
HETATM    1  C   UNL     1     -42.184 -50.157  12.395  1.00  0.00    -0.025 A 
HETATM    2  C   UNL     1     -43.208 -49.971  13.318  1.00  0.00     0.014 A 
HETATM    3  C   UNL     1     -43.670 -51.054  14.074  1.00  0.00     0.049 A 
HETATM    4  C   UNL     1     -43.119 -52.327  13.911  1.00  0.00     0.103 A 
HETATM    5  N   UNL     1     -42.148 -52.514  12.992  1.00  0.00    -0.352 N 
ATOM      6  HN  UNL     1     -41.750 -53.441  12.843  1.00  0.00     0.166 HD
HETATM    7  C   UNL     1     -41.706 -51.452  12.267  1.00  0.00     0.098 A 
ENDROOT
BRANCH   1   8
HETATM    8  C   UNL     1     -41.621 -49.023  11.591  1.00  0.00     0.162 C 
BRANCH   8   9
HETATM    9  N   UNL     1     -42.549 -48.515  10.605  1.00  0.00    -0.355 N 
HETATM   10  C   UNL     1     -43.187 -47.304  10.799  1.00  0.00     0.240 C 
HETATM   11  O   UNL     1     -42.957 -46.589  11.775  1.00  0.00    -0.271 OA
HETATM   12  H   UNL     1     -42.782 -49.095   9.809  1.00  0.00     0.162 HD
BRANCH  10  13
HETATM   13  C   UNL     1     -44.205 -46.900   9.705  1.00  0.00     0.174 C 
HETATM   14  C   UNL     1     -43.487 -46.308   8.495  1.00  0.00     0.042 C 
BRANCH  13  15
HETATM   15  N   UNL     1     -44.973 -48.081   9.322  1.00  0.00    -0.330 N 
HETATM   16  C   UNL     1     -46.250 -48.014   8.868  1.00  0.00     0.314 C 
HETATM   17  O   UNL     1     -46.915 -46.990   8.779  1.00  0.00    -0.248 OA
HETATM   18  N   UNL     1     -46.735 -49.209   8.457  1.00  0.00    -0.352 N 
HETATM   19  H   UNL     1     -46.413 -50.051   8.909  1.00  0.00     0.160 HD
HETATM   20  H   UNL     1     -47.713 -49.193   8.196  1.00  0.00     0.160 HD
HETATM   21  H   UNL     1     -44.492 -48.973   9.341  1.00  0.00     0.165 HD
ENDBRANCH  13  15
ENDBRANCH  10  13
ENDBRANCH   8   9
ENDBRANCH   1   8
BRANCH   4  22
HETATM   22  N   UNL     1     -43.599 -53.415  14.619  1.00  0.00    -0.363 N 
HETATM   23  C   UNL     1     -44.175 -54.592  13.954  1.00  0.00     0.150 C 
HETATM   24  C   UNL     1     -45.701 -54.639  14.144  1.00  0.00     0.188 C 
HETATM   25  O   UNL     1     -46.065 -54.572  15.529  1.00  0.00    -0.383 OA
HETATM   26  C   UNL     1     -45.596 -53.338  16.111  1.00  0.00     0.135 C 
HETATM   27  C   UNL     1     -46.042 -53.335  17.568  1.00  0.00     0.041 C 
HETATM   28  C   UNL     1     -44.059 -53.228  16.007  1.00  0.00     0.155 C 
ENDBRANCH   4  22
TORSDOF 5
ENDMDL
MODEL 2
REMARK VINA RESULT:      -6.8      1.788      2.235
REMARK  5 active torsions:
REMARK  status: ('A' for Active; 'I' for Inactive)
REMARK    1  A    between atoms: C_2  and  N_3 
REMARK    2  A    between atoms: C_2  and  C_7 
REMARK       I    between atoms: N_3  and  C_4 
REMARK       I    between atoms: C_4  and  N_6 
REMARK       I    between atoms: C_7  and  N_9 
REMARK    3  A    between atoms: N_9  and  C_10 
REMARK    4  A    between atoms: C_10  and  C_11 
REMARK    5  A    between atoms: C_14  and  N_18 
ROOT
HETATM    1  C   UNL     1     -41.398 -51.771  12.378  1.00  0.00    -0.025 A 
HETATM    2  C   UNL     1     -40.940 -53.066  12.595  1.00  0.00     0.014 A 
HETATM    3  C   UNL     1     -41.752 -53.990  13.263  1.00  0.00     0.049 A 
HETATM    4  C   UNL     1     -43.019 -53.628  13.723  1.00  0.00     0.103 A 
HETATM    5  N   UNL     1     -43.450 -52.360  13.543  1.00  0.00    -0.352 N 
ATOM      6  HN  UNL     1     -44.363 -52.071  13.892  1.00  0.00     0.166 HD
HETATM    7  C   UNL     1     -42.653 -51.474  12.889  1.00  0.00     0.098 A 
ENDROOT
BRANCH   1   8
HETATM    8  C   UNL     1     -40.588 -50.755  11.630  1.00  0.00     0.162 C 
BRANCH   8   9
HETATM    9  N   UNL     1     -41.402 -49.760  10.967  1.00  0.00    -0.355 N 
HETATM   10  C   UNL     1     -41.190 -48.413  11.193  1.00  0.00     0.240 C 
HETATM   11  O   UNL     1     -40.278 -48.004  11.913  1.00  0.00    -0.271 OA
HETATM   12  H   UNL     1     -42.179 -50.067  10.395  1.00  0.00     0.162 HD
BRANCH  10  13
HETATM   13  C   UNL     1     -42.168 -47.451  10.478  1.00  0.00     0.174 C 
HETATM   14  C   UNL     1     -41.624 -46.025  10.490  1.00  0.00     0.042 C 
BRANCH  13  15
HETATM   15  N   UNL     1     -42.364 -47.916   9.108  1.00  0.00    -0.330 N 
HETATM   16  C   UNL     1     -43.478 -47.635   8.386  1.00  0.00     0.314 C 
HETATM   17  O   UNL     1     -44.453 -47.021   8.803  1.00  0.00    -0.248 OA
HETATM   18  N   UNL     1     -43.406 -48.059   7.103  1.00  0.00    -0.352 N 
HETATM   19  H   UNL     1     -42.873 -48.889   6.889  1.00  0.00     0.160 HD
HETATM   20  H   UNL     1     -44.260 -47.935   6.575  1.00  0.00     0.160 HD
HETATM   21  H   UNL     1     -41.595 -48.413   8.673  1.00  0.00     0.165 HD
ENDBRANCH  13  15
ENDBRANCH  10  13
ENDBRANCH   8   9
ENDBRANCH   1   8
BRANCH   4  22
HETATM   22  N   UNL     1     -43.812 -54.518  14.426  1.00  0.00    -0.363 N 
HETATM   23  C   UNL     1     -45.104 -54.994  13.912  1.00  0.00     0.150 C 
HETATM   24  C   UNL     1     -46.270 -54.369  14.695  1.00  0.00     0.188 C 
HETATM   25  O   UNL     1     -46.139 -54.588  16.107  1.00  0.00    -0.383 OA
HETATM   26  C   UNL     1     -44.922 -53.988  16.595  1.00  0.00     0.135 C 
HETATM   27  C   UNL     1     -44.871 -54.243  18.096  1.00  0.00     0.041 C 
HETATM   28  C   UNL     1     -43.687 -54.594  15.893  1.00  0.00     0.155 C 
ENDBRANCH   4  22
TORSDOF 5
ENDMDL
MODEL 3
REMARK VINA RESULT:      -6.5      2.270      2.964
REMARK  5 active torsions:
REMARK  status: ('A' for Active; 'I' for Inactive)
REMARK    1  A    between atoms: C_2  and  N_3 
REMARK    2  A    between atoms: C_2  and  C_7 
REMARK       I    between atoms: N_3  and  C_4 
REMARK       I    between atoms: C_4  and  N_6 
REMARK       I    between atoms: C_7  and  N_9 
REMARK    3  A    between atoms: N_9  and  C_10 
REMARK    4  A    between atoms: C_10  and  C_11 
REMARK    5  A    between atoms: C_14  and  N_18 
ROOT
HETATM    1  C   UNL     1     -41.130 -49.752  11.603  1.00  0.00    -0.025 A 
HETATM    2  C   UNL     1     -42.228 -50.141  12.362  1.00  0.00     0.014 A 
HETATM    3  C   UNL     1     -42.261 -51.417  12.936  1.00  0.00     0.049 A 
HETATM    4  C   UNL     1     -41.205 -52.312  12.752  1.00  0.00     0.103 A 
HETATM    5  N   UNL     1     -40.153 -51.946  11.987  1.00  0.00    -0.352 N 
ATOM      6  HN  UNL     1     -39.384 -52.594  11.823  1.00  0.00     0.166 HD
HETATM    7  C   UNL     1     -40.133 -50.702  11.439  1.00  0.00     0.098 A 
ENDROOT
BRANCH   1   8
HETATM    8  C   UNL     1     -41.022 -48.382  11.002  1.00  0.00     0.162 C 
BRANCH   8   9
HETATM    9  N   UNL     1     -41.908 -48.188   9.875  1.00  0.00    -0.355 N 
HETATM   10  C   UNL     1     -43.041 -47.406   9.997  1.00  0.00     0.240 C 
HETATM   11  O   UNL     1     -43.314 -46.804  11.036  1.00  0.00    -0.271 OA
HETATM   12  H   UNL     1     -41.726 -48.696   9.018  1.00  0.00     0.162 HD
BRANCH  10  13
HETATM   13  C   UNL     1     -43.942 -47.330   8.742  1.00  0.00     0.174 C 
HETATM   14  C   UNL     1     -43.232 -47.937   7.534  1.00  0.00     0.042 C 
BRANCH  13  15
HETATM   15  N   UNL     1     -45.189 -48.038   9.016  1.00  0.00    -0.330 N 
HETATM   16  C   UNL     1     -46.407 -47.449   8.917  1.00  0.00     0.314 C 
HETATM   17  O   UNL     1     -46.602 -46.271   8.646  1.00  0.00    -0.248 OA
HETATM   18  N   UNL     1     -47.435 -48.311   9.098  1.00  0.00    -0.352 N 
HETATM   19  H   UNL     1     -47.313 -49.097   9.720  1.00  0.00     0.160 HD
HETATM   20  H   UNL     1     -48.347 -47.874   9.113  1.00  0.00     0.160 HD
HETATM   21  H   UNL     1     -45.124 -49.027   9.225  1.00  0.00     0.165 HD
ENDBRANCH  13  15
ENDBRANCH  10  13
ENDBRANCH   8   9
ENDBRANCH   1   8
BRANCH   4  22
HETATM   22  N   UNL     1     -41.247 -53.593  13.276  1.00  0.00    -0.363 N 
HETATM   23  C   UNL     1     -42.440 -54.126  13.949  1.00  0.00     0.150 C 
HETATM   24  C   UNL     1     -42.214 -54.230  15.466  1.00  0.00     0.188 C 
HETATM   25  O   UNL     1     -41.038 -54.988  15.777  1.00  0.00    -0.383 OA
HETATM   26  C   UNL     1     -39.871 -54.356  15.210  1.00  0.00     0.135 C 
HETATM   27  C   UNL     1     -38.669 -55.205  15.604  1.00  0.00     0.041 C 
HETATM   28  C   UNL     1     -39.991 -54.253  13.674  1.00  0.00     0.155 C 
ENDBRANCH   4  22
TORSDOF 5
ENDMDL
MODEL 4
REMARK VINA RESULT:      -6.3      2.377      2.987
REMARK  5 active torsions:
REMARK  status: ('A' for Active; 'I' for Inactive)
REMARK    1  A    between atoms: C_2  and  N_3 
REMARK    2  A    between atoms: C_2  and  C_7 
REMARK       I    between atoms: N_3  and  C_4 
REMARK       I    between atoms: C_4  and  N_6 
REMARK       I    between atoms: C_7  and  N_9 
REMARK    3  A    between atoms: N_9  and  C_10 
REMARK    4  A    between atoms: C_10  and  C_11 
REMARK    5  A    between atoms: C_14  and  N_18 
ROOT
HETATM    1  C   UNL     1     -40.202 -50.033  12.501  1.00  0.00    -0.025 A 
HETATM    2  C   UNL     1     -40.010 -50.613  13.751  1.00  0.00     0.014 A 
HETATM    3  C   UNL     1     -40.996 -51.447  14.290  1.00  0.00     0.049 A 
HETATM    4  C   UNL     1     -42.178 -51.703  13.591  1.00  0.00     0.103 A 
HETATM    5  N   UNL     1     -42.378 -51.113  12.393  1.00  0.00    -0.352 N 
ATOM      6  HN  UNL     1     -43.244 -51.269  11.879  1.00  0.00     0.166 HD
HETATM    7  C   UNL     1     -41.410 -50.308  11.879  1.00  0.00     0.098 A 
ENDROOT
BRANCH   1   8
HETATM    8  C   UNL     1     -39.160 -49.167  11.857  1.00  0.00     0.162 C 
BRANCH   8   9
HETATM    9  N   UNL     1     -39.724 -48.062  11.114  1.00  0.00    -0.355 N 
HETATM   10  C   UNL     1     -39.973 -46.852  11.734  1.00  0.00     0.240 C 
HETATM   11  O   UNL     1     -39.678 -46.645  12.912  1.00  0.00    -0.271 OA
HETATM   12  H   UNL     1     -40.005 -48.213  10.153  1.00  0.00     0.162 HD
BRANCH  10  13
HETATM   13  C   UNL     1     -40.638 -45.770  10.850  1.00  0.00     0.174 C 
HETATM   14  C   UNL     1     -39.579 -44.907  10.169  1.00  0.00     0.042 C 
BRANCH  13  15
HETATM   15  N   UNL     1     -41.481 -46.430   9.858  1.00  0.00    -0.330 N 
HETATM   16  C   UNL     1     -42.658 -45.909   9.427  1.00  0.00     0.314 C 
HETATM   17  O   UNL     1     -43.169 -44.878   9.847  1.00  0.00    -0.248 OA
HETATM   18  N   UNL     1     -43.222 -46.619   8.422  1.00  0.00    -0.352 N 
HETATM   19  H   UNL     1     -43.078 -47.617   8.385  1.00  0.00     0.160 HD
HETATM   20  H   UNL     1     -44.140 -46.294   8.148  1.00  0.00     0.160 HD
HETATM   21  H   UNL     1     -41.124 -47.280   9.437  1.00  0.00     0.165 HD
ENDBRANCH  13  15
ENDBRANCH  10  13
ENDBRANCH   8   9
ENDBRANCH   1   8
BRANCH   4  22
HETATM   22  N   UNL     1     -43.180 -52.488  14.135  1.00  0.00    -0.363 N 
HETATM   23  C   UNL     1     -43.460 -53.848  13.652  1.00  0.00     0.150 C 
HETATM   24  C   UNL     1     -44.776 -53.888  12.857  1.00  0.00     0.188 C 
HETATM   25  O   UNL     1     -45.869 -53.350  13.614  1.00  0.00    -0.383 OA
HETATM   26  C   UNL     1     -45.612 -51.971  13.953  1.00  0.00     0.135 C 
HETATM   27  C   UNL     1     -46.824 -51.470  14.729  1.00  0.00     0.041 C 
HETATM   28  C   UNL     1     -44.326 -51.841  14.797  1.00  0.00     0.155 C 
ENDBRANCH   4  22
TORSDOF 5
ENDMDL
MODEL 5
REMARK VINA RESULT:      -6.3      3.032      4.537
REMARK  5 active torsions:
REMARK  status: ('A' for Active; 'I' for Inactive)
REMARK    1  A    between atoms: C_2  and  N_3 
REMARK    2  A    between atoms: C_2  and  C_7 
REMARK       I    between atoms: N_3  and  C_4 
REMARK       I    between atoms: C_4  and  N_6 
REMARK       I    between atoms: C_7  and  N_9 
REMARK    3  A    between atoms: N_9  and  C_10 
REMARK    4  A    between atoms: C_10  and  C_11 
REMARK    5  A    between atoms: C_14  and  N_18 
ROOT
HETATM    1  C   UNL     1     -41.944 -53.353  13.517  1.00  0.00    -0.025 A 
HETATM    2  C   UNL     1     -42.375 -54.517  14.146  1.00  0.00     0.014 A 
HETATM    3  C   UNL     1     -43.645 -54.561  14.732  1.00  0.00     0.049 A 
HETATM    4  C   UNL     1     -44.488 -53.448  14.701  1.00  0.00     0.103 A 
HETATM    5  N   UNL     1     -44.055 -52.308  14.120  1.00  0.00    -0.352 N 
ATOM      6  HN  UNL     1     -44.647 -51.478  14.108  1.00  0.00     0.166 HD
HETATM    7  C   UNL     1     -42.820 -52.280  13.551  1.00  0.00     0.098 A 
ENDROOT
BRANCH   1   8
HETATM    8  C   UNL     1     -40.611 -53.265  12.834  1.00  0.00     0.162 C 
BRANCH   8   9
HETATM    9  N   UNL     1     -40.336 -51.949  12.299  1.00  0.00    -0.355 N 
HETATM   10  C   UNL     1     -39.122 -51.333  12.537  1.00  0.00     0.240 C 
HETATM   11  O   UNL     1     -38.214 -51.888  13.157  1.00  0.00    -0.271 OA
HETATM   12  H   UNL     1     -41.075 -51.456  11.814  1.00  0.00     0.162 HD
BRANCH  10  13
HETATM   13  C   UNL     1     -38.974 -49.902  11.968  1.00  0.00     0.174 C 
HETATM   14  C   UNL     1     -37.575 -49.694  11.393  1.00  0.00     0.042 C 
BRANCH  13  15
HETATM   15  N   UNL     1     -39.990 -49.700  10.939  1.00  0.00    -0.330 N 
HETATM   16  C   UNL     1     -40.862 -48.660  10.959  1.00  0.00     0.314 C 
HETATM   17  O   UNL     1     -40.937 -47.818  11.845  1.00  0.00    -0.248 OA
HETATM   18  N   UNL     1     -41.640 -48.592   9.853  1.00  0.00    -0.352 N 
HETATM   19  H   UNL     1     -41.897 -49.447   9.381  1.00  0.00     0.160 HD
HETATM   20  H   UNL     1     -42.352 -47.875   9.889  1.00  0.00     0.160 HD
HETATM   21  H   UNL     1     -39.985 -50.337  10.152  1.00  0.00     0.165 HD
ENDBRANCH  13  15
ENDBRANCH  10  13
ENDBRANCH   8   9
ENDBRANCH   1   8
BRANCH   4  22
HETATM   22  N   UNL     1     -45.726 -53.465  15.318  1.00  0.00    -0.363 N 
HETATM   23  C   UNL     1     -46.853 -52.653  14.839  1.00  0.00     0.150 C 
HETATM   24  C   UNL     1     -47.133 -51.483  15.798  1.00  0.00     0.188 C 
HETATM   25  O   UNL     1     -47.330 -51.936  17.144  1.00  0.00    -0.383 OA
HETATM   26  C   UNL     1     -46.149 -52.612  17.622  1.00  0.00     0.135 C 
HETATM   27  C   UNL     1     -46.430 -53.038  19.058  1.00  0.00     0.041 C 
HETATM   28  C   UNL     1     -45.819 -53.837  16.741  1.00  0.00     0.155 C 
ENDBRANCH   4  22
TORSDOF 5
ENDMDL
MODEL 6
REMARK VINA RESULT:      -6.2      2.257      7.138
REMARK  5 active torsions:
REMARK  status: ('A' for Active; 'I' for Inactive)
REMARK    1  A    between atoms: C_2  and  N_3 
REMARK    2  A    between atoms: C_2  and  C_7 
REMARK       I    between atoms: N_3  and  C_4 
REMARK       I    between atoms: C_4  and  N_6 
REMARK       I    between atoms: C_7  and  N_9 
REMARK    3  A    between atoms: N_9  and  C_10 
REMARK    4  A    between atoms: C_10  and  C_11 
REMARK    5  A    between atoms: C_14  and  N_18 
ROOT
HETATM    1  C   UNL     1     -42.497 -50.591  13.986  1.00  0.00    -0.025 A 
HETATM    2  C   UNL     1     -42.556 -49.215  14.182  1.00  0.00     0.014 A 
HETATM    3  C   UNL     1     -42.296 -48.348  13.115  1.00  0.00     0.049 A 
HETATM    4  C   UNL     1     -41.970 -48.845  11.851  1.00  0.00     0.103 A 
HETATM    5  N   UNL     1     -41.879 -50.181  11.670  1.00  0.00    -0.352 N 
ATOM      6  HN  UNL     1     -41.619 -50.561  10.761  1.00  0.00     0.166 HD
HETATM    7  C   UNL     1     -42.138 -51.012  12.715  1.00  0.00     0.098 A 
ENDROOT
BRANCH   1   8
HETATM    8  C   UNL     1     -42.810 -51.565  15.083  1.00  0.00     0.162 C 
BRANCH   8   9
HETATM    9  N   UNL     1     -44.210 -51.923  15.138  1.00  0.00    -0.355 N 
HETATM   10  C   UNL     1     -44.663 -53.082  14.536  1.00  0.00     0.240 C 
HETATM   11  O   UNL     1     -43.901 -53.876  13.983  1.00  0.00    -0.271 OA
HETATM   12  H   UNL     1     -44.864 -51.274  15.557  1.00  0.00     0.162 HD
BRANCH  10  13
HETATM   13  C   UNL     1     -46.190 -53.321  14.607  1.00  0.00     0.174 C 
HETATM   14  C   UNL     1     -46.840 -52.354  15.594  1.00  0.00     0.042 C 
BRANCH  13  15
HETATM   15  N   UNL     1     -46.754 -53.150  13.271  1.00  0.00    -0.330 N 
HETATM   16  C   UNL     1     -46.514 -52.056  12.504  1.00  0.00     0.314 C 
HETATM   17  O   UNL     1     -45.858 -51.081  12.851  1.00  0.00    -0.248 OA
HETATM   18  N   UNL     1     -47.033 -52.151  11.258  1.00  0.00    -0.352 N 
HETATM   19  H   UNL     1     -47.883 -52.677  11.120  1.00  0.00     0.160 HD
HETATM   20  H   UNL     1     -46.937 -51.311  10.702  1.00  0.00     0.160 HD
HETATM   21  H   UNL     1     -47.291 -53.921  12.893  1.00  0.00     0.165 HD
ENDBRANCH  13  15
ENDBRANCH  10  13
ENDBRANCH   8   9
ENDBRANCH   1   8
BRANCH   4  22
HETATM   22  N   UNL     1     -41.665 -47.998  10.801  1.00  0.00    -0.363 N 
HETATM   23  C   UNL     1     -40.589 -47.000  10.885  1.00  0.00     0.150 C 
HETATM   24  C   UNL     1     -41.166 -45.578  10.991  1.00  0.00     0.188 C 
HETATM   25  O   UNL     1     -42.079 -45.295   9.922  1.00  0.00    -0.383 OA
HETATM   26  C   UNL     1     -43.190 -46.215   9.958  1.00  0.00     0.135 C 
HETATM   27  C   UNL     1     -44.120 -45.833   8.812  1.00  0.00     0.041 C 
HETATM   28  C   UNL     1     -42.705 -47.673   9.809  1.00  0.00     0.155 C 
ENDBRANCH   4  22
TORSDOF 5
ENDMDL
MODEL 7
REMARK VINA RESULT:      -6.2      2.243      3.107
REMARK  5 active torsions:
REMARK  status: ('A' for Active; 'I' for Inactive)
REMARK    1  A    between atoms: C_2  and  N_3 
REMARK    2  A    between atoms: C_2  and  C_7 
REMARK       I    between atoms: N_3  and  C_4 
REMARK       I    between atoms: C_4  and  N_6 
REMARK       I    between atoms: C_7  and  N_9 
REMARK    3  A    between atoms: N_9  and  C_10 
REMARK    4  A    between atoms: C_10  and  C_11 
REMARK    5  A    between atoms: C_14  and  N_18 
ROOT
HETATM    1  C   UNL     1     -40.065 -50.704  12.669  1.00  0.00    -0.025 A 
HETATM    2  C   UNL     1     -41.198 -51.275  12.098  1.00  0.00     0.014 A 
HETATM    3  C   UNL     1     -42.082 -52.013  12.894  1.00  0.00     0.049 A 
HETATM    4  C   UNL     1     -41.839 -52.191  14.258  1.00  0.00     0.103 A 
HETATM    5  N   UNL     1     -40.722 -51.665  14.804  1.00  0.00    -0.352 N 
ATOM      6  HN  UNL     1     -40.516 -51.804  15.793  1.00  0.00     0.166 HD
HETATM    7  C   UNL     1     -39.874 -50.947  14.021  1.00  0.00     0.098 A 
ENDROOT
BRANCH   1   8
HETATM    8  C   UNL     1     -39.109 -49.867  11.872  1.00  0.00     0.162 C 
BRANCH   8   9
HETATM    9  N   UNL     1     -39.755 -48.771  11.184  1.00  0.00    -0.355 N 
HETATM   10  C   UNL     1     -39.995 -47.576  11.836  1.00  0.00     0.240 C 
HETATM   11  O   UNL     1     -39.627 -47.374  12.994  1.00  0.00    -0.271 OA
HETATM   12  H   UNL     1     -40.097 -48.919  10.243  1.00  0.00     0.162 HD
BRANCH  10  13
HETATM   13  C   UNL     1     -40.751 -46.505  11.015  1.00  0.00     0.174 C 
HETATM   14  C   UNL     1     -39.794 -45.411  10.547  1.00  0.00     0.042 C 
BRANCH  13  15
HETATM   15  N   UNL     1     -41.389 -47.154   9.873  1.00  0.00    -0.330 N 
HETATM   16  C   UNL     1     -42.689 -47.541   9.876  1.00  0.00     0.314 C 
HETATM   17  O   UNL     1     -43.452 -47.445  10.830  1.00  0.00    -0.248 OA
HETATM   18  N   UNL     1     -43.111 -48.013   8.680  1.00  0.00    -0.352 N 
HETATM   19  H   UNL     1     -42.453 -48.491   8.082  1.00  0.00     0.160 HD
HETATM   20  H   UNL     1     -44.052 -48.385   8.688  1.00  0.00     0.160 HD
HETATM   21  H   UNL     1     -40.837 -47.253   9.029  1.00  0.00     0.165 HD
ENDBRANCH  13  15
ENDBRANCH  10  13
ENDBRANCH   8   9
ENDBRANCH   1   8
BRANCH   4  22
HETATM   22  N   UNL     1     -42.681 -52.958  15.044  1.00  0.00    -0.363 N 
HETATM   23  C   UNL     1     -42.174 -53.868  16.081  1.00  0.00     0.150 C 
HETATM   24  C   UNL     1     -42.331 -55.335  15.648  1.00  0.00     0.188 C 
HETATM   25  O   UNL     1     -43.684 -55.638  15.283  1.00  0.00    -0.383 OA
HETATM   26  C   UNL     1     -44.098 -54.814  14.173  1.00  0.00     0.135 C 
HETATM   27  C   UNL     1     -45.529 -55.213  13.832  1.00  0.00     0.041 C 
HETATM   28  C   UNL     1     -44.017 -53.316  14.536  1.00  0.00     0.155 C 
ENDBRANCH   4  22
TORSDOF 5
ENDMDL
MODEL 8
REMARK VINA RESULT:      -6.2      3.923      5.918
REMARK  5 active torsions:
REMARK  status: ('A' for Active; 'I' for Inactive)
REMARK    1  A    between atoms: C_2  and  N_3 
REMARK    2  A    between atoms: C_2  and  C_7 
REMARK       I    between atoms: N_3  and  C_4 
REMARK       I    between atoms: C_4  and  N_6 
REMARK       I    between atoms: C_7  and  N_9 
REMARK    3  A    between atoms: N_9  and  C_10 
REMARK    4  A    between atoms: C_10  and  C_11 
REMARK    5  A    between atoms: C_14  and  N_18 
ROOT
HETATM    1  C   UNL     1     -45.705 -51.243  14.507  1.00  0.00    -0.025 A 
HETATM    2  C   UNL     1     -47.002 -51.574  14.886  1.00  0.00     0.014 A 
HETATM    3  C   UNL     1     -47.405 -51.402  16.215  1.00  0.00     0.049 A 
HETATM    4  C   UNL     1     -46.519 -50.906  17.174  1.00  0.00     0.103 A 
HETATM    5  N   UNL     1     -45.250 -50.617  16.813  1.00  0.00    -0.352 N 
ATOM      6  HN  UNL     1     -44.582 -50.276  17.504  1.00  0.00     0.166 HD
HETATM    7  C   UNL     1     -44.873 -50.785  15.517  1.00  0.00     0.098 A 
ENDROOT
BRANCH   1   8
HETATM    8  C   UNL     1     -45.234 -51.365  13.088  1.00  0.00     0.162 C 
BRANCH   8   9
HETATM    9  N   UNL     1     -43.793 -51.348  12.968  1.00  0.00    -0.355 N 
HETATM   10  C   UNL     1     -43.092 -52.522  12.761  1.00  0.00     0.240 C 
HETATM   11  O   UNL     1     -43.656 -53.607  12.616  1.00  0.00    -0.271 OA
HETATM   12  H   UNL     1     -43.301 -50.476  13.115  1.00  0.00     0.162 HD
BRANCH  10  13
HETATM   13  C   UNL     1     -41.552 -52.382  12.716  1.00  0.00     0.174 C 
HETATM   14  C   UNL     1     -40.888 -53.757  12.684  1.00  0.00     0.042 C 
BRANCH  13  15
HETATM   15  N   UNL     1     -41.186 -51.606  11.534  1.00  0.00    -0.330 N 
HETATM   16  C   UNL     1     -40.465 -50.459  11.600  1.00  0.00     0.314 C 
HETATM   17  O   UNL     1     -40.090 -49.919  12.634  1.00  0.00    -0.248 OA
HETATM   18  N   UNL     1     -40.136 -49.962  10.385  1.00  0.00    -0.352 N 
HETATM   19  H   UNL     1     -40.763 -50.110   9.608  1.00  0.00     0.160 HD
HETATM   20  H   UNL     1     -39.672 -49.063  10.414  1.00  0.00     0.160 HD
HETATM   21  H   UNL     1     -41.436 -51.992  10.631  1.00  0.00     0.165 HD
ENDBRANCH  13  15
ENDBRANCH  10  13
ENDBRANCH   8   9
ENDBRANCH   1   8
BRANCH   4  22
HETATM   22  N   UNL     1     -46.892 -50.777  18.500  1.00  0.00    -0.363 N 
HETATM   23  C   UNL     1     -45.953 -51.012  19.606  1.00  0.00     0.150 C 
HETATM   24  C   UNL     1     -46.280 -52.326  20.334  1.00  0.00     0.188 C 
HETATM   25  O   UNL     1     -47.645 -52.365  20.771  1.00  0.00    -0.383 OA
HETATM   26  C   UNL     1     -48.535 -52.266  19.639  1.00  0.00     0.135 C 
HETATM   27  C   UNL     1     -49.957 -52.339  20.183  1.00  0.00     0.041 C 
HETATM   28  C   UNL     1     -48.308 -50.946  18.872  1.00  0.00     0.155 C 
ENDBRANCH   4  22
TORSDOF 5
ENDMDL
MODEL 9
REMARK VINA RESULT:      -6.2      2.912      3.639
REMARK  5 active torsions:
REMARK  status: ('A' for Active; 'I' for Inactive)
REMARK    1  A    between atoms: C_2  and  N_3 
REMARK    2  A    between atoms: C_2  and  C_7 
REMARK       I    between atoms: N_3  and  C_4 
REMARK       I    between atoms: C_4  and  N_6 
REMARK       I    between atoms: C_7  and  N_9 
REMARK    3  A    between atoms: N_9  and  C_10 
REMARK    4  A    between atoms: C_10  and  C_11 
REMARK    5  A    between atoms: C_14  and  N_18 
ROOT
HETATM    1  C   UNL     1     -39.972 -49.795  12.343  1.00  0.00    -0.025 A 
HETATM    2  C   UNL     1     -41.138 -50.491  12.043  1.00  0.00     0.014 A 
HETATM    3  C   UNL     1     -41.283 -51.820  12.459  1.00  0.00     0.049 A 
HETATM    4  C   UNL     1     -40.267 -52.462  13.170  1.00  0.00     0.103 A 
HETATM    5  N   UNL     1     -39.121 -51.796  13.431  1.00  0.00    -0.352 N 
ATOM      6  HN  UNL     1     -38.359 -52.257  13.928  1.00  0.00     0.166 HD
HETATM    7  C   UNL     1     -38.995 -50.505  13.025  1.00  0.00     0.098 A 
ENDROOT
BRANCH   1   8
HETATM    8  C   UNL     1     -39.782 -48.357  11.961  1.00  0.00     0.162 C 
BRANCH   8   9
HETATM    9  N   UNL     1     -40.783 -47.883  11.030  1.00  0.00    -0.355 N 
HETATM   10  C   UNL     1     -41.806 -47.057  11.458  1.00  0.00     0.240 C 
HETATM   11  O   UNL     1     -41.878 -46.648  12.618  1.00  0.00    -0.271 OA
HETATM   12  H   UNL     1     -40.768 -48.228  10.079  1.00  0.00     0.162 HD
BRANCH  10  13
HETATM   13  C   UNL     1     -42.850 -46.672  10.384  1.00  0.00     0.174 C 
HETATM   14  C   UNL     1     -42.853 -45.163  10.154  1.00  0.00     0.042 C 
BRANCH  13  15
HETATM   15  N   UNL     1     -42.534 -47.381   9.148  1.00  0.00    -0.330 N 
HETATM   16  C   UNL     1     -43.484 -47.803   8.276  1.00  0.00     0.314 C 
HETATM   17  O   UNL     1     -44.693 -47.692   8.441  1.00  0.00    -0.248 OA
HETATM   18  N   UNL     1     -42.973 -48.332   7.140  1.00  0.00    -0.352 N 
HETATM   19  H   UNL     1     -42.086 -48.813   7.179  1.00  0.00     0.160 HD
HETATM   20  H   UNL     1     -43.664 -48.729   6.518  1.00  0.00     0.160 HD
HETATM   21  H   UNL     1     -41.554 -47.496   8.918  1.00  0.00     0.165 HD
ENDBRANCH  13  15
ENDBRANCH  10  13
ENDBRANCH   8   9
ENDBRANCH   1   8
BRANCH   4  22
HETATM   22  N   UNL     1     -40.380 -53.789  13.545  1.00  0.00    -0.363 N 
HETATM   23  C   UNL     1     -41.669 -54.397  13.902  1.00  0.00     0.150 C 
HETATM   24  C   UNL     1     -41.756 -54.653  15.416  1.00  0.00     0.188 C 
HETATM   25  O   UNL     1     -40.647 -55.431  15.886  1.00  0.00    -0.383 OA
HETATM   26  C   UNL     1     -39.407 -54.736  15.636  1.00  0.00     0.135 C 
HETATM   27  C   UNL     1     -38.287 -55.612  16.184  1.00  0.00     0.041 C 
HETATM   28  C   UNL     1     -39.214 -54.477  14.127  1.00  0.00     0.155 C 
ENDBRANCH   4  22
TORSDOF 5
ENDMDL
