MODEL 1
REMARK VINA RESULT:      -5.3      0.000      0.000
REMARK  5 active torsions:
REMARK  status: ('A' for Active; 'I' for Inactive)
REMARK    1  A    between atoms: C_7  and  C_8 
REMARK    2  A    between atoms: C_8  and  N_9 
REMARK    3  A    between atoms: N_9  and  C_10 
REMARK    4  A    between atoms: C_10  and  C_11 
REMARK    5  A    between atoms: C_11  and  N_12 
ROOT
HETATM    1  N   UNL     1     -42.773 -52.612  11.784  1.00  0.00     0.085 N 
HETATM    2  H   UNL     1     -43.071 -51.636  11.836  1.00  0.00     0.315 HD
ENDROOT
BRANCH   1   3
HETATM    3  C   UNL     1     -43.850 -53.470  12.284  1.00  0.00     0.274 C 
BRANCH   3   4
HETATM    4  C   UNL     1     -44.620 -52.802  13.437  1.00  0.00     0.017 C 
HETATM    5  C   UNL     1     -44.983 -53.822  14.549  1.00  0.00    -0.013 C 
HETATM    6  C   UNL     1     -45.764 -55.047  14.051  1.00  0.00     0.010 C 
HETATM    7  C   UNL     1     -45.750 -53.113  15.678  1.00  0.00     0.005 C 
HETATM    8  C   UNL     1     -46.980 -52.359  15.177  1.00  0.00     0.000 C 
HETATM    9  C   UNL     1     -46.627 -51.383  14.062  1.00  0.00     0.000 C 
HETATM   10  C   UNL     1     -45.869 -52.059  12.924  1.00  0.00     0.007 C 
ENDBRANCH   3   4
ENDBRANCH   1   3
BRANCH   1  11
HETATM   11  C   UNL     1     -41.525 -52.775  12.541  1.00  0.00     0.289 C 
BRANCH  11  12
HETATM   12  C   UNL     1     -41.046 -51.486  13.221  1.00  0.00     0.159 C 
BRANCH  12  13
HETATM   13  N   UNL     1     -40.004 -50.829  12.466  1.00  0.00    -0.350 N 
HETATM   14  C   UNL     1     -38.663 -50.879  12.736  1.00  0.00     0.108 A 
HETATM   15  C   UNL     1     -38.079 -50.145  11.733  1.00  0.00     0.106 A 
HETATM   16  N   UNL     1     -39.026 -49.659  10.868  1.00  0.00    -0.361 N 
HETATM   17  C   UNL     1     -40.177 -50.095  11.330  1.00  0.00     0.182 A 
ATOM     18  HN  UNL     1     -38.871 -49.081  10.042  1.00  0.00     0.166 HD
ENDBRANCH  12  13
ENDBRANCH  11  12
ENDBRANCH   1  11
TORSDOF 5
ENDMDL
MODEL 2
REMARK VINA RESULT:      -5.0      0.961      1.833
REMARK  5 active torsions:
REMARK  status: ('A' for Active; 'I' for Inactive)
REMARK    1  A    between atoms: C_7  and  C_8 
REMARK    2  A    between atoms: C_8  and  N_9 
REMARK    3  A    between atoms: N_9  and  C_10 
REMARK    4  A    between atoms: C_10  and  C_11 
REMARK    5  A    between atoms: C_11  and  N_12 
ROOT
HETATM    1  N   UNL     1     -42.269 -53.699  12.657  1.00  0.00     0.085 N 
HETATM    2  H   UNL     1     -42.491 -54.377  11.927  1.00  0.00     0.315 HD
ENDROOT
BRANCH   1   3
HETATM    3  C   UNL     1     -43.098 -52.506  12.474  1.00  0.00     0.274 C 
BRANCH   3   4
HETATM    4  C   UNL     1     -44.557 -52.760  12.895  1.00  0.00     0.017 C 
HETATM    5  C   UNL     1     -45.229 -51.469  13.436  1.00  0.00    -0.013 C 
HETATM    6  C   UNL     1     -44.469 -50.798  14.590  1.00  0.00     0.010 C 
HETATM    7  C   UNL     1     -46.681 -51.767  13.844  1.00  0.00     0.005 C 
HETATM    8  C   UNL     1     -46.792 -52.923  14.837  1.00  0.00     0.000 C 
HETATM    9  C   UNL     1     -46.103 -54.178  14.320  1.00  0.00     0.000 C 
HETATM   10  C   UNL     1     -44.657 -53.915  13.911  1.00  0.00     0.007 C 
ENDBRANCH   3   4
ENDBRANCH   1   3
BRANCH   1  11
HETATM   11  C   UNL     1     -40.832 -53.399  12.615  1.00  0.00     0.289 C 
BRANCH  11  12
HETATM   12  C   UNL     1     -40.445 -52.139  13.399  1.00  0.00     0.159 C 
BRANCH  12  13
HETATM   13  N   UNL     1     -39.706 -51.200  12.586  1.00  0.00    -0.350 N 
HETATM   14  C   UNL     1     -38.375 -50.909  12.703  1.00  0.00     0.108 A 
HETATM   15  C   UNL     1     -38.126 -50.004  11.700  1.00  0.00     0.106 A 
HETATM   16  N   UNL     1     -39.267 -49.746  10.982  1.00  0.00    -0.361 N 
HETATM   17  C   UNL     1     -40.201 -50.488  11.533  1.00  0.00     0.182 A 
ATOM     18  HN  UNL     1     -39.368 -49.112  10.189  1.00  0.00     0.166 HD
ENDBRANCH  12  13
ENDBRANCH  11  12
ENDBRANCH   1  11
TORSDOF 5
ENDMDL
MODEL 3
REMARK VINA RESULT:      -5.0      1.450      1.879
REMARK  5 active torsions:
REMARK  status: ('A' for Active; 'I' for Inactive)
REMARK    1  A    between atoms: C_7  and  C_8 
REMARK    2  A    between atoms: C_8  and  N_9 
REMARK    3  A    between atoms: N_9  and  C_10 
REMARK    4  A    between atoms: C_10  and  C_11 
REMARK    5  A    between atoms: C_11  and  N_12 
ROOT
HETATM    1  N   UNL     1     -42.365 -54.482  14.627  1.00  0.00     0.085 N 
HETATM    2  H   UNL     1     -42.061 -55.338  15.093  1.00  0.00     0.315 HD
ENDROOT
BRANCH   1   3
HETATM    3  C   UNL     1     -43.779 -54.606  14.269  1.00  0.00     0.274 C 
BRANCH   3   4
HETATM    4  C   UNL     1     -44.458 -53.229  14.156  1.00  0.00     0.017 C 
HETATM    5  C   UNL     1     -44.983 -52.737  15.532  1.00  0.00    -0.013 C 
HETATM    6  C   UNL     1     -45.928 -53.720  16.237  1.00  0.00     0.010 C 
HETATM    7  C   UNL     1     -45.652 -51.362  15.373  1.00  0.00     0.005 C 
HETATM    8  C   UNL     1     -46.752 -51.357  14.313  1.00  0.00     0.000 C 
HETATM    9  C   UNL     1     -46.246 -51.873  12.973  1.00  0.00     0.000 C 
HETATM   10  C   UNL     1     -45.579 -53.239  13.097  1.00  0.00     0.007 C 
ENDBRANCH   3   4
ENDBRANCH   1   3
BRANCH   1  11
HETATM   11  C   UNL     1     -41.506 -54.237  13.461  1.00  0.00     0.289 C 
BRANCH  11  12
HETATM   12  C   UNL     1     -40.324 -53.305  13.754  1.00  0.00     0.159 C 
BRANCH  12  13
HETATM   13  N   UNL     1     -40.306 -52.159  12.875  1.00  0.00    -0.350 N 
HETATM   14  C   UNL     1     -39.384 -51.148  12.891  1.00  0.00     0.108 A 
HETATM   15  C   UNL     1     -39.754 -50.322  11.858  1.00  0.00     0.106 A 
HETATM   16  N   UNL     1     -40.869 -50.807  11.221  1.00  0.00    -0.361 N 
HETATM   17  C   UNL     1     -41.174 -51.920  11.850  1.00  0.00     0.182 A 
ATOM     18  HN  UNL     1     -41.358 -50.392  10.428  1.00  0.00     0.166 HD
ENDBRANCH  12  13
ENDBRANCH  11  12
ENDBRANCH   1  11
TORSDOF 5
ENDMDL
MODEL 4
REMARK VINA RESULT:      -5.0      2.975      3.991
REMARK  5 active torsions:
REMARK  status: ('A' for Active; 'I' for Inactive)
REMARK    1  A    between atoms: C_7  and  C_8 
REMARK    2  A    between atoms: C_8  and  N_9 
REMARK    3  A    between atoms: N_9  and  C_10 
REMARK    4  A    between atoms: C_10  and  C_11 
REMARK    5  A    between atoms: C_11  and  N_12 
ROOT
HETATM    1  N   UNL     1     -42.088 -50.884  11.721  1.00  0.00     0.085 N 
HETATM    2  H   UNL     1     -42.911 -50.816  11.121  1.00  0.00     0.315 HD
ENDROOT
BRANCH   1   3
HETATM    3  C   UNL     1     -42.405 -51.722  12.879  1.00  0.00     0.274 C 
BRANCH   3   4
HETATM    4  C   UNL     1     -43.878 -52.172  12.867  1.00  0.00     0.017 C 
HETATM    5  C   UNL     1     -44.810 -51.092  13.479  1.00  0.00    -0.013 C 
HETATM    6  C   UNL     1     -44.419 -50.650  14.897  1.00  0.00     0.010 C 
HETATM    7  C   UNL     1     -46.267 -51.582  13.448  1.00  0.00     0.005 C 
HETATM    8  C   UNL     1     -46.451 -52.940  14.124  1.00  0.00     0.000 C 
HETATM    9  C   UNL     1     -45.511 -53.990  13.547  1.00  0.00     0.000 C 
HETATM   10  C   UNL     1     -44.056 -53.533  13.568  1.00  0.00     0.007 C 
ENDBRANCH   3   4
ENDBRANCH   1   3
BRANCH   1  11
HETATM   11  C   UNL     1     -41.658 -49.532  12.104  1.00  0.00     0.289 C 
BRANCH  11  12
HETATM   12  C   UNL     1     -41.351 -48.624  10.907  1.00  0.00     0.159 C 
BRANCH  12  13
HETATM   13  N   UNL     1     -42.544 -48.011  10.370  1.00  0.00    -0.350 N 
HETATM   14  C   UNL     1     -42.805 -47.786   9.047  1.00  0.00     0.108 A 
HETATM   15  C   UNL     1     -44.061 -47.229   9.030  1.00  0.00     0.106 A 
HETATM   16  N   UNL     1     -44.562 -47.117  10.302  1.00  0.00    -0.361 N 
HETATM   17  C   UNL     1     -43.630 -47.604  11.089  1.00  0.00     0.182 A 
ATOM     18  HN  UNL     1     -45.467 -46.735  10.578  1.00  0.00     0.166 HD
ENDBRANCH  12  13
ENDBRANCH  11  12
ENDBRANCH   1  11
TORSDOF 5
ENDMDL
MODEL 5
REMARK VINA RESULT:      -4.9      3.869      6.618
REMARK  5 active torsions:
REMARK  status: ('A' for Active; 'I' for Inactive)
REMARK    1  A    between atoms: C_7  and  C_8 
REMARK    2  A    between atoms: C_8  and  N_9 
REMARK    3  A    between atoms: N_9  and  C_10 
REMARK    4  A    between atoms: C_10  and  C_11 
REMARK    5  A    between atoms: C_11  and  N_12 
ROOT
HETATM    1  N   UNL     1     -40.238 -49.740  10.590  1.00  0.00     0.085 N 
HETATM    2  H   UNL     1     -39.699 -49.150   9.956  1.00  0.00     0.315 HD
ENDROOT
BRANCH   1   3
HETATM    3  C   UNL     1     -41.330 -48.954  11.169  1.00  0.00     0.274 C 
BRANCH   3   4
HETATM    4  C   UNL     1     -41.299 -47.495  10.680  1.00  0.00     0.017 C 
HETATM    5  C   UNL     1     -40.043 -46.745  11.199  1.00  0.00    -0.013 C 
HETATM    6  C   UNL     1     -39.870 -46.780  12.725  1.00  0.00     0.010 C 
HETATM    7  C   UNL     1     -40.053 -45.294  10.689  1.00  0.00     0.005 C 
HETATM    8  C   UNL     1     -41.341 -44.552  11.039  1.00  0.00     0.000 C 
HETATM    9  C   UNL     1     -42.575 -45.306  10.560  1.00  0.00     0.000 C 
HETATM   10  C   UNL     1     -42.595 -46.749  11.054  1.00  0.00     0.007 C 
ENDBRANCH   3   4
ENDBRANCH   1   3
BRANCH   1  11
HETATM   11  C   UNL     1     -39.340 -50.296  11.611  1.00  0.00     0.289 C 
BRANCH  11  12
HETATM   12  C   UNL     1     -40.063 -50.740  12.889  1.00  0.00     0.159 C 
BRANCH  12  13
HETATM   13  N   UNL     1     -40.209 -52.175  12.960  1.00  0.00    -0.350 N 
HETATM   14  C   UNL     1     -39.656 -52.993  13.906  1.00  0.00     0.108 A 
HETATM   15  C   UNL     1     -40.104 -54.251  13.585  1.00  0.00     0.106 A 
HETATM   16  N   UNL     1     -40.912 -54.213  12.477  1.00  0.00    -0.361 N 
HETATM   17  C   UNL     1     -40.964 -52.947  12.127  1.00  0.00     0.182 A 
ATOM     18  HN  UNL     1     -41.374 -55.000  12.020  1.00  0.00     0.166 HD
ENDBRANCH  12  13
ENDBRANCH  11  12
ENDBRANCH   1  11
TORSDOF 5
ENDMDL
MODEL 6
REMARK VINA RESULT:      -4.9      2.105      3.057
REMARK  5 active torsions:
REMARK  status: ('A' for Active; 'I' for Inactive)
REMARK    1  A    between atoms: C_7  and  C_8 
REMARK    2  A    between atoms: C_8  and  N_9 
REMARK    3  A    between atoms: N_9  and  C_10 
REMARK    4  A    between atoms: C_10  and  C_11 
REMARK    5  A    between atoms: C_11  and  N_12 
ROOT
HETATM    1  N   UNL     1     -42.694 -52.060  12.008  1.00  0.00     0.085 N 
HETATM    2  H   UNL     1     -43.166 -51.198  11.733  1.00  0.00     0.315 HD
ENDROOT
BRANCH   1   3
HETATM    3  C   UNL     1     -43.697 -53.063  12.373  1.00  0.00     0.274 C 
BRANCH   3   4
HETATM    4  C   UNL     1     -44.558 -52.597  13.561  1.00  0.00     0.017 C 
HETATM    5  C   UNL     1     -44.887 -53.770  14.523  1.00  0.00    -0.013 C 
HETATM    6  C   UNL     1     -45.554 -54.976  13.845  1.00  0.00     0.010 C 
HETATM    7  C   UNL     1     -45.747 -53.261  15.692  1.00  0.00     0.005 C 
HETATM    8  C   UNL     1     -47.010 -52.538  15.227  1.00  0.00     0.000 C 
HETATM    9  C   UNL     1     -46.689 -51.410  14.256  1.00  0.00     0.000 C 
HETATM   10  C   UNL     1     -45.839 -51.886  13.082  1.00  0.00     0.007 C 
ENDBRANCH   3   4
ENDBRANCH   1   3
BRANCH   1  11
HETATM   11  C   UNL     1     -41.761 -51.770  13.105  1.00  0.00     0.289 C 
BRANCH  11  12
HETATM   12  C   UNL     1     -40.405 -52.472  12.960  1.00  0.00     0.159 C 
BRANCH  12  13
HETATM   13  N   UNL     1     -40.196 -53.465  13.989  1.00  0.00    -0.350 N 
HETATM   14  C   UNL     1     -41.086 -53.803  14.972  1.00  0.00     0.108 A 
HETATM   15  C   UNL     1     -40.465 -54.808  15.673  1.00  0.00     0.106 A 
HETATM   16  N   UNL     1     -39.232 -55.085  15.140  1.00  0.00    -0.361 N 
HETATM   17  C   UNL     1     -39.100 -54.266  14.120  1.00  0.00     0.182 A 
ATOM     18  HN  UNL     1     -38.559 -55.779  15.466  1.00  0.00     0.166 HD
ENDBRANCH  12  13
ENDBRANCH  11  12
ENDBRANCH   1  11
TORSDOF 5
ENDMDL
MODEL 7
REMARK VINA RESULT:      -4.9      3.251      4.011
REMARK  5 active torsions:
REMARK  status: ('A' for Active; 'I' for Inactive)
REMARK    1  A    between atoms: C_7  and  C_8 
REMARK    2  A    between atoms: C_8  and  N_9 
REMARK    3  A    between atoms: N_9  and  C_10 
REMARK    4  A    between atoms: C_10  and  C_11 
REMARK    5  A    between atoms: C_11  and  N_12 
ROOT
HETATM    1  N   UNL     1     -43.294 -49.650  12.273  1.00  0.00     0.085 N 
HETATM    2  H   UNL     1     -44.033 -49.190  12.805  1.00  0.00     0.315 HD
ENDROOT
BRANCH   1   3
HETATM    3  C   UNL     1     -42.917 -50.894  12.949  1.00  0.00     0.274 C 
BRANCH   3   4
HETATM    4  C   UNL     1     -44.073 -51.449  13.800  1.00  0.00     0.017 C 
HETATM    5  C   UNL     1     -43.982 -52.992  13.951  1.00  0.00    -0.013 C 
HETATM    6  C   UNL     1     -43.912 -53.753  12.619  1.00  0.00     0.010 C 
HETATM    7  C   UNL     1     -45.153 -53.503  14.806  1.00  0.00     0.005 C 
HETATM    8  C   UNL     1     -46.514 -53.065  14.269  1.00  0.00     0.000 C 
HETATM    9  C   UNL     1     -46.590 -51.555  14.089  1.00  0.00     0.000 C 
HETATM   10  C   UNL     1     -45.442 -51.018  13.240  1.00  0.00     0.007 C 
ENDBRANCH   3   4
ENDBRANCH   1   3
BRANCH   1  11
HETATM   11  C   UNL     1     -42.163 -48.725  12.121  1.00  0.00     0.289 C 
BRANCH  11  12
HETATM   12  C   UNL     1     -41.773 -48.467  10.660  1.00  0.00     0.159 C 
BRANCH  12  13
HETATM   13  N   UNL     1     -42.586 -47.436  10.056  1.00  0.00    -0.350 N 
HETATM   14  C   UNL     1     -43.351 -47.573   8.930  1.00  0.00     0.108 A 
HETATM   15  C   UNL     1     -43.963 -46.353   8.775  1.00  0.00     0.106 A 
HETATM   16  N   UNL     1     -43.591 -45.489   9.774  1.00  0.00    -0.361 N 
HETATM   17  C   UNL     1     -42.768 -46.173  10.537  1.00  0.00     0.182 A 
ATOM     18  HN  UNL     1     -43.889 -44.522   9.899  1.00  0.00     0.166 HD
ENDBRANCH  12  13
ENDBRANCH  11  12
ENDBRANCH   1  11
TORSDOF 5
ENDMDL
MODEL 8
REMARK VINA RESULT:      -4.8      1.951      2.682
REMARK  5 active torsions:
REMARK  status: ('A' for Active; 'I' for Inactive)
REMARK    1  A    between atoms: C_7  and  C_8 
REMARK    2  A    between atoms: C_8  and  N_9 
REMARK    3  A    between atoms: N_9  and  C_10 
REMARK    4  A    between atoms: C_10  and  C_11 
REMARK    5  A    between atoms: C_11  and  N_12 
ROOT
HETATM    1  N   UNL     1     -42.287 -51.608  11.839  1.00  0.00     0.085 N 
HETATM    2  H   UNL     1     -43.021 -50.903  11.757  1.00  0.00     0.315 HD
ENDROOT
BRANCH   1   3
HETATM    3  C   UNL     1     -42.645 -52.554  12.898  1.00  0.00     0.274 C 
BRANCH   3   4
HETATM    4  C   UNL     1     -44.171 -52.700  13.036  1.00  0.00     0.017 C 
HETATM    5  C   UNL     1     -44.846 -51.344  13.376  1.00  0.00    -0.013 C 
HETATM    6  C   UNL     1     -44.280 -50.652  14.625  1.00  0.00     0.010 C 
HETATM    7  C   UNL     1     -46.367 -51.536  13.506  1.00  0.00     0.005 C 
HETATM    8  C   UNL     1     -46.743 -52.624  14.510  1.00  0.00     0.000 C 
HETATM    9  C   UNL     1     -46.053 -53.945  14.195  1.00  0.00     0.000 C 
HETATM   10  C   UNL     1     -44.541 -53.787  14.065  1.00  0.00     0.007 C 
ENDBRANCH   3   4
ENDBRANCH   1   3
BRANCH   1  11
HETATM   11  C   UNL     1     -41.003 -50.940  12.089  1.00  0.00     0.289 C 
BRANCH  11  12
HETATM   12  C   UNL     1     -41.137 -49.620  12.858  1.00  0.00     0.159 C 
BRANCH  12  13
HETATM   13  N   UNL     1     -40.888 -48.473  12.015  1.00  0.00    -0.350 N 
HETATM   14  C   UNL     1     -39.956 -47.498  12.240  1.00  0.00     0.108 A 
HETATM   15  C   UNL     1     -40.064 -46.657  11.159  1.00  0.00     0.106 A 
HETATM   16  N   UNL     1     -41.031 -47.099  10.291  1.00  0.00    -0.361 N 
HETATM   17  C   UNL     1     -41.504 -48.201  10.829  1.00  0.00     0.182 A 
ATOM     18  HN  UNL     1     -41.321 -46.664   9.415  1.00  0.00     0.166 HD
ENDBRANCH  12  13
ENDBRANCH  11  12
ENDBRANCH   1  11
TORSDOF 5
ENDMDL
MODEL 9
REMARK VINA RESULT:      -4.8      3.112      3.852
REMARK  5 active torsions:
REMARK  status: ('A' for Active; 'I' for Inactive)
REMARK    1  A    between atoms: C_7  and  C_8 
REMARK    2  A    between atoms: C_8  and  N_9 
REMARK    3  A    between atoms: N_9  and  C_10 
REMARK    4  A    between atoms: C_10  and  C_11 
REMARK    5  A    between atoms: C_11  and  N_12 
ROOT
HETATM    1  N   UNL     1     -42.747 -50.317  13.564  1.00  0.00     0.085 N 
HETATM    2  H   UNL     1     -41.922 -50.640  14.070  1.00  0.00     0.315 HD
ENDROOT
BRANCH   1   3
HETATM    3  C   UNL     1     -43.561 -51.473  13.183  1.00  0.00     0.274 C 
BRANCH   3   4
HETATM    4  C   UNL     1     -44.594 -51.823  14.269  1.00  0.00     0.017 C 
HETATM    5  C   UNL     1     -45.881 -52.438  13.658  1.00  0.00    -0.013 C 
HETATM    6  C   UNL     1     -46.545 -51.572  12.578  1.00  0.00     0.010 C 
HETATM    7  C   UNL     1     -46.882 -52.771  14.777  1.00  0.00     0.005 C 
HETATM    8  C   UNL     1     -47.196 -51.571  15.668  1.00  0.00     0.000 C 
HETATM    9  C   UNL     1     -45.931 -50.946  16.239  1.00  0.00     0.000 C 
HETATM   10  C   UNL     1     -44.918 -50.601  15.152  1.00  0.00     0.007 C 
ENDBRANCH   3   4
ENDBRANCH   1   3
BRANCH   1  11
HETATM   11  C   UNL     1     -42.320 -49.521  12.405  1.00  0.00     0.289 C 
BRANCH  11  12
HETATM   12  C   UNL     1     -43.157 -48.255  12.187  1.00  0.00     0.159 C 
BRANCH  12  13
HETATM   13  N   UNL     1     -43.302 -47.935  10.786  1.00  0.00    -0.350 N 
HETATM   14  C   UNL     1     -44.461 -47.557  10.164  1.00  0.00     0.108 A 
HETATM   15  C   UNL     1     -44.096 -47.323   8.860  1.00  0.00     0.106 A 
HETATM   16  N   UNL     1     -42.754 -47.547   8.681  1.00  0.00    -0.361 N 
HETATM   17  C   UNL     1     -42.300 -47.906   9.861  1.00  0.00     0.182 A 
ATOM     18  HN  UNL     1     -42.221 -47.455   7.816  1.00  0.00     0.166 HD
ENDBRANCH  12  13
ENDBRANCH  11  12
ENDBRANCH   1  11
TORSDOF 5
ENDMDL
