MODEL 1
REMARK VINA RESULT:      -5.5      0.000      0.000
REMARK  5 active torsions:
REMARK  status: ('A' for Active; 'I' for Inactive)
REMARK       I    between atoms: C_2  and  N_3 
REMARK    1  A    between atoms: C_2  and  C_13 
REMARK    2  A    between atoms: N_3  and  C_4 
REMARK    3  A    between atoms: C_4  and  C_5 
REMARK    4  A    between atoms: C_5  and  C_6 
REMARK       I    between atoms: N_17  and  C_19 
REMARK    5  A    between atoms: C_19  and  C_21 
ROOT
HETATM    1  O   UNL     1     -42.743 -54.755  14.454  1.00  0.00    -0.273 OA
HETATM    2  C   UNL     1     -42.306 -54.231  13.437  1.00  0.00     0.223 C 
HETATM    3  N   UNL     1     -43.151 -53.744  12.456  1.00  0.00    -0.360 N 
HETATM    4  H   UNL     1     -42.778 -53.057  11.813  1.00  0.00     0.162 HD
ENDROOT
BRANCH   2   5
HETATM    5  C   UNL     1     -40.818 -54.079  13.117  1.00  0.00     0.096 C 
HETATM    6  C   UNL     1     -39.955 -54.312  14.372  1.00  0.00     0.017 C 
HETATM    7  C   UNL     1     -40.046 -53.141  15.359  1.00  0.00     0.021 C 
HETATM    8  C   UNL     1     -39.737 -51.815  14.668  1.00  0.00     0.126 C 
HETATM    9  N   UNL     1     -40.593 -51.641  13.501  1.00  0.00    -0.351 N 
HETATM   10  C   UNL     1     -40.504 -52.706  12.503  1.00  0.00     0.139 C 
HETATM   11  C   UNL     1     -41.567 -50.660  13.324  1.00  0.00     0.224 C 
HETATM   12  O   UNL     1     -42.131 -50.477  12.247  1.00  0.00    -0.273 OA
BRANCH  11  13
HETATM   13  C   UNL     1     -41.922 -49.783  14.481  1.00  0.00     0.078 A 
HETATM   14  C   UNL     1     -43.039 -50.185  15.425  1.00  0.00     0.015 A 
HETATM   15  C   UNL     1     -43.247 -49.052  14.463  1.00  0.00     0.015 A 
ENDBRANCH  11  13
ENDBRANCH   2   5
BRANCH   3  16
HETATM   16  C   UNL     1     -44.591 -53.801  12.656  1.00  0.00     0.128 C 
BRANCH  16  17
HETATM   17  C   UNL     1     -45.181 -52.425  12.931  1.00  0.00     0.076 C 
BRANCH  17  18
HETATM   18  C   UNL     1     -45.762 -52.331  14.316  1.00  0.00     0.010 A 
HETATM   19  C   UNL     1     -46.761 -51.405  14.607  1.00  0.00     0.025 A 
HETATM   20  C   UNL     1     -47.254 -51.336  15.908  1.00  0.00     0.003 A 
HETATM   21  C   UNL     1     -46.750 -52.198  16.874  1.00  0.00     0.017 A 
HETATM   22  C   UNL     1     -45.771 -53.100  16.497  1.00  0.00     0.088 A 
HETATM   23  N   UNL     1     -45.267 -53.184  15.245  1.00  0.00    -0.369 N 
ATOM     24  HN  UNL     1     -44.543 -53.863  15.009  1.00  0.00     0.165 HD
ENDBRANCH  17  18
ENDBRANCH  16  17
ENDBRANCH   3  16
TORSDOF 5
ENDMDL
MODEL 2
REMARK VINA RESULT:      -5.5      2.090      6.046
REMARK  5 active torsions:
REMARK  status: ('A' for Active; 'I' for Inactive)
REMARK       I    between atoms: C_2  and  N_3 
REMARK    1  A    between atoms: C_2  and  C_13 
REMARK    2  A    between atoms: N_3  and  C_4 
REMARK    3  A    between atoms: C_4  and  C_5 
REMARK    4  A    between atoms: C_5  and  C_6 
REMARK       I    between atoms: N_17  and  C_19 
REMARK    5  A    between atoms: C_19  and  C_21 
ROOT
HETATM    1  O   UNL     1     -44.376 -50.478  14.233  1.00  0.00    -0.273 OA
HETATM    2  C   UNL     1     -44.120 -51.255  13.321  1.00  0.00     0.223 C 
HETATM    3  N   UNL     1     -43.022 -51.068  12.502  1.00  0.00    -0.360 N 
HETATM    4  H   UNL     1     -42.675 -51.872  11.991  1.00  0.00     0.162 HD
ENDROOT
BRANCH   2   5
HETATM    5  C   UNL     1     -44.972 -52.473  12.963  1.00  0.00     0.096 C 
HETATM    6  C   UNL     1     -45.898 -52.865  14.132  1.00  0.00     0.017 C 
HETATM    7  C   UNL     1     -45.125 -53.520  15.284  1.00  0.00     0.021 C 
HETATM    8  C   UNL     1     -44.279 -54.688  14.784  1.00  0.00     0.126 C 
HETATM    9  N   UNL     1     -43.413 -54.256  13.693  1.00  0.00    -0.351 N 
HETATM   10  C   UNL     1     -44.106 -53.672  12.546  1.00  0.00     0.139 C 
HETATM   11  C   UNL     1     -42.020 -54.213  13.705  1.00  0.00     0.224 C 
HETATM   12  O   UNL     1     -41.357 -53.996  12.692  1.00  0.00    -0.273 OA
BRANCH  11  13
HETATM   13  C   UNL     1     -41.305 -54.464  14.994  1.00  0.00     0.078 A 
HETATM   14  C   UNL     1     -40.747 -53.301  15.792  1.00  0.00     0.015 A 
HETATM   15  C   UNL     1     -39.813 -54.219  15.060  1.00  0.00     0.015 A 
ENDBRANCH  11  13
ENDBRANCH   2   5
BRANCH   3  16
HETATM   16  C   UNL     1     -42.113 -49.962  12.759  1.00  0.00     0.128 C 
BRANCH  16  17
HETATM   17  C   UNL     1     -41.142 -49.744  11.607  1.00  0.00     0.076 C 
BRANCH  17  18
HETATM   18  C   UNL     1     -39.750 -50.200  11.955  1.00  0.00     0.010 A 
HETATM   19  C   UNL     1     -39.508 -50.918  13.123  1.00  0.00     0.025 A 
HETATM   20  C   UNL     1     -38.202 -51.300  13.418  1.00  0.00     0.003 A 
HETATM   21  C   UNL     1     -37.180 -50.968  12.538  1.00  0.00     0.017 A 
HETATM   22  C   UNL     1     -37.509 -50.267  11.391  1.00  0.00     0.088 A 
HETATM   23  N   UNL     1     -38.766 -49.876  11.082  1.00  0.00    -0.369 N 
ATOM     24  HN  UNL     1     -38.965 -49.359  10.226  1.00  0.00     0.165 HD
ENDBRANCH  17  18
ENDBRANCH  16  17
ENDBRANCH   3  16
TORSDOF 5
ENDMDL
MODEL 3
REMARK VINA RESULT:      -5.4      1.563      2.140
REMARK  5 active torsions:
REMARK  status: ('A' for Active; 'I' for Inactive)
REMARK       I    between atoms: C_2  and  N_3 
REMARK    1  A    between atoms: C_2  and  C_13 
REMARK    2  A    between atoms: N_3  and  C_4 
REMARK    3  A    between atoms: C_4  and  C_5 
REMARK    4  A    between atoms: C_5  and  C_6 
REMARK       I    between atoms: N_17  and  C_19 
REMARK    5  A    between atoms: C_19  and  C_21 
ROOT
HETATM    1  O   UNL     1     -41.293 -54.473  16.508  1.00  0.00    -0.273 OA
HETATM    2  C   UNL     1     -41.356 -54.525  15.286  1.00  0.00     0.223 C 
HETATM    3  N   UNL     1     -42.569 -54.639  14.631  1.00  0.00    -0.360 N 
HETATM    4  H   UNL     1     -42.605 -54.363  13.657  1.00  0.00     0.162 HD
ENDROOT
BRANCH   2   5
HETATM    5  C   UNL     1     -40.140 -54.503  14.358  1.00  0.00     0.096 C 
HETATM    6  C   UNL     1     -38.946 -53.794  15.026  1.00  0.00     0.017 C 
HETATM    7  C   UNL     1     -39.145 -52.275  15.097  1.00  0.00     0.021 C 
HETATM    8  C   UNL     1     -39.479 -51.700  13.722  1.00  0.00     0.126 C 
HETATM    9  N   UNL     1     -40.624 -52.396  13.147  1.00  0.00    -0.351 N 
HETATM   10  C   UNL     1     -40.464 -53.842  13.009  1.00  0.00     0.139 C 
HETATM   11  C   UNL     1     -41.873 -51.846  12.863  1.00  0.00     0.224 C 
HETATM   12  O   UNL     1     -42.732 -52.454  12.226  1.00  0.00    -0.273 OA
BRANCH  11  13
HETATM   13  C   UNL     1     -42.170 -50.458  13.331  1.00  0.00     0.078 A 
HETATM   14  C   UNL     1     -43.148 -50.233  14.468  1.00  0.00     0.015 A 
HETATM   15  C   UNL     1     -43.542 -49.877  13.065  1.00  0.00     0.015 A 
ENDBRANCH  11  13
ENDBRANCH   2   5
BRANCH   3  16
HETATM   16  C   UNL     1     -43.804 -54.639  15.400  1.00  0.00     0.128 C 
BRANCH  16  17
HETATM   17  C   UNL     1     -45.020 -54.899  14.523  1.00  0.00     0.076 C 
BRANCH  17  18
HETATM   18  C   UNL     1     -45.658 -53.618  14.056  1.00  0.00     0.010 A 
HETATM   19  C   UNL     1     -46.155 -52.695  14.973  1.00  0.00     0.025 A 
HETATM   20  C   UNL     1     -46.759 -51.534  14.497  1.00  0.00     0.003 A 
HETATM   21  C   UNL     1     -46.836 -51.320  13.127  1.00  0.00     0.017 A 
HETATM   22  C   UNL     1     -46.302 -52.279  12.285  1.00  0.00     0.088 A 
HETATM   23  N   UNL     1     -45.718 -53.419  12.717  1.00  0.00    -0.369 N 
ATOM     24  HN  UNL     1     -45.339 -54.102  12.061  1.00  0.00     0.165 HD
ENDBRANCH  17  18
ENDBRANCH  16  17
ENDBRANCH   3  16
TORSDOF 5
ENDMDL
MODEL 4
REMARK VINA RESULT:      -5.2      2.615      5.991
REMARK  5 active torsions:
REMARK  status: ('A' for Active; 'I' for Inactive)
REMARK       I    between atoms: C_2  and  N_3 
REMARK    1  A    between atoms: C_2  and  C_13 
REMARK    2  A    between atoms: N_3  and  C_4 
REMARK    3  A    between atoms: C_4  and  C_5 
REMARK    4  A    between atoms: C_5  and  C_6 
REMARK       I    between atoms: N_17  and  C_19 
REMARK    5  A    between atoms: C_19  and  C_21 
ROOT
HETATM    1  O   UNL     1     -44.146 -49.970  14.433  1.00  0.00    -0.273 OA
HETATM    2  C   UNL     1     -44.253 -50.800  13.539  1.00  0.00     0.223 C 
HETATM    3  N   UNL     1     -43.164 -51.185  12.779  1.00  0.00    -0.360 N 
HETATM    4  H   UNL     1     -43.221 -52.071  12.291  1.00  0.00     0.162 HD
ENDROOT
BRANCH   2   5
HETATM    5  C   UNL     1     -45.567 -51.473  13.141  1.00  0.00     0.096 C 
HETATM    6  C   UNL     1     -46.610 -51.364  14.271  1.00  0.00     0.017 C 
HETATM    7  C   UNL     1     -46.283 -52.293  15.447  1.00  0.00     0.021 C 
HETATM    8  C   UNL     1     -46.075 -53.728  14.973  1.00  0.00     0.126 C 
HETATM    9  N   UNL     1     -45.069 -53.773  13.919  1.00  0.00    -0.351 N 
HETATM   10  C   UNL     1     -45.359 -52.944  12.750  1.00  0.00     0.139 C 
HETATM   11  C   UNL     1     -43.823 -54.396  13.984  1.00  0.00     0.224 C 
HETATM   12  O   UNL     1     -43.100 -54.531  12.999  1.00  0.00    -0.273 OA
BRANCH  11  13
HETATM   13  C   UNL     1     -43.361 -54.939  15.298  1.00  0.00     0.078 A 
HETATM   14  C   UNL     1     -42.680 -54.027  16.301  1.00  0.00     0.015 A 
HETATM   15  C   UNL     1     -41.874 -55.051  15.558  1.00  0.00     0.015 A 
ENDBRANCH  11  13
ENDBRANCH   2   5
BRANCH   3  16
HETATM   16  C   UNL     1     -41.849 -50.641  13.080  1.00  0.00     0.128 C 
BRANCH  16  17
HETATM   17  C   UNL     1     -41.182 -50.049  11.845  1.00  0.00     0.076 C 
BRANCH  17  18
HETATM   18  C   UNL     1     -41.824 -48.753  11.430  1.00  0.00     0.010 A 
HETATM   19  C   UNL     1     -42.122 -47.773  12.373  1.00  0.00     0.025 A 
HETATM   20  C   UNL     1     -42.738 -46.597  11.948  1.00  0.00     0.003 A 
HETATM   21  C   UNL     1     -43.024 -46.428  10.600  1.00  0.00     0.017 A 
HETATM   22  C   UNL     1     -42.679 -47.444   9.726  1.00  0.00     0.088 A 
HETATM   23  N   UNL     1     -42.089 -48.598  10.110  1.00  0.00    -0.369 N 
ATOM     24  HN  UNL     1     -41.853 -49.324   9.433  1.00  0.00     0.165 HD
ENDBRANCH  17  18
ENDBRANCH  16  17
ENDBRANCH   3  16
TORSDOF 5
ENDMDL
MODEL 5
REMARK VINA RESULT:      -5.2      1.846      5.666
REMARK  5 active torsions:
REMARK  status: ('A' for Active; 'I' for Inactive)
REMARK       I    between atoms: C_2  and  N_3 
REMARK    1  A    between atoms: C_2  and  C_13 
REMARK    2  A    between atoms: N_3  and  C_4 
REMARK    3  A    between atoms: C_4  and  C_5 
REMARK    4  A    between atoms: C_5  and  C_6 
REMARK       I    between atoms: N_17  and  C_19 
REMARK    5  A    between atoms: C_19  and  C_21 
ROOT
HETATM    1  O   UNL     1     -43.712 -51.545  13.809  1.00  0.00    -0.273 OA
HETATM    2  C   UNL     1     -44.031 -52.335  12.930  1.00  0.00     0.223 C 
HETATM    3  N   UNL     1     -43.111 -52.797  12.006  1.00  0.00    -0.360 N 
HETATM    4  H   UNL     1     -43.327 -53.659  11.519  1.00  0.00     0.162 HD
ENDROOT
BRANCH   2   5
HETATM    5  C   UNL     1     -45.449 -52.871  12.727  1.00  0.00     0.096 C 
HETATM    6  C   UNL     1     -46.495 -51.753  12.906  1.00  0.00     0.017 C 
HETATM    7  C   UNL     1     -46.664 -51.352  14.377  1.00  0.00     0.021 C 
HETATM    8  C   UNL     1     -46.949 -52.572  15.249  1.00  0.00     0.126 C 
HETATM    9  N   UNL     1     -45.921 -53.587  15.052  1.00  0.00    -0.351 N 
HETATM   10  C   UNL     1     -45.756 -54.042  13.673  1.00  0.00     0.139 C 
HETATM   11  C   UNL     1     -45.008 -54.041  16.003  1.00  0.00     0.224 C 
HETATM   12  O   UNL     1     -44.283 -55.015  15.810  1.00  0.00    -0.273 OA
BRANCH  11  13
HETATM   13  C   UNL     1     -44.925 -53.330  17.315  1.00  0.00     0.078 A 
HETATM   14  C   UNL     1     -43.972 -52.162  17.487  1.00  0.00     0.015 A 
HETATM   15  C   UNL     1     -43.667 -53.476  18.145  1.00  0.00     0.015 A 
ENDBRANCH  11  13
ENDBRANCH   2   5
BRANCH   3  16
HETATM   16  C   UNL     1     -41.720 -52.385  12.110  1.00  0.00     0.128 C 
BRANCH  16  17
HETATM   17  C   UNL     1     -40.796 -53.567  12.370  1.00  0.00     0.076 C 
BRANCH  17  18
HETATM   18  C   UNL     1     -40.350 -53.623  13.807  1.00  0.00     0.010 A 
HETATM   19  C   UNL     1     -39.337 -54.493  14.204  1.00  0.00     0.025 A 
HETATM   20  C   UNL     1     -38.972 -54.530  15.548  1.00  0.00     0.003 A 
HETATM   21  C   UNL     1     -39.614 -53.692  16.451  1.00  0.00     0.017 A 
HETATM   22  C   UNL     1     -40.598 -52.846  15.971  1.00  0.00     0.088 A 
HETATM   23  N   UNL     1     -40.979 -52.794  14.674  1.00  0.00    -0.369 N 
ATOM     24  HN  UNL     1     -41.711 -52.156  14.362  1.00  0.00     0.165 HD
ENDBRANCH  17  18
ENDBRANCH  16  17
ENDBRANCH   3  16
TORSDOF 5
ENDMDL
MODEL 6
REMARK VINA RESULT:      -5.2      2.149      6.186
REMARK  5 active torsions:
REMARK  status: ('A' for Active; 'I' for Inactive)
REMARK       I    between atoms: C_2  and  N_3 
REMARK    1  A    between atoms: C_2  and  C_13 
REMARK    2  A    between atoms: N_3  and  C_4 
REMARK    3  A    between atoms: C_4  and  C_5 
REMARK    4  A    between atoms: C_5  and  C_6 
REMARK       I    between atoms: N_17  and  C_19 
REMARK    5  A    between atoms: C_19  and  C_21 
ROOT
HETATM    1  O   UNL     1     -42.667 -52.732  16.339  1.00  0.00    -0.273 OA
HETATM    2  C   UNL     1     -42.092 -52.969  15.284  1.00  0.00     0.223 C 
HETATM    3  N   UNL     1     -41.278 -52.028  14.679  1.00  0.00    -0.360 N 
HETATM    4  H   UNL     1     -40.594 -52.360  14.009  1.00  0.00     0.162 HD
ENDROOT
BRANCH   2   5
HETATM    5  C   UNL     1     -42.222 -54.280  14.508  1.00  0.00     0.096 C 
HETATM    6  C   UNL     1     -42.194 -54.031  12.988  1.00  0.00     0.017 C 
HETATM    7  C   UNL     1     -43.496 -53.396  12.485  1.00  0.00     0.021 C 
HETATM    8  C   UNL     1     -44.710 -54.210  12.927  1.00  0.00     0.126 C 
HETATM    9  N   UNL     1     -44.693 -54.400  14.372  1.00  0.00    -0.351 N 
HETATM   10  C   UNL     1     -43.494 -55.050  14.897  1.00  0.00     0.139 C 
HETATM   11  C   UNL     1     -45.619 -53.901  15.287  1.00  0.00     0.224 C 
HETATM   12  O   UNL     1     -45.630 -54.243  16.468  1.00  0.00    -0.273 OA
BRANCH  11  13
HETATM   13  C   UNL     1     -46.652 -52.933  14.807  1.00  0.00     0.078 A 
HETATM   14  C   UNL     1     -46.316 -51.458  14.692  1.00  0.00     0.015 A 
HETATM   15  C   UNL     1     -47.224 -51.932  15.788  1.00  0.00     0.015 A 
ENDBRANCH  11  13
ENDBRANCH   2   5
BRANCH   3  16
HETATM   16  C   UNL     1     -41.048 -50.750  15.334  1.00  0.00     0.128 C 
BRANCH  16  17
HETATM   17  C   UNL     1     -39.566 -50.418  15.428  1.00  0.00     0.076 C 
BRANCH  17  18
HETATM   18  C   UNL     1     -38.953 -50.205  14.070  1.00  0.00     0.010 A 
HETATM   19  C   UNL     1     -37.948 -51.049  13.603  1.00  0.00     0.025 A 
HETATM   20  C   UNL     1     -37.392 -50.801  12.350  1.00  0.00     0.003 A 
HETATM   21  C   UNL     1     -37.860 -49.733  11.596  1.00  0.00     0.017 A 
HETATM   22  C   UNL     1     -38.872 -48.954  12.127  1.00  0.00     0.088 A 
HETATM   23  N   UNL     1     -39.426 -49.164  13.342  1.00  0.00    -0.369 N 
ATOM     24  HN  UNL     1     -40.170 -48.563  13.697  1.00  0.00     0.165 HD
ENDBRANCH  17  18
ENDBRANCH  16  17
ENDBRANCH   3  16
TORSDOF 5
ENDMDL
MODEL 7
REMARK VINA RESULT:      -5.2      2.466      5.936
REMARK  5 active torsions:
REMARK  status: ('A' for Active; 'I' for Inactive)
REMARK       I    between atoms: C_2  and  N_3 
REMARK    1  A    between atoms: C_2  and  C_13 
REMARK    2  A    between atoms: N_3  and  C_4 
REMARK    3  A    between atoms: C_4  and  C_5 
REMARK    4  A    between atoms: C_5  and  C_6 
REMARK       I    between atoms: N_17  and  C_19 
REMARK    5  A    between atoms: C_19  and  C_21 
ROOT
HETATM    1  O   UNL     1     -45.350 -50.682  15.890  1.00  0.00    -0.273 OA
HETATM    2  C   UNL     1     -45.327 -51.022  14.713  1.00  0.00     0.223 C 
HETATM    3  N   UNL     1     -44.336 -50.583  13.854  1.00  0.00    -0.360 N 
HETATM    4  H   UNL     1     -44.173 -51.120  13.011  1.00  0.00     0.162 HD
ENDROOT
BRANCH   2   5
HETATM    5  C   UNL     1     -46.375 -51.922  14.057  1.00  0.00     0.096 C 
HETATM    6  C   UNL     1     -46.959 -52.924  15.071  1.00  0.00     0.017 C 
HETATM    7  C   UNL     1     -45.962 -54.036  15.421  1.00  0.00     0.021 C 
HETATM    8  C   UNL     1     -45.431 -54.714  14.161  1.00  0.00     0.126 C 
HETATM    9  N   UNL     1     -44.876 -53.723  13.248  1.00  0.00    -0.351 N 
HETATM   10  C   UNL     1     -45.804 -52.668  12.841  1.00  0.00     0.139 C 
HETATM   11  C   UNL     1     -43.543 -53.607  12.856  1.00  0.00     0.224 C 
HETATM   12  O   UNL     1     -43.183 -52.851  11.956  1.00  0.00    -0.273 OA
BRANCH  11  13
HETATM   13  C   UNL     1     -42.518 -54.451  13.542  1.00  0.00     0.078 A 
HETATM   14  C   UNL     1     -41.811 -53.933  14.780  1.00  0.00     0.015 A 
HETATM   15  C   UNL     1     -41.066 -54.028  13.481  1.00  0.00     0.015 A 
ENDBRANCH  11  13
ENDBRANCH   2   5
BRANCH   3  16
HETATM   16  C   UNL     1     -43.262 -49.746  14.366  1.00  0.00     0.128 C 
BRANCH  16  17
HETATM   17  C   UNL     1     -41.938 -50.030  13.669  1.00  0.00     0.076 C 
BRANCH  17  18
HETATM   18  C   UNL     1     -41.627 -49.001  12.616  1.00  0.00     0.010 A 
HETATM   19  C   UNL     1     -40.767 -47.941  12.890  1.00  0.00     0.025 A 
HETATM   20  C   UNL     1     -40.526 -46.998  11.894  1.00  0.00     0.003 A 
HETATM   21  C   UNL     1     -41.134 -47.146  10.654  1.00  0.00     0.017 A 
HETATM   22  C   UNL     1     -41.961 -48.238  10.459  1.00  0.00     0.088 A 
HETATM   23  N   UNL     1     -42.221 -49.164  11.409  1.00  0.00    -0.369 N 
ATOM     24  HN  UNL     1     -42.840 -49.954  11.224  1.00  0.00     0.165 HD
ENDBRANCH  17  18
ENDBRANCH  16  17
ENDBRANCH   3  16
TORSDOF 5
ENDMDL
MODEL 8
REMARK VINA RESULT:      -5.1      2.522      3.907
REMARK  5 active torsions:
REMARK  status: ('A' for Active; 'I' for Inactive)
REMARK       I    between atoms: C_2  and  N_3 
REMARK    1  A    between atoms: C_2  and  C_13 
REMARK    2  A    between atoms: N_3  and  C_4 
REMARK    3  A    between atoms: C_4  and  C_5 
REMARK    4  A    between atoms: C_5  and  C_6 
REMARK       I    between atoms: N_17  and  C_19 
REMARK    5  A    between atoms: C_19  and  C_21 
ROOT
HETATM    1  O   UNL     1     -39.144 -51.832  14.339  1.00  0.00    -0.273 OA
HETATM    2  C   UNL     1     -38.992 -51.329  13.233  1.00  0.00     0.223 C 
HETATM    3  N   UNL     1     -39.775 -51.705  12.156  1.00  0.00    -0.360 N 
HETATM    4  H   UNL     1     -39.837 -51.064  11.374  1.00  0.00     0.162 HD
ENDROOT
BRANCH   2   5
HETATM    5  C   UNL     1     -37.932 -50.278  12.903  1.00  0.00     0.096 C 
HETATM    6  C   UNL     1     -37.522 -49.490  14.163  1.00  0.00     0.017 C 
HETATM    7  C   UNL     1     -38.614 -48.509  14.608  1.00  0.00     0.021 C 
HETATM    8  C   UNL     1     -39.040 -47.602  13.457  1.00  0.00     0.126 C 
HETATM    9  N   UNL     1     -39.432 -48.400  12.302  1.00  0.00    -0.351 N 
HETATM   10  C   UNL     1     -38.406 -49.315  11.804  1.00  0.00     0.139 C 
HETATM   11  C   UNL     1     -40.705 -48.476  11.737  1.00  0.00     0.224 C 
HETATM   12  O   UNL     1     -40.919 -49.040  10.666  1.00  0.00    -0.273 OA
BRANCH  11  13
HETATM   13  C   UNL     1     -41.847 -47.828  12.451  1.00  0.00     0.078 A 
HETATM   14  C   UNL     1     -42.718 -48.642  13.389  1.00  0.00     0.015 A 
HETATM   15  C   UNL     1     -43.260 -48.204  12.060  1.00  0.00     0.015 A 
ENDBRANCH  11  13
ENDBRANCH   2   5
BRANCH   3  16
HETATM   16  C   UNL     1     -40.841 -52.675  12.348  1.00  0.00     0.128 C 
BRANCH  16  17
HETATM   17  C   UNL     1     -42.218 -52.044  12.197  1.00  0.00     0.076 C 
BRANCH  17  18
HETATM   18  C   UNL     1     -43.299 -52.909  12.788  1.00  0.00     0.010 A 
HETATM   19  C   UNL     1     -42.978 -53.970  13.631  1.00  0.00     0.025 A 
HETATM   20  C   UNL     1     -44.007 -54.760  14.137  1.00  0.00     0.003 A 
HETATM   21  C   UNL     1     -45.322 -54.462  13.803  1.00  0.00     0.017 A 
HETATM   22  C   UNL     1     -45.555 -53.379  12.974  1.00  0.00     0.088 A 
HETATM   23  N   UNL     1     -44.576 -52.600  12.460  1.00  0.00    -0.369 N 
ATOM     24  HN  UNL     1     -44.792 -51.811  11.850  1.00  0.00     0.165 HD
ENDBRANCH  17  18
ENDBRANCH  16  17
ENDBRANCH   3  16
TORSDOF 5
ENDMDL
MODEL 9
REMARK VINA RESULT:      -5.1      2.876      5.903
REMARK  5 active torsions:
REMARK  status: ('A' for Active; 'I' for Inactive)
REMARK       I    between atoms: C_2  and  N_3 
REMARK    1  A    between atoms: C_2  and  C_13 
REMARK    2  A    between atoms: N_3  and  C_4 
REMARK    3  A    between atoms: C_4  and  C_5 
REMARK    4  A    between atoms: C_5  and  C_6 
REMARK       I    between atoms: N_17  and  C_19 
REMARK    5  A    between atoms: C_19  and  C_21 
ROOT
HETATM    1  O   UNL     1     -42.671 -51.222  15.216  1.00  0.00    -0.273 OA
HETATM    2  C   UNL     1     -42.221 -51.978  14.364  1.00  0.00     0.223 C 
HETATM    3  N   UNL     1     -41.727 -51.499  13.163  1.00  0.00    -0.360 N 
HETATM    4  H   UNL     1     -41.094 -52.096  12.644  1.00  0.00     0.162 HD
ENDROOT
BRANCH   2   5
HETATM    5  C   UNL     1     -42.177 -53.500  14.499  1.00  0.00     0.096 C 
HETATM    6  C   UNL     1     -42.502 -54.186  13.158  1.00  0.00     0.017 C 
HETATM    7  C   UNL     1     -43.990 -54.081  12.802  1.00  0.00     0.021 C 
HETATM    8  C   UNL     1     -44.865 -54.582  13.948  1.00  0.00     0.126 C 
HETATM    9  N   UNL     1     -44.527 -53.889  15.185  1.00  0.00    -0.351 N 
HETATM   10  C   UNL     1     -43.128 -54.003  15.597  1.00  0.00     0.139 C 
HETATM   11  C   UNL     1     -45.353 -53.031  15.910  1.00  0.00     0.224 C 
HETATM   12  O   UNL     1     -45.055 -52.617  17.028  1.00  0.00    -0.273 OA
BRANCH  11  13
HETATM   13  C   UNL     1     -46.660 -52.619  15.313  1.00  0.00     0.078 A 
HETATM   14  C   UNL     1     -46.736 -51.396  14.420  1.00  0.00     0.015 A 
HETATM   15  C   UNL     1     -47.317 -51.347  15.803  1.00  0.00     0.015 A 
ENDBRANCH  11  13
ENDBRANCH   2   5
BRANCH   3  16
HETATM   16  C   UNL     1     -41.684 -50.065  12.925  1.00  0.00     0.128 C 
BRANCH  16  17
HETATM   17  C   UNL     1     -40.943 -49.723  11.640  1.00  0.00     0.076 C 
BRANCH  17  18
HETATM   18  C   UNL     1     -41.420 -48.425  11.047  1.00  0.00     0.010 A 
HETATM   19  C   UNL     1     -40.658 -47.265  11.170  1.00  0.00     0.025 A 
HETATM   20  C   UNL     1     -41.148 -46.079  10.627  1.00  0.00     0.003 A 
HETATM   21  C   UNL     1     -42.371 -46.087   9.968  1.00  0.00     0.017 A 
HETATM   22  C   UNL     1     -43.056 -47.285   9.876  1.00  0.00     0.088 A 
HETATM   23  N   UNL     1     -42.610 -48.449  10.400  1.00  0.00    -0.369 N 
ATOM     24  HN  UNL     1     -43.148 -49.311  10.312  1.00  0.00     0.165 HD
ENDBRANCH  17  18
ENDBRANCH  16  17
ENDBRANCH   3  16
TORSDOF 5
ENDMDL
