MODEL 1
REMARK VINA RESULT:      -5.7      0.000      0.000
REMARK  6 active torsions:
REMARK  status: ('A' for Active; 'I' for Inactive)
REMARK    1  A    between atoms: C_2  and  C_3 
REMARK    2  A    between atoms: C_3  and  C_5 
REMARK    3  A    between atoms: C_3  and  N_16 
REMARK    4  A    between atoms: C_5  and  N_6 
REMARK       I    between atoms: N_6  and  C_7 
REMARK    5  A    between atoms: C_7  and  C_9 
REMARK    6  A    between atoms: C_9  and  N_10 
ROOT
HETATM    1  C   UNL     1     -42.423 -52.291  12.090  1.00  0.00     0.164 C 
ENDROOT
BRANCH   1   2
HETATM    2  C   UNL     1     -43.178 -53.015  13.285  1.00  0.00     0.171 C 
HETATM    3  C   UNL     1     -43.250 -52.038  14.475  1.00  0.00     0.051 C 
BRANCH   2   4
HETATM    4  C   UNL     1     -42.256 -54.230  13.705  1.00  0.00     0.038 C 
HETATM    5  C   UNL     1     -40.816 -54.247  13.194  1.00  0.00     0.007 C 
ENDBRANCH   2   4
BRANCH   2   6
HETATM    6  N   UNL     1     -44.510 -53.579  12.852  1.00  0.00     0.103 N 
HETATM    7  C   UNL     1     -45.641 -52.661  12.598  1.00  0.00     0.299 C 
HETATM    8  C   UNL     1     -46.500 -52.295  13.822  1.00  0.00     0.198 C 
HETATM    9  O   UNL     1     -46.966 -53.454  14.521  1.00  0.00    -0.388 OA
HETATM   10  C   UNL     1     -45.880 -54.320  14.863  1.00  0.00     0.198 C 
HETATM   11  C   UNL     1     -45.076 -54.720  13.614  1.00  0.00     0.299 C 
ENDBRANCH   2   6
ENDBRANCH   1   2
BRANCH   1  12
HETATM   12  N   UNL     1     -42.321 -50.838  12.146  1.00  0.00    -0.357 N 
HETATM   13  C   UNL     1     -41.148 -50.154  11.905  1.00  0.00     0.237 C 
HETATM   14  O   UNL     1     -40.074 -50.705  11.678  1.00  0.00    -0.272 OA
HETATM   15  H   UNL     1     -43.180 -50.316  12.004  1.00  0.00     0.162 HD
BRANCH  13  16
HETATM   16  C   UNL     1     -41.266 -48.649  11.997  1.00  0.00     0.250 C 
BRANCH  16  17
HETATM   17  N   UNL     1     -42.187 -48.120  11.012  1.00  0.00    -0.295 N 
HETATM   18  C   UNL     1     -43.430 -47.603  11.243  1.00  0.00     0.112 A 
HETATM   19  C   UNL     1     -43.985 -47.365  10.010  1.00  0.00     0.037 A 
HETATM   20  C   UNL     1     -42.997 -47.764   9.095  1.00  0.00     0.108 A 
HETATM   21  N   UNL     1     -41.892 -48.219   9.697  1.00  0.00    -0.310 N 
ATOM     22  HN  UNL     1     -41.032 -48.559   9.267  1.00  0.00     0.186 HD
ENDBRANCH  16  17
ENDBRANCH  13  16
ENDBRANCH   1  12
TORSDOF 6
ENDMDL
MODEL 2
REMARK VINA RESULT:      -5.6      1.881      3.038
REMARK  6 active torsions:
REMARK  status: ('A' for Active; 'I' for Inactive)
REMARK    1  A    between atoms: C_2  and  C_3 
REMARK    2  A    between atoms: C_3  and  C_5 
REMARK    3  A    between atoms: C_3  and  N_16 
REMARK    4  A    between atoms: C_5  and  N_6 
REMARK       I    between atoms: N_6  and  C_7 
REMARK    5  A    between atoms: C_7  and  C_9 
REMARK    6  A    between atoms: C_9  and  N_10 
ROOT
HETATM    1  C   UNL     1     -42.738 -51.217  12.882  1.00  0.00     0.164 C 
ENDROOT
BRANCH   1   2
HETATM    2  C   UNL     1     -43.884 -52.146  13.468  1.00  0.00     0.171 C 
HETATM    3  C   UNL     1     -44.174 -53.261  12.444  1.00  0.00     0.051 C 
BRANCH   2   4
HETATM    4  C   UNL     1     -45.171 -51.232  13.571  1.00  0.00     0.038 C 
HETATM    5  C   UNL     1     -46.417 -51.659  12.796  1.00  0.00     0.007 C 
ENDBRANCH   2   4
BRANCH   2   6
HETATM    6  N   UNL     1     -43.558 -52.637  14.857  1.00  0.00     0.103 N 
HETATM    7  C   UNL     1     -42.150 -52.666  15.307  1.00  0.00     0.299 C 
HETATM    8  C   UNL     1     -41.359 -53.942  14.965  1.00  0.00     0.198 C 
HETATM    9  O   UNL     1     -42.032 -55.128  15.403  1.00  0.00    -0.388 OA
HETATM   10  C   UNL     1     -43.372 -55.173  14.906  1.00  0.00     0.198 C 
HETATM   11  C   UNL     1     -44.157 -53.916  15.314  1.00  0.00     0.299 C 
ENDBRANCH   2   6
ENDBRANCH   1   2
BRANCH   1  12
HETATM   12  N   UNL     1     -43.108 -49.861  12.492  1.00  0.00    -0.357 N 
HETATM   13  C   UNL     1     -42.304 -49.053  11.717  1.00  0.00     0.237 C 
HETATM   14  O   UNL     1     -41.184 -49.376  11.331  1.00  0.00    -0.272 OA
HETATM   15  H   UNL     1     -44.100 -49.645  12.485  1.00  0.00     0.162 HD
BRANCH  13  16
HETATM   16  C   UNL     1     -42.886 -47.690  11.415  1.00  0.00     0.250 C 
BRANCH  16  17
HETATM   17  N   UNL     1     -43.449 -47.628  10.081  1.00  0.00    -0.295 N 
HETATM   18  C   UNL     1     -44.765 -47.470   9.752  1.00  0.00     0.112 A 
HETATM   19  C   UNL     1     -44.842 -47.615   8.389  1.00  0.00     0.037 A 
HETATM   20  C   UNL     1     -43.517 -47.852   7.983  1.00  0.00     0.108 A 
HETATM   21  N   UNL     1     -42.659 -47.852   9.009  1.00  0.00    -0.310 N 
ATOM     22  HN  UNL     1     -41.648 -47.990   8.988  1.00  0.00     0.186 HD
ENDBRANCH  16  17
ENDBRANCH  13  16
ENDBRANCH   1  12
TORSDOF 6
ENDMDL
MODEL 3
REMARK VINA RESULT:      -5.5      2.298      3.025
REMARK  6 active torsions:
REMARK  status: ('A' for Active; 'I' for Inactive)
REMARK    1  A    between atoms: C_2  and  C_3 
REMARK    2  A    between atoms: C_3  and  C_5 
REMARK    3  A    between atoms: C_3  and  N_16 
REMARK    4  A    between atoms: C_5  and  N_6 
REMARK       I    between atoms: N_6  and  C_7 
REMARK    5  A    between atoms: C_7  and  C_9 
REMARK    6  A    between atoms: C_9  and  N_10 
ROOT
HETATM    1  C   UNL     1     -43.257 -53.248  12.538  1.00  0.00     0.164 C 
ENDROOT
BRANCH   1   2
HETATM    2  C   UNL     1     -43.869 -53.449  13.988  1.00  0.00     0.171 C 
HETATM    3  C   UNL     1     -43.395 -52.285  14.880  1.00  0.00     0.051 C 
BRANCH   2   4
HETATM    4  C   UNL     1     -43.228 -54.784  14.546  1.00  0.00     0.038 C 
HETATM    5  C   UNL     1     -41.849 -54.697  15.199  1.00  0.00     0.007 C 
ENDBRANCH   2   4
BRANCH   2   6
HETATM    6  N   UNL     1     -45.365 -53.642  13.948  1.00  0.00     0.103 N 
HETATM    7  C   UNL     1     -46.216 -52.607  13.322  1.00  0.00     0.299 C 
HETATM    8  C   UNL     1     -46.661 -51.454  14.241  1.00  0.00     0.198 C 
HETATM    9  O   UNL     1     -47.282 -51.929  15.441  1.00  0.00    -0.388 OA
HETATM   10  C   UNL     1     -46.440 -52.866  16.119  1.00  0.00     0.198 C 
HETATM   11  C   UNL     1     -46.061 -54.037  15.198  1.00  0.00     0.299 C 
ENDBRANCH   2   6
ENDBRANCH   1   2
BRANCH   1  12
HETATM   12  N   UNL     1     -42.679 -51.945  12.229  1.00  0.00    -0.357 N 
HETATM   13  C   UNL     1     -41.335 -51.754  11.985  1.00  0.00     0.237 C 
HETATM   14  O   UNL     1     -40.496 -52.649  12.059  1.00  0.00    -0.272 OA
HETATM   15  H   UNL     1     -43.307 -51.250  11.840  1.00  0.00     0.162 HD
BRANCH  13  16
HETATM   16  C   UNL     1     -40.949 -50.327  11.668  1.00  0.00     0.250 C 
BRANCH  16  17
HETATM   17  N   UNL     1     -39.545 -50.079  11.927  1.00  0.00    -0.295 N 
HETATM   18  C   UNL     1     -38.997 -49.583  13.076  1.00  0.00     0.112 A 
HETATM   19  C   UNL     1     -37.665 -49.384  12.813  1.00  0.00     0.037 A 
HETATM   20  C   UNL     1     -37.502 -49.794  11.479  1.00  0.00     0.108 A 
HETATM   21  N   UNL     1     -38.644 -50.229  10.933  1.00  0.00    -0.310 N 
ATOM     22  HN  UNL     1     -38.797 -50.587   9.990  1.00  0.00     0.186 HD
ENDBRANCH  16  17
ENDBRANCH  13  16
ENDBRANCH   1  12
TORSDOF 6
ENDMDL
MODEL 4
REMARK VINA RESULT:      -5.3      1.521      1.754
REMARK  6 active torsions:
REMARK  status: ('A' for Active; 'I' for Inactive)
REMARK    1  A    between atoms: C_2  and  C_3 
REMARK    2  A    between atoms: C_3  and  C_5 
REMARK    3  A    between atoms: C_3  and  N_16 
REMARK    4  A    between atoms: C_5  and  N_6 
REMARK       I    between atoms: N_6  and  C_7 
REMARK    5  A    between atoms: C_7  and  C_9 
REMARK    6  A    between atoms: C_9  and  N_10 
ROOT
HETATM    1  C   UNL     1     -43.412 -50.733  13.411  1.00  0.00     0.164 C 
ENDROOT
BRANCH   1   2
HETATM    2  C   UNL     1     -43.386 -52.320  13.448  1.00  0.00     0.171 C 
HETATM    3  C   UNL     1     -42.991 -52.764  14.870  1.00  0.00     0.051 C 
BRANCH   2   4
HETATM    4  C   UNL     1     -42.229 -52.756  12.461  1.00  0.00     0.038 C 
HETATM    5  C   UNL     1     -41.213 -53.784  12.958  1.00  0.00     0.007 C 
ENDBRANCH   2   4
BRANCH   2   6
HETATM    6  N   UNL     1     -44.674 -52.918  12.938  1.00  0.00     0.103 N 
HETATM    7  C   UNL     1     -45.913 -52.112  12.967  1.00  0.00     0.299 C 
HETATM    8  C   UNL     1     -46.723 -52.168  14.275  1.00  0.00     0.198 C 
HETATM    9  O   UNL     1     -47.011 -53.512  14.675  1.00  0.00    -0.388 OA
HETATM   10  C   UNL     1     -45.816 -54.295  14.745  1.00  0.00     0.198 C 
HETATM   11  C   UNL     1     -45.059 -54.273  13.408  1.00  0.00     0.299 C 
ENDBRANCH   2   6
ENDBRANCH   1   2
BRANCH   1  12
HETATM   12  N   UNL     1     -42.898 -50.082  12.212  1.00  0.00    -0.357 N 
HETATM   13  C   UNL     1     -42.756 -48.716  12.097  1.00  0.00     0.237 C 
HETATM   14  O   UNL     1     -43.100 -47.920  12.967  1.00  0.00    -0.272 OA
HETATM   15  H   UNL     1     -42.310 -50.646  11.605  1.00  0.00     0.162 HD
BRANCH  13  16
HETATM   16  C   UNL     1     -42.187 -48.250  10.775  1.00  0.00     0.250 C 
BRANCH  16  17
HETATM   17  N   UNL     1     -43.165 -47.515   9.998  1.00  0.00    -0.295 N 
HETATM   18  C   UNL     1     -42.977 -46.323   9.358  1.00  0.00     0.112 A 
HETATM   19  C   UNL     1     -44.207 -45.944   8.881  1.00  0.00     0.037 A 
HETATM   20  C   UNL     1     -45.075 -46.976   9.278  1.00  0.00     0.108 A 
HETATM   21  N   UNL     1     -44.445 -47.944   9.953  1.00  0.00    -0.310 N 
ATOM     22  HN  UNL     1     -44.837 -48.802  10.341  1.00  0.00     0.186 HD
ENDBRANCH  16  17
ENDBRANCH  13  16
ENDBRANCH   1  12
TORSDOF 6
ENDMDL
MODEL 5
REMARK VINA RESULT:      -5.3      2.165      3.653
REMARK  6 active torsions:
REMARK  status: ('A' for Active; 'I' for Inactive)
REMARK    1  A    between atoms: C_2  and  C_3 
REMARK    2  A    between atoms: C_3  and  C_5 
REMARK    3  A    between atoms: C_3  and  N_16 
REMARK    4  A    between atoms: C_5  and  N_6 
REMARK       I    between atoms: N_6  and  C_7 
REMARK    5  A    between atoms: C_7  and  C_9 
REMARK    6  A    between atoms: C_9  and  N_10 
ROOT
HETATM    1  C   UNL     1     -44.000 -50.612  13.591  1.00  0.00     0.164 C 
ENDROOT
BRANCH   1   2
HETATM    2  C   UNL     1     -44.830 -51.951  13.395  1.00  0.00     0.171 C 
HETATM    3  C   UNL     1     -44.267 -52.694  12.167  1.00  0.00     0.051 C 
BRANCH   2   4
HETATM    4  C   UNL     1     -46.307 -51.498  13.057  1.00  0.00     0.038 C 
HETATM    5  C   UNL     1     -46.877 -51.874  11.690  1.00  0.00     0.007 C 
ENDBRANCH   2   4
BRANCH   2   6
HETATM    6  N   UNL     1     -44.881 -52.774  14.659  1.00  0.00     0.103 N 
HETATM    7  C   UNL     1     -43.635 -53.363  15.196  1.00  0.00     0.299 C 
HETATM    8  C   UNL     1     -43.246 -54.743  14.636  1.00  0.00     0.198 C 
HETATM    9  O   UNL     1     -44.313 -55.690  14.743  1.00  0.00    -0.388 OA
HETATM   10  C   UNL     1     -45.512 -55.185  14.149  1.00  0.00     0.198 C 
HETATM   11  C   UNL     1     -45.912 -53.837  14.770  1.00  0.00     0.299 C 
ENDBRANCH   2   6
ENDBRANCH   1   2
BRANCH   1  12
HETATM   12  N   UNL     1     -43.041 -50.260  12.551  1.00  0.00    -0.357 N 
HETATM   13  C   UNL     1     -42.630 -48.966  12.310  1.00  0.00     0.237 C 
HETATM   14  O   UNL     1     -43.074 -47.989  12.907  1.00  0.00    -0.272 OA
HETATM   15  H   UNL     1     -42.407 -50.994  12.250  1.00  0.00     0.162 HD
BRANCH  13  16
HETATM   16  C   UNL     1     -41.616 -48.824  11.197  1.00  0.00     0.250 C 
BRANCH  16  17
HETATM   17  N   UNL     1     -40.275 -49.137  11.647  1.00  0.00    -0.295 N 
HETATM   18  C   UNL     1     -39.631 -48.618  12.733  1.00  0.00     0.112 A 
HETATM   19  C   UNL     1     -38.343 -49.091  12.682  1.00  0.00     0.037 A 
HETATM   20  C   UNL     1     -38.308 -49.895  11.530  1.00  0.00     0.108 A 
HETATM   21  N   UNL     1     -39.486 -49.936  10.896  1.00  0.00    -0.310 N 
ATOM     22  HN  UNL     1     -39.730 -50.448  10.048  1.00  0.00     0.186 HD
ENDBRANCH  16  17
ENDBRANCH  13  16
ENDBRANCH   1  12
TORSDOF 6
ENDMDL
MODEL 6
REMARK VINA RESULT:      -5.3      2.711      4.113
REMARK  6 active torsions:
REMARK  status: ('A' for Active; 'I' for Inactive)
REMARK    1  A    between atoms: C_2  and  C_3 
REMARK    2  A    between atoms: C_3  and  C_5 
REMARK    3  A    between atoms: C_3  and  N_16 
REMARK    4  A    between atoms: C_5  and  N_6 
REMARK       I    between atoms: N_6  and  C_7 
REMARK    5  A    between atoms: C_7  and  C_9 
REMARK    6  A    between atoms: C_9  and  N_10 
ROOT
HETATM    1  C   UNL     1     -43.264 -53.237  12.693  1.00  0.00     0.164 C 
ENDROOT
BRANCH   1   2
HETATM    2  C   UNL     1     -44.332 -53.211  13.867  1.00  0.00     0.171 C 
HETATM    3  C   UNL     1     -45.574 -53.999  13.409  1.00  0.00     0.051 C 
BRANCH   2   4
HETATM    4  C   UNL     1     -44.750 -51.695  14.036  1.00  0.00     0.038 C 
HETATM    5  C   UNL     1     -46.241 -51.357  14.026  1.00  0.00     0.007 C 
ENDBRANCH   2   4
BRANCH   2   6
HETATM    6  N   UNL     1     -43.741 -53.673  15.177  1.00  0.00     0.103 N 
HETATM    7  C   UNL     1     -42.993 -52.713  16.017  1.00  0.00     0.299 C 
HETATM    8  C   UNL     1     -41.493 -52.570  15.704  1.00  0.00     0.198 C 
HETATM    9  O   UNL     1     -40.819 -53.833  15.696  1.00  0.00    -0.388 OA
HETATM   10  C   UNL     1     -41.469 -54.757  14.818  1.00  0.00     0.198 C 
HETATM   11  C   UNL     1     -42.950 -54.929  15.192  1.00  0.00     0.299 C 
ENDBRANCH   2   6
ENDBRANCH   1   2
BRANCH   1  12
HETATM   12  N   UNL     1     -42.696 -51.961  12.275  1.00  0.00    -0.357 N 
HETATM   13  C   UNL     1     -41.357 -51.785  11.995  1.00  0.00     0.237 C 
HETATM   14  O   UNL     1     -40.514 -52.669  12.125  1.00  0.00    -0.272 OA
HETATM   15  H   UNL     1     -43.333 -51.299  11.843  1.00  0.00     0.162 HD
BRANCH  13  16
HETATM   16  C   UNL     1     -40.982 -50.386  11.562  1.00  0.00     0.250 C 
BRANCH  16  17
HETATM   17  N   UNL     1     -39.609 -50.067  11.900  1.00  0.00    -0.295 N 
HETATM   18  C   UNL     1     -39.159 -49.496  13.055  1.00  0.00     0.112 A 
HETATM   19  C   UNL     1     -37.820 -49.254  12.870  1.00  0.00     0.037 A 
HETATM   20  C   UNL     1     -37.552 -49.721  11.572  1.00  0.00     0.108 A 
HETATM   21  N   UNL     1     -38.637 -50.228  10.975  1.00  0.00    -0.310 N 
ATOM     22  HN  UNL     1     -38.713 -50.637  10.044  1.00  0.00     0.186 HD
ENDBRANCH  16  17
ENDBRANCH  13  16
ENDBRANCH   1  12
TORSDOF 6
ENDMDL
MODEL 7
REMARK VINA RESULT:      -5.2      2.626      6.265
REMARK  6 active torsions:
REMARK  status: ('A' for Active; 'I' for Inactive)
REMARK    1  A    between atoms: C_2  and  C_3 
REMARK    2  A    between atoms: C_3  and  C_5 
REMARK    3  A    between atoms: C_3  and  N_16 
REMARK    4  A    between atoms: C_5  and  N_6 
REMARK       I    between atoms: N_6  and  C_7 
REMARK    5  A    between atoms: C_7  and  C_9 
REMARK    6  A    between atoms: C_9  and  N_10 
ROOT
HETATM    1  C   UNL     1     -41.089 -52.440  12.080  1.00  0.00     0.164 C 
ENDROOT
BRANCH   1   2
HETATM    2  C   UNL     1     -40.821 -50.987  12.661  1.00  0.00     0.171 C 
HETATM    3  C   UNL     1     -40.785 -51.080  14.199  1.00  0.00     0.051 C 
BRANCH   2   4
HETATM    4  C   UNL     1     -42.079 -50.120  12.253  1.00  0.00     0.038 C 
HETATM    5  C   UNL     1     -43.024 -49.661  13.363  1.00  0.00     0.007 C 
ENDBRANCH   2   4
BRANCH   2   6
HETATM    6  N   UNL     1     -39.602 -50.347  12.041  1.00  0.00     0.103 N 
HETATM    7  C   UNL     1     -38.256 -50.738  12.511  1.00  0.00     0.299 C 
HETATM    8  C   UNL     1     -37.713 -49.959  13.723  1.00  0.00     0.198 C 
HETATM    9  O   UNL     1     -37.763 -48.543  13.523  1.00  0.00    -0.388 OA
HETATM   10  C   UNL     1     -39.079 -48.121  13.155  1.00  0.00     0.198 C 
HETATM   11  C   UNL     1     -39.572 -48.869  11.906  1.00  0.00     0.299 C 
ENDBRANCH   2   6
ENDBRANCH   1   2
BRANCH   1  12
HETATM   12  N   UNL     1     -42.464 -52.923  12.091  1.00  0.00    -0.357 N 
HETATM   13  C   UNL     1     -42.940 -53.826  13.018  1.00  0.00     0.237 C 
HETATM   14  O   UNL     1     -42.238 -54.348  13.881  1.00  0.00    -0.272 OA
HETATM   15  H   UNL     1     -43.159 -52.328  11.649  1.00  0.00     0.162 HD
BRANCH  13  16
HETATM   16  C   UNL     1     -44.401 -54.181  12.860  1.00  0.00     0.250 C 
BRANCH  16  17
HETATM   17  N   UNL     1     -45.258 -53.026  13.044  1.00  0.00    -0.295 N 
HETATM   18  C   UNL     1     -45.514 -52.371  14.214  1.00  0.00     0.112 A 
HETATM   19  C   UNL     1     -46.485 -51.442  13.932  1.00  0.00     0.037 A 
HETATM   20  C   UNL     1     -46.746 -51.609  12.561  1.00  0.00     0.108 A 
HETATM   21  N   UNL     1     -45.995 -52.569  12.008  1.00  0.00    -0.310 N 
ATOM     22  HN  UNL     1     -45.983 -52.881  11.037  1.00  0.00     0.186 HD
ENDBRANCH  16  17
ENDBRANCH  13  16
ENDBRANCH   1  12
TORSDOF 6
ENDMDL
MODEL 8
REMARK VINA RESULT:      -5.2      2.500      4.126
REMARK  6 active torsions:
REMARK  status: ('A' for Active; 'I' for Inactive)
REMARK    1  A    between atoms: C_2  and  C_3 
REMARK    2  A    between atoms: C_3  and  C_5 
REMARK    3  A    between atoms: C_3  and  N_16 
REMARK    4  A    between atoms: C_5  and  N_6 
REMARK       I    between atoms: N_6  and  C_7 
REMARK    5  A    between atoms: C_7  and  C_9 
REMARK    6  A    between atoms: C_9  and  N_10 
ROOT
HETATM    1  C   UNL     1     -44.301 -51.409  15.249  1.00  0.00     0.164 C 
ENDROOT
BRANCH   1   2
HETATM    2  C   UNL     1     -45.822 -51.855  15.336  1.00  0.00     0.171 C 
HETATM    3  C   UNL     1     -46.512 -51.479  14.010  1.00  0.00     0.051 C 
BRANCH   2   4
HETATM    4  C   UNL     1     -46.464 -50.978  16.486  1.00  0.00     0.038 C 
HETATM    5  C   UNL     1     -47.938 -51.203  16.820  1.00  0.00     0.007 C 
ENDBRANCH   2   4
BRANCH   2   6
HETATM    6  N   UNL     1     -45.964 -53.304  15.731  1.00  0.00     0.103 N 
HETATM    7  C   UNL     1     -44.889 -53.956  16.508  1.00  0.00     0.299 C 
HETATM    8  C   UNL     1     -43.743 -54.575  15.685  1.00  0.00     0.198 C 
HETATM    9  O   UNL     1     -44.224 -55.471  14.678  1.00  0.00    -0.388 OA
HETATM   10  C   UNL     1     -45.203 -54.838  13.850  1.00  0.00     0.198 C 
HETATM   11  C   UNL     1     -46.365 -54.284  14.690  1.00  0.00     0.299 C 
ENDBRANCH   2   6
ENDBRANCH   1   2
BRANCH   1  12
HETATM   12  N   UNL     1     -43.689 -51.369  13.926  1.00  0.00    -0.357 N 
HETATM   13  C   UNL     1     -42.368 -51.690  13.695  1.00  0.00     0.237 C 
HETATM   14  O   UNL     1     -41.574 -51.983  14.585  1.00  0.00    -0.272 OA
HETATM   15  H   UNL     1     -44.316 -51.457  13.132  1.00  0.00     0.162 HD
BRANCH  13  16
HETATM   16  C   UNL     1     -41.941 -51.599  12.247  1.00  0.00     0.250 C 
BRANCH  16  17
HETATM   17  N   UNL     1     -40.792 -50.733  12.078  1.00  0.00    -0.295 N 
HETATM   18  C   UNL     1     -40.795 -49.436  11.649  1.00  0.00     0.112 A 
HETATM   19  C   UNL     1     -39.479 -49.073  11.508  1.00  0.00     0.037 A 
HETATM   20  C   UNL     1     -38.754 -50.217  11.882  1.00  0.00     0.108 A 
HETATM   21  N   UNL     1     -39.547 -51.233  12.240  1.00  0.00    -0.310 N 
ATOM     22  HN  UNL     1     -39.277 -52.164  12.560  1.00  0.00     0.186 HD
ENDBRANCH  16  17
ENDBRANCH  13  16
ENDBRANCH   1  12
TORSDOF 6
ENDMDL
MODEL 9
REMARK VINA RESULT:      -5.0      2.178      5.618
REMARK  6 active torsions:
REMARK  status: ('A' for Active; 'I' for Inactive)
REMARK    1  A    between atoms: C_2  and  C_3 
REMARK    2  A    between atoms: C_3  and  C_5 
REMARK    3  A    between atoms: C_3  and  N_16 
REMARK    4  A    between atoms: C_5  and  N_6 
REMARK       I    between atoms: N_6  and  C_7 
REMARK    5  A    between atoms: C_7  and  C_9 
REMARK    6  A    between atoms: C_9  and  N_10 
ROOT
HETATM    1  C   UNL     1     -40.901 -51.770  11.824  1.00  0.00     0.164 C 
ENDROOT
BRANCH   1   2
HETATM    2  C   UNL     1     -40.812 -50.237  12.226  1.00  0.00     0.171 C 
HETATM    3  C   UNL     1     -39.434 -49.702  11.791  1.00  0.00     0.051 C 
BRANCH   2   4
HETATM    4  C   UNL     1     -40.873 -50.200  13.807  1.00  0.00     0.038 C 
HETATM    5  C   UNL     1     -39.891 -51.078  14.582  1.00  0.00     0.007 C 
ENDBRANCH   2   4
BRANCH   2   6
HETATM    6  N   UNL     1     -41.988 -49.447  11.704  1.00  0.00     0.103 N 
HETATM    7  C   UNL     1     -41.788 -48.494  10.592  1.00  0.00     0.299 C 
HETATM    8  C   UNL     1     -41.357 -47.071  10.993  1.00  0.00     0.198 C 
HETATM    9  O   UNL     1     -42.232 -46.497  11.970  1.00  0.00    -0.388 OA
HETATM   10  C   UNL     1     -42.373 -47.358  13.103  1.00  0.00     0.198 C 
HETATM   11  C   UNL     1     -42.863 -48.753  12.682  1.00  0.00     0.299 C 
ENDBRANCH   2   6
ENDBRANCH   1   2
BRANCH   1  12
HETATM   12  N   UNL     1     -42.225 -52.381  11.802  1.00  0.00    -0.357 N 
HETATM   13  C   UNL     1     -42.642 -53.314  12.728  1.00  0.00     0.237 C 
HETATM   14  O   UNL     1     -41.922 -53.756  13.619  1.00  0.00    -0.272 OA
HETATM   15  H   UNL     1     -42.958 -51.860  11.330  1.00  0.00     0.162 HD
BRANCH  13  16
HETATM   16  C   UNL     1     -44.058 -53.807  12.532  1.00  0.00     0.250 C 
BRANCH  16  17
HETATM   17  N   UNL     1     -45.034 -52.792  12.874  1.00  0.00    -0.295 N 
HETATM   18  C   UNL     1     -45.257 -52.248  14.106  1.00  0.00     0.112 A 
HETATM   19  C   UNL     1     -46.362 -51.444  13.979  1.00  0.00     0.037 A 
HETATM   20  C   UNL     1     -46.732 -51.561  12.629  1.00  0.00     0.108 A 
HETATM   21  N   UNL     1     -45.921 -52.376  11.944  1.00  0.00    -0.310 N 
ATOM     22  HN  UNL     1     -45.963 -52.624  10.955  1.00  0.00     0.186 HD
ENDBRANCH  16  17
ENDBRANCH  13  16
ENDBRANCH   1  12
TORSDOF 6
ENDMDL
