MODEL 1
REMARK VINA RESULT:      -5.9      0.000      0.000
REMARK  3 active torsions:
REMARK  status: ('A' for Active; 'I' for Inactive)
REMARK    1  A    between atoms: C_2  and  N_3 
REMARK    2  A    between atoms: C_2  and  C_15 
REMARK       I    between atoms: N_3  and  C_4 
REMARK       I    between atoms: C_4  and  N_6 
REMARK    3  A    between atoms: N_6  and  C_7 
ROOT
HETATM    1  N   UNL     1     -41.721 -47.532   9.976  1.00  0.00    -0.341 N 
HETATM    2  C   UNL     1     -41.681 -48.531  10.915  1.00  0.00     0.300 C 
HETATM    3  O   UNL     1     -42.486 -48.589  11.839  1.00  0.00    -0.254 OA
HETATM    4  N   UNL     1     -40.626 -49.393  10.715  1.00  0.00    -0.196 NA
HETATM    5  H   UNL     1     -41.329 -47.743   9.065  1.00  0.00     0.164 HD
HETATM    6  H   UNL     1     -39.761 -48.897  10.554  1.00  0.00     0.139 HD
ENDROOT
BRANCH   1   7
HETATM    7  C   UNL     1     -42.801 -46.539  10.005  1.00  0.00     0.110 C 
HETATM    8  C   UNL     1     -43.430 -46.410   8.614  1.00  0.00     0.035 C 
BRANCH   7   9
HETATM    9  C   UNL     1     -42.277 -45.212  10.579  1.00  0.00     0.143 C 
HETATM   10  C   UNL     1     -42.254 -45.128  12.101  1.00  0.00     0.036 C 
HETATM   11  C   UNL     1     -42.644 -43.698  12.410  1.00  0.00     0.029 C 
HETATM   12  C   UNL     1     -42.783 -43.035  11.057  1.00  0.00     0.168 C 
HETATM   13  O   UNL     1     -43.069 -44.094  10.137  1.00  0.00    -0.384 OA
ENDBRANCH   7   9
ENDBRANCH   1   7
BRANCH   4  14
HETATM   14  C   UNL     1     -40.436 -50.460  11.608  1.00  0.00     0.094 A 
HETATM   15  N   UNL     1     -41.269 -51.507  11.407  1.00  0.00    -0.356 N 
HETATM   16  C   UNL     1     -41.036 -52.623  12.132  1.00  0.00     0.089 A 
ATOM     17  HN  UNL     1     -42.038 -51.456  10.738  1.00  0.00     0.166 HD
HETATM   18  C   UNL     1     -40.029 -52.735  13.073  1.00  0.00     0.018 A 
HETATM   19  C   UNL     1     -39.246 -51.617  13.328  1.00  0.00     0.011 A 
HETATM   20  C   UNL     1     -39.458 -50.436  12.610  1.00  0.00    -0.023 A 
HETATM   21  C   UNL     1     -38.710 -49.192  12.994  1.00  0.00     0.052 C 
ENDBRANCH   4  14
TORSDOF 3
ENDMDL
MODEL 2
REMARK VINA RESULT:      -5.9      2.420      6.889
REMARK  3 active torsions:
REMARK  status: ('A' for Active; 'I' for Inactive)
REMARK    1  A    between atoms: C_2  and  N_3 
REMARK    2  A    between atoms: C_2  and  C_15 
REMARK       I    between atoms: N_3  and  C_4 
REMARK       I    between atoms: C_4  and  N_6 
REMARK    3  A    between atoms: N_6  and  C_7 
ROOT
HETATM    1  N   UNL     1     -41.955 -51.431  11.910  1.00  0.00    -0.341 N 
HETATM    2  C   UNL     1     -41.657 -50.097  12.031  1.00  0.00     0.300 C 
HETATM    3  O   UNL     1     -41.338 -49.596  13.104  1.00  0.00    -0.254 OA
HETATM    4  N   UNL     1     -41.807 -49.420  10.841  1.00  0.00    -0.196 NA
HETATM    5  H   UNL     1     -41.814 -51.852  10.998  1.00  0.00     0.164 HD
HETATM    6  H   UNL     1     -42.684 -49.642  10.392  1.00  0.00     0.139 HD
ENDROOT
BRANCH   1   7
HETATM    7  C   UNL     1     -41.813 -52.323  13.067  1.00  0.00     0.110 C 
HETATM    8  C   UNL     1     -40.910 -53.507  12.706  1.00  0.00     0.035 C 
BRANCH   7   9
HETATM    9  C   UNL     1     -43.202 -52.732  13.585  1.00  0.00     0.143 C 
HETATM   10  C   UNL     1     -43.358 -54.210  13.922  1.00  0.00     0.036 C 
HETATM   11  C   UNL     1     -44.766 -54.555  13.486  1.00  0.00     0.029 C 
HETATM   12  C   UNL     1     -45.353 -53.245  13.008  1.00  0.00     0.168 C 
HETATM   13  O   UNL     1     -44.234 -52.439  12.625  1.00  0.00    -0.384 OA
ENDBRANCH   7   9
ENDBRANCH   1   7
BRANCH   4  14
HETATM   14  C   UNL     1     -41.559 -48.038  10.806  1.00  0.00     0.094 A 
HETATM   15  N   UNL     1     -40.288 -47.695  11.117  1.00  0.00    -0.356 N 
HETATM   16  C   UNL     1     -39.947 -46.398  10.953  1.00  0.00     0.089 A 
ATOM     17  HN  UNL     1     -39.618 -48.384  11.460  1.00  0.00     0.166 HD
HETATM   18  C   UNL     1     -40.822 -45.418  10.522  1.00  0.00     0.018 A 
HETATM   19  C   UNL     1     -42.145 -45.777  10.298  1.00  0.00     0.011 A 
HETATM   20  C   UNL     1     -42.547 -47.106  10.466  1.00  0.00    -0.023 A 
HETATM   21  C   UNL     1     -44.004 -47.456  10.367  1.00  0.00     0.052 C 
ENDBRANCH   4  14
TORSDOF 3
ENDMDL
MODEL 3
REMARK VINA RESULT:      -5.9      1.741      2.132
REMARK  3 active torsions:
REMARK  status: ('A' for Active; 'I' for Inactive)
REMARK    1  A    between atoms: C_2  and  N_3 
REMARK    2  A    between atoms: C_2  and  C_15 
REMARK       I    between atoms: N_3  and  C_4 
REMARK       I    between atoms: C_4  and  N_6 
REMARK    3  A    between atoms: N_6  and  C_7 
ROOT
HETATM    1  N   UNL     1     -41.172 -48.896  10.607  1.00  0.00    -0.341 N 
HETATM    2  C   UNL     1     -41.496 -49.815  11.572  1.00  0.00     0.300 C 
HETATM    3  O   UNL     1     -42.202 -49.529  12.533  1.00  0.00    -0.254 OA
HETATM    4  N   UNL     1     -40.902 -51.037  11.348  1.00  0.00    -0.196 NA
HETATM    5  H   UNL     1     -40.951 -49.257   9.685  1.00  0.00     0.164 HD
HETATM    6  H   UNL     1     -39.919 -50.943  11.134  1.00  0.00     0.139 HD
ENDROOT
BRANCH   1   7
HETATM    7  C   UNL     1     -41.745 -47.546  10.656  1.00  0.00     0.110 C 
HETATM    8  C   UNL     1     -42.753 -47.364   9.518  1.00  0.00     0.035 C 
BRANCH   7   9
HETATM    9  C   UNL     1     -40.617 -46.499  10.664  1.00  0.00     0.143 C 
HETATM   10  C   UNL     1     -40.004 -46.219  12.030  1.00  0.00     0.036 C 
HETATM   11  C   UNL     1     -39.725 -44.730  12.026  1.00  0.00     0.029 C 
HETATM   12  C   UNL     1     -40.116 -44.270  10.638  1.00  0.00     0.168 C 
HETATM   13  O   UNL     1     -41.072 -45.226  10.170  1.00  0.00    -0.384 OA
ENDBRANCH   7   9
ENDBRANCH   1   7
BRANCH   4  14
HETATM   14  C   UNL     1     -41.120 -52.081  12.263  1.00  0.00     0.094 A 
HETATM   15  N   UNL     1     -42.327 -52.679  12.144  1.00  0.00    -0.356 N 
HETATM   16  C   UNL     1     -42.538 -53.786  12.890  1.00  0.00     0.089 A 
ATOM     17  HN  UNL     1     -43.046 -52.312  11.519  1.00  0.00     0.166 HD
HETATM   18  C   UNL     1     -41.612 -54.308  13.774  1.00  0.00     0.018 A 
HETATM   19  C   UNL     1     -40.417 -53.624  13.948  1.00  0.00     0.011 A 
HETATM   20  C   UNL     1     -40.159 -52.466  13.206  1.00  0.00    -0.023 A 
HETATM   21  C   UNL     1     -38.933 -51.652  13.506  1.00  0.00     0.052 C 
ENDBRANCH   4  14
TORSDOF 3
ENDMDL
MODEL 4
REMARK VINA RESULT:      -5.9      3.190      5.309
REMARK  3 active torsions:
REMARK  status: ('A' for Active; 'I' for Inactive)
REMARK    1  A    between atoms: C_2  and  N_3 
REMARK    2  A    between atoms: C_2  and  C_15 
REMARK       I    between atoms: N_3  and  C_4 
REMARK       I    between atoms: C_4  and  N_6 
REMARK    3  A    between atoms: N_6  and  C_7 
ROOT
HETATM    1  N   UNL     1     -41.264 -50.358  11.558  1.00  0.00    -0.341 N 
HETATM    2  C   UNL     1     -42.172 -50.988  12.370  1.00  0.00     0.300 C 
HETATM    3  O   UNL     1     -42.606 -50.463  13.391  1.00  0.00    -0.254 OA
HETATM    4  N   UNL     1     -42.476 -52.256  11.928  1.00  0.00    -0.196 NA
HETATM    5  H   UNL     1     -41.253 -50.634  10.582  1.00  0.00     0.164 HD
HETATM    6  H   UNL     1     -41.645 -52.782  11.697  1.00  0.00     0.139 HD
ENDROOT
BRANCH   1   7
HETATM    7  C   UNL     1     -40.849 -48.981  11.849  1.00  0.00     0.110 C 
HETATM    8  C   UNL     1     -41.187 -48.072  10.663  1.00  0.00     0.035 C 
BRANCH   7   9
HETATM    9  C   UNL     1     -39.365 -48.956  12.252  1.00  0.00     0.143 C 
HETATM   10  C   UNL     1     -38.467 -49.910  11.475  1.00  0.00     0.036 C 
HETATM   11  C   UNL     1     -37.475 -50.420  12.499  1.00  0.00     0.029 C 
HETATM   12  C   UNL     1     -37.812 -49.668  13.769  1.00  0.00     0.168 C 
HETATM   13  O   UNL     1     -39.186 -49.292  13.640  1.00  0.00    -0.384 OA
ENDBRANCH   7   9
ENDBRANCH   1   7
BRANCH   4  14
HETATM   14  C   UNL     1     -43.377 -53.040  12.667  1.00  0.00     0.094 A 
HETATM   15  N   UNL     1     -44.678 -52.724  12.470  1.00  0.00    -0.356 N 
HETATM   16  C   UNL     1     -45.598 -53.538  13.031  1.00  0.00     0.089 A 
ATOM     17  HN  UNL     1     -44.951 -51.908  11.921  1.00  0.00     0.166 HD
HETATM   18  C   UNL     1     -45.283 -54.637  13.809  1.00  0.00     0.018 A 
HETATM   19  C   UNL     1     -43.943 -54.888  14.074  1.00  0.00     0.011 A 
HETATM   20  C   UNL     1     -42.955 -54.064  13.524  1.00  0.00    -0.023 A 
HETATM   21  C   UNL     1     -41.523 -54.251  13.934  1.00  0.00     0.052 C 
ENDBRANCH   4  14
TORSDOF 3
ENDMDL
MODEL 5
REMARK VINA RESULT:      -5.8      3.722      6.285
REMARK  3 active torsions:
REMARK  status: ('A' for Active; 'I' for Inactive)
REMARK    1  A    between atoms: C_2  and  N_3 
REMARK    2  A    between atoms: C_2  and  C_15 
REMARK       I    between atoms: N_3  and  C_4 
REMARK       I    between atoms: C_4  and  N_6 
REMARK    3  A    between atoms: N_6  and  C_7 
ROOT
HETATM    1  N   UNL     1     -42.013 -51.086  11.857  1.00  0.00    -0.341 N 
HETATM    2  C   UNL     1     -42.843 -51.692  12.766  1.00  0.00     0.300 C 
HETATM    3  O   UNL     1     -42.697 -51.552  13.976  1.00  0.00    -0.254 OA
HETATM    4  N   UNL     1     -43.791 -52.485  12.158  1.00  0.00    -0.196 NA
HETATM    5  H   UNL     1     -42.396 -50.905  10.936  1.00  0.00     0.164 HD
HETATM    6  H   UNL     1     -43.383 -53.087  11.457  1.00  0.00     0.139 HD
ENDROOT
BRANCH   1   7
HETATM    7  C   UNL     1     -40.964 -50.170  12.318  1.00  0.00     0.110 C 
HETATM    8  C   UNL     1     -41.169 -48.785  11.695  1.00  0.00     0.035 C 
BRANCH   7   9
HETATM    9  C   UNL     1     -39.578 -50.779  12.042  1.00  0.00     0.143 C 
HETATM   10  C   UNL     1     -38.828 -51.266  13.275  1.00  0.00     0.036 C 
HETATM   11  C   UNL     1     -37.379 -50.921  13.001  1.00  0.00     0.029 C 
HETATM   12  C   UNL     1     -37.379 -50.338  11.604  1.00  0.00     0.168 C 
HETATM   13  O   UNL     1     -38.703 -49.836  11.397  1.00  0.00    -0.384 OA
ENDBRANCH   7   9
ENDBRANCH   1   7
BRANCH   4  14
HETATM   14  C   UNL     1     -44.705 -53.191  12.957  1.00  0.00     0.094 A 
HETATM   15  N   UNL     1     -44.249 -54.387  13.397  1.00  0.00    -0.356 N 
HETATM   16  C   UNL     1     -45.019 -55.043  14.293  1.00  0.00     0.089 A 
ATOM     17  HN  UNL     1     -43.365 -54.775  13.068  1.00  0.00     0.166 HD
HETATM   18  C   UNL     1     -46.239 -54.579  14.748  1.00  0.00     0.018 A 
HETATM   19  C   UNL     1     -46.729 -53.395  14.213  1.00  0.00     0.011 A 
HETATM   20  C   UNL     1     -45.972 -52.687  13.273  1.00  0.00    -0.023 A 
HETATM   21  C   UNL     1     -46.571 -51.491  12.591  1.00  0.00     0.052 C 
ENDBRANCH   4  14
TORSDOF 3
ENDMDL
MODEL 6
REMARK VINA RESULT:      -5.7      2.903      6.977
REMARK  3 active torsions:
REMARK  status: ('A' for Active; 'I' for Inactive)
REMARK    1  A    between atoms: C_2  and  N_3 
REMARK    2  A    between atoms: C_2  and  C_15 
REMARK       I    between atoms: N_3  and  C_4 
REMARK       I    between atoms: C_4  and  N_6 
REMARK    3  A    between atoms: N_6  and  C_7 
ROOT
HETATM    1  N   UNL     1     -41.327 -52.657  12.435  1.00  0.00    -0.341 N 
HETATM    2  C   UNL     1     -41.353 -51.286  12.411  1.00  0.00     0.300 C 
HETATM    3  O   UNL     1     -41.899 -50.629  13.291  1.00  0.00    -0.254 OA
HETATM    4  N   UNL     1     -40.751 -50.772  11.284  1.00  0.00    -0.196 NA
HETATM    5  H   UNL     1     -40.563 -53.110  11.946  1.00  0.00     0.164 HD
HETATM    6  H   UNL     1     -41.065 -51.239  10.445  1.00  0.00     0.139 HD
ENDROOT
BRANCH   1   7
HETATM    7  C   UNL     1     -41.888 -53.382  13.580  1.00  0.00     0.110 C 
HETATM    8  C   UNL     1     -40.835 -54.327  14.168  1.00  0.00     0.035 C 
BRANCH   7   9
HETATM    9  C   UNL     1     -43.194 -54.083  13.168  1.00  0.00     0.143 C 
HETATM   10  C   UNL     1     -44.279 -53.163  12.622  1.00  0.00     0.036 C 
HETATM   11  C   UNL     1     -45.573 -53.739  13.158  1.00  0.00     0.029 C 
HETATM   12  C   UNL     1     -45.159 -54.990  13.902  1.00  0.00     0.168 C 
HETATM   13  O   UNL     1     -43.793 -54.782  14.275  1.00  0.00    -0.384 OA
ENDBRANCH   7   9
ENDBRANCH   1   7
BRANCH   4  14
HETATM   14  C   UNL     1     -40.715 -49.380  11.102  1.00  0.00     0.094 A 
HETATM   15  N   UNL     1     -41.804 -48.874  10.478  1.00  0.00    -0.356 N 
HETATM   16  C   UNL     1     -41.900 -47.528  10.410  1.00  0.00     0.089 A 
ATOM     17  HN  UNL     1     -42.519 -49.481  10.077  1.00  0.00     0.166 HD
HETATM   18  C   UNL     1     -40.945 -46.661  10.908  1.00  0.00     0.018 A 
HETATM   19  C   UNL     1     -39.793 -47.204  11.461  1.00  0.00     0.011 A 
HETATM   20  C   UNL     1     -39.644 -48.593  11.542  1.00  0.00    -0.023 A 
HETATM   21  C   UNL     1     -38.337 -49.171  12.002  1.00  0.00     0.052 C 
ENDBRANCH   4  14
TORSDOF 3
ENDMDL
MODEL 7
REMARK VINA RESULT:      -5.7      3.867      5.603
REMARK  3 active torsions:
REMARK  status: ('A' for Active; 'I' for Inactive)
REMARK    1  A    between atoms: C_2  and  N_3 
REMARK    2  A    between atoms: C_2  and  C_15 
REMARK       I    between atoms: N_3  and  C_4 
REMARK       I    between atoms: C_4  and  N_6 
REMARK    3  A    between atoms: N_6  and  C_7 
ROOT
HETATM    1  N   UNL     1     -42.328 -49.610  11.727  1.00  0.00    -0.341 N 
HETATM    2  C   UNL     1     -43.186 -49.669  12.796  1.00  0.00     0.300 C 
HETATM    3  O   UNL     1     -43.297 -48.742  13.593  1.00  0.00    -0.254 OA
HETATM    4  N   UNL     1     -43.839 -50.878  12.876  1.00  0.00    -0.196 NA
HETATM    5  H   UNL     1     -42.559 -50.182  10.922  1.00  0.00     0.164 HD
HETATM    6  H   UNL     1     -43.202 -51.655  12.772  1.00  0.00     0.139 HD
ENDROOT
BRANCH   1   7
HETATM    7  C   UNL     1     -41.573 -48.382  11.458  1.00  0.00     0.110 C 
HETATM    8  C   UNL     1     -41.975 -47.810  10.095  1.00  0.00     0.035 C 
BRANCH   7   9
HETATM    9  C   UNL     1     -40.065 -48.652  11.601  1.00  0.00     0.143 C 
HETATM   10  C   UNL     1     -39.658 -50.117  11.507  1.00  0.00     0.036 C 
HETATM   11  C   UNL     1     -38.539 -50.268  12.516  1.00  0.00     0.029 C 
HETATM   12  C   UNL     1     -38.321 -48.873  13.060  1.00  0.00     0.168 C 
HETATM   13  O   UNL     1     -39.561 -48.186  12.866  1.00  0.00    -0.384 OA
ENDBRANCH   7   9
ENDBRANCH   1   7
BRANCH   4  14
HETATM   14  C   UNL     1     -44.738 -51.101  13.932  1.00  0.00     0.094 A 
HETATM   15  N   UNL     1     -44.188 -50.988  15.162  1.00  0.00    -0.356 N 
HETATM   16  C   UNL     1     -45.031 -51.039  16.217  1.00  0.00     0.089 A 
ATOM     17  HN  UNL     1     -43.183 -50.868  15.288  1.00  0.00     0.166 HD
HETATM   18  C   UNL     1     -46.396 -51.230  16.105  1.00  0.00     0.018 A 
HETATM   19  C   UNL     1     -46.925 -51.437  14.837  1.00  0.00     0.011 A 
HETATM   20  C   UNL     1     -46.088 -51.404  13.716  1.00  0.00    -0.023 A 
HETATM   21  C   UNL     1     -46.640 -51.775  12.370  1.00  0.00     0.052 C 
ENDBRANCH   4  14
TORSDOF 3
ENDMDL
MODEL 8
REMARK VINA RESULT:      -5.7      2.079      3.439
REMARK  3 active torsions:
REMARK  status: ('A' for Active; 'I' for Inactive)
REMARK    1  A    between atoms: C_2  and  N_3 
REMARK    2  A    between atoms: C_2  and  C_15 
REMARK       I    between atoms: N_3  and  C_4 
REMARK       I    between atoms: C_4  and  N_6 
REMARK    3  A    between atoms: N_6  and  C_7 
ROOT
HETATM    1  N   UNL     1     -42.256 -49.337  11.285  1.00  0.00    -0.341 N 
HETATM    2  C   UNL     1     -41.791 -50.244  12.203  1.00  0.00     0.300 C 
HETATM    3  O   UNL     1     -41.141 -49.900  13.185  1.00  0.00    -0.254 OA
HETATM    4  N   UNL     1     -42.097 -51.541  11.858  1.00  0.00    -0.196 NA
HETATM    5  H   UNL     1     -43.081 -49.602  10.756  1.00  0.00     0.164 HD
HETATM    6  H   UNL     1     -41.878 -51.733  10.891  1.00  0.00     0.139 HD
ENDROOT
BRANCH   1   7
HETATM    7  C   UNL     1     -42.058 -47.901  11.505  1.00  0.00     0.110 C 
HETATM    8  C   UNL     1     -42.990 -47.409  12.618  1.00  0.00     0.035 C 
BRANCH   7   9
HETATM    9  C   UNL     1     -42.218 -47.140  10.177  1.00  0.00     0.143 C 
HETATM   10  C   UNL     1     -42.829 -45.750  10.296  1.00  0.00     0.036 C 
HETATM   11  C   UNL     1     -43.707 -45.613   9.070  1.00  0.00     0.029 C 
HETATM   12  C   UNL     1     -43.481 -46.889   8.289  1.00  0.00     0.168 C 
HETATM   13  O   UNL     1     -43.055 -47.858   9.252  1.00  0.00    -0.384 OA
ENDBRANCH   7   9
ENDBRANCH   1   7
BRANCH   4  14
HETATM   14  C   UNL     1     -41.670 -52.589  12.689  1.00  0.00     0.094 A 
HETATM   15  N   UNL     1     -40.341 -52.588  12.944  1.00  0.00    -0.356 N 
HETATM   16  C   UNL     1     -39.892 -53.476  13.858  1.00  0.00     0.089 A 
ATOM     17  HN  UNL     1     -39.707 -51.945  12.468  1.00  0.00     0.166 HD
HETATM   18  C   UNL     1     -40.701 -54.390  14.508  1.00  0.00     0.018 A 
HETATM   19  C   UNL     1     -42.045 -54.434  14.162  1.00  0.00     0.011 A 
HETATM   20  C   UNL     1     -42.553 -53.541  13.212  1.00  0.00    -0.023 A 
HETATM   21  C   UNL     1     -43.969 -53.693  12.736  1.00  0.00     0.052 C 
ENDBRANCH   4  14
TORSDOF 3
ENDMDL
MODEL 9
REMARK VINA RESULT:      -5.5      2.578      4.459
REMARK  3 active torsions:
REMARK  status: ('A' for Active; 'I' for Inactive)
REMARK    1  A    between atoms: C_2  and  N_3 
REMARK    2  A    between atoms: C_2  and  C_15 
REMARK       I    between atoms: N_3  and  C_4 
REMARK       I    between atoms: C_4  and  N_6 
REMARK    3  A    between atoms: N_6  and  C_7 
ROOT
HETATM    1  N   UNL     1     -40.807 -50.915  11.204  1.00  0.00    -0.341 N 
HETATM    2  C   UNL     1     -41.781 -51.314  12.084  1.00  0.00     0.300 C 
HETATM    3  O   UNL     1     -42.064 -50.659  13.082  1.00  0.00    -0.254 OA
HETATM    4  N   UNL     1     -42.336 -52.524  11.735  1.00  0.00    -0.196 NA
HETATM    5  H   UNL     1     -40.891 -51.244  10.248  1.00  0.00     0.164 HD
HETATM    6  H   UNL     1     -41.630 -53.210  11.511  1.00  0.00     0.139 HD
ENDROOT
BRANCH   1   7
HETATM    7  C   UNL     1     -40.129 -49.628  11.392  1.00  0.00     0.110 C 
HETATM    8  C   UNL     1     -39.139 -49.724  12.558  1.00  0.00     0.035 C 
BRANCH   7   9
HETATM    9  C   UNL     1     -41.169 -48.505  11.548  1.00  0.00     0.143 C 
HETATM   10  C   UNL     1     -41.848 -48.068  10.256  1.00  0.00     0.036 C 
HETATM   11  C   UNL     1     -42.009 -46.569  10.399  1.00  0.00     0.029 C 
HETATM   12  C   UNL     1     -41.493 -46.256  11.787  1.00  0.00     0.168 C 
HETATM   13  O   UNL     1     -40.585 -47.314  12.107  1.00  0.00    -0.384 OA
ENDBRANCH   7   9
ENDBRANCH   1   7
BRANCH   4  14
HETATM   14  C   UNL     1     -43.335 -53.079  12.551  1.00  0.00     0.094 A 
HETATM   15  N   UNL     1     -44.577 -52.599  12.311  1.00  0.00    -0.356 N 
HETATM   16  C   UNL     1     -45.601 -53.201  12.955  1.00  0.00     0.089 A 
ATOM     17  HN  UNL     1     -44.733 -51.818  11.673  1.00  0.00     0.166 HD
HETATM   18  C   UNL     1     -45.443 -54.240  13.853  1.00  0.00     0.018 A 
HETATM   19  C   UNL     1     -44.152 -54.654  14.153  1.00  0.00     0.011 A 
HETATM   20  C   UNL     1     -43.060 -54.052  13.520  1.00  0.00    -0.023 A 
HETATM   21  C   UNL     1     -41.666 -54.400  13.957  1.00  0.00     0.052 C 
ENDBRANCH   4  14
TORSDOF 3
ENDMDL
