MODEL 1
REMARK VINA RESULT:      -6.0      0.000      0.000
REMARK  4 active torsions:
REMARK  status: ('A' for Active; 'I' for Inactive)
REMARK    1  A    between atoms: C_2  and  C_3 
REMARK    2  A    between atoms: C_2  and  N_10 
REMARK    3  A    between atoms: C_3  and  N_4 
REMARK       I    between atoms: N_10  and  C_11 
REMARK       I    between atoms: C_11  and  N_13 
REMARK    4  A    between atoms: C_16  and  C_19 
REMARK       I    between atoms: C_19  and  N_21 
ROOT
HETATM    1  N   UNL     1     -42.684 -49.943  12.445  1.00  0.00    -0.337 N 
HETATM    2  C   UNL     1     -43.418 -49.954  13.604  1.00  0.00     0.318 C 
HETATM    3  O   UNL     1     -43.423 -48.994  14.369  1.00  0.00    -0.247 OA
HETATM    4  N   UNL     1     -44.146 -51.109  13.822  1.00  0.00    -0.334 N 
HETATM    5  C   UNL     1     -44.331 -52.200  12.863  1.00  0.00     0.128 C 
HETATM    6  C   UNL     1     -45.818 -52.499  12.657  1.00  0.00     0.034 C 
HETATM    7  C   UNL     1     -46.546 -52.742  13.987  1.00  0.00     0.081 C 
HETATM    8  C   UNL     1     -46.297 -51.556  14.931  1.00  0.00     0.034 C 
HETATM    9  C   UNL     1     -44.806 -51.291  15.111  1.00  0.00     0.128 C 
HETATM   10  H   UNL     1     -42.290 -50.843  12.216  1.00  0.00     0.164 HD
ENDROOT
BRANCH   1  11
HETATM   11  C   UNL     1     -41.873 -48.778  12.085  1.00  0.00     0.100 C 
HETATM   12  C   UNL     1     -40.483 -48.929  12.704  1.00  0.00     0.034 C 
BRANCH  11  13
HETATM   13  C   UNL     1     -41.806 -48.611  10.552  1.00  0.00     0.153 C 
BRANCH  13  14
HETATM   14  N   UNL     1     -42.606 -47.518  10.043  1.00  0.00    -0.350 N 
HETATM   15  C   UNL     1     -43.369 -47.528   8.908  1.00  0.00     0.108 A 
HETATM   16  C   UNL     1     -43.932 -46.274   8.850  1.00  0.00     0.106 A 
HETATM   17  N   UNL     1     -43.539 -45.513   9.919  1.00  0.00    -0.361 N 
HETATM   18  C   UNL     1     -42.755 -46.294  10.631  1.00  0.00     0.182 A 
ATOM     19  HN  UNL     1     -43.797 -44.547  10.120  1.00  0.00     0.166 HD
ENDBRANCH  13  14
ENDBRANCH  11  13
ENDBRANCH   1  11
BRANCH   7  20
HETATM   20  C   UNL     1     -46.138 -54.082  14.597  1.00  0.00     0.219 C 
HETATM   21  O   UNL     1     -46.034 -54.285  15.801  1.00  0.00    -0.273 OA
HETATM   22  N   UNL     1     -45.841 -55.075  13.713  1.00  0.00    -0.370 N 
HETATM   23  H   UNL     1     -45.825 -54.953  12.712  1.00  0.00     0.159 HD
HETATM   24  H   UNL     1     -45.531 -55.958  14.098  1.00  0.00     0.159 HD
ENDBRANCH   7  20
TORSDOF 4
ENDMDL
MODEL 2
REMARK VINA RESULT:      -5.7      2.547      4.287
REMARK  4 active torsions:
REMARK  status: ('A' for Active; 'I' for Inactive)
REMARK    1  A    between atoms: C_2  and  C_3 
REMARK    2  A    between atoms: C_2  and  N_10 
REMARK    3  A    between atoms: C_3  and  N_4 
REMARK       I    between atoms: N_10  and  C_11 
REMARK       I    between atoms: C_11  and  N_13 
REMARK    4  A    between atoms: C_16  and  C_19 
REMARK       I    between atoms: C_19  and  N_21 
ROOT
HETATM    1  N   UNL     1     -42.389 -50.421  12.080  1.00  0.00    -0.337 N 
HETATM    2  C   UNL     1     -42.132 -51.756  12.260  1.00  0.00     0.318 C 
HETATM    3  O   UNL     1     -41.057 -52.253  11.937  1.00  0.00    -0.247 OA
HETATM    4  N   UNL     1     -43.163 -52.476  12.837  1.00  0.00    -0.334 N 
HETATM    5  C   UNL     1     -44.384 -51.910  13.416  1.00  0.00     0.128 C 
HETATM    6  C   UNL     1     -44.582 -52.396  14.853  1.00  0.00     0.034 C 
HETATM    7  C   UNL     1     -44.524 -53.927  14.958  1.00  0.00     0.081 C 
HETATM    8  C   UNL     1     -43.218 -54.434  14.327  1.00  0.00     0.034 C 
HETATM    9  C   UNL     1     -43.058 -53.930  12.897  1.00  0.00     0.128 C 
HETATM   10  H   UNL     1     -43.346 -50.231  11.825  1.00  0.00     0.164 HD
ENDROOT
BRANCH   1  11
HETATM   11  C   UNL     1     -41.380 -49.540  11.488  1.00  0.00     0.100 C 
HETATM   12  C   UNL     1     -42.086 -48.403  10.747  1.00  0.00     0.034 C 
BRANCH  11  13
HETATM   13  C   UNL     1     -40.415 -49.010  12.569  1.00  0.00     0.153 C 
BRANCH  13  14
HETATM   14  N   UNL     1     -39.158 -49.725  12.637  1.00  0.00    -0.350 N 
HETATM   15  C   UNL     1     -38.593 -50.274  13.755  1.00  0.00     0.108 A 
HETATM   16  C   UNL     1     -37.418 -50.838  13.317  1.00  0.00     0.106 A 
HETATM   17  N   UNL     1     -37.261 -50.653  11.969  1.00  0.00    -0.361 N 
HETATM   18  C   UNL     1     -38.333 -49.996  11.582  1.00  0.00     0.182 A 
ATOM     19  HN  UNL     1     -36.480 -50.959  11.389  1.00  0.00     0.166 HD
ENDBRANCH  13  14
ENDBRANCH  11  13
ENDBRANCH   1  11
BRANCH   7  20
HETATM   20  C   UNL     1     -45.768 -54.565  14.340  1.00  0.00     0.219 C 
HETATM   21  O   UNL     1     -45.782 -55.670  13.813  1.00  0.00    -0.273 OA
HETATM   22  N   UNL     1     -46.900 -53.808  14.363  1.00  0.00    -0.370 N 
HETATM   23  H   UNL     1     -46.939 -52.860  14.705  1.00  0.00     0.159 HD
HETATM   24  H   UNL     1     -47.724 -54.199  13.923  1.00  0.00     0.159 HD
ENDBRANCH   7  20
TORSDOF 4
ENDMDL
MODEL 3
REMARK VINA RESULT:      -5.7      3.931      5.776
REMARK  4 active torsions:
REMARK  status: ('A' for Active; 'I' for Inactive)
REMARK    1  A    between atoms: C_2  and  C_3 
REMARK    2  A    between atoms: C_2  and  N_10 
REMARK    3  A    between atoms: C_3  and  N_4 
REMARK       I    between atoms: N_10  and  C_11 
REMARK       I    between atoms: C_11  and  N_13 
REMARK    4  A    between atoms: C_16  and  C_19 
REMARK       I    between atoms: C_19  and  N_21 
ROOT
HETATM    1  N   UNL     1     -39.488 -50.601  12.659  1.00  0.00    -0.337 N 
HETATM    2  C   UNL     1     -39.807 -51.877  13.048  1.00  0.00     0.318 C 
HETATM    3  O   UNL     1     -38.953 -52.654  13.465  1.00  0.00    -0.247 OA
HETATM    4  N   UNL     1     -41.148 -52.199  12.944  1.00  0.00    -0.334 N 
HETATM    5  C   UNL     1     -42.234 -51.264  12.640  1.00  0.00     0.128 C 
HETATM    6  C   UNL     1     -43.330 -51.335  13.705  1.00  0.00     0.034 C 
HETATM    7  C   UNL     1     -43.823 -52.772  13.929  1.00  0.00     0.081 C 
HETATM    8  C   UNL     1     -42.626 -53.683  14.239  1.00  0.00     0.034 C 
HETATM    9  C   UNL     1     -41.557 -53.585  13.155  1.00  0.00     0.128 C 
HETATM   10  H   UNL     1     -40.029 -50.279  11.871  1.00  0.00     0.164 HD
ENDROOT
BRANCH   1  11
HETATM   11  C   UNL     1     -38.104 -50.124  12.726  1.00  0.00     0.100 C 
HETATM   12  C   UNL     1     -37.559 -49.979  11.304  1.00  0.00     0.034 C 
BRANCH  11  13
HETATM   13  C   UNL     1     -38.020 -48.799  13.513  1.00  0.00     0.153 C 
BRANCH  13  14
HETATM   14  N   UNL     1     -37.179 -48.866  14.689  1.00  0.00    -0.350 N 
HETATM   15  C   UNL     1     -36.659 -47.806  15.379  1.00  0.00     0.108 A 
HETATM   16  C   UNL     1     -35.938 -48.371  16.404  1.00  0.00     0.106 A 
HETATM   17  N   UNL     1     -36.014 -49.738  16.359  1.00  0.00    -0.361 N 
HETATM   18  C   UNL     1     -36.783 -50.008  15.326  1.00  0.00     0.182 A 
ATOM     19  HN  UNL     1     -35.569 -50.404  16.990  1.00  0.00     0.166 HD
ENDBRANCH  13  14
ENDBRANCH  11  13
ENDBRANCH   1  11
BRANCH   7  20
HETATM   20  C   UNL     1     -44.647 -53.260  12.738  1.00  0.00     0.219 C 
HETATM   21  O   UNL     1     -44.600 -54.399  12.292  1.00  0.00    -0.273 OA
HETATM   22  N   UNL     1     -45.439 -52.327  12.139  1.00  0.00    -0.370 N 
HETATM   23  H   UNL     1     -45.463 -51.354  12.402  1.00  0.00     0.159 HD
HETATM   24  H   UNL     1     -45.963 -52.622  11.324  1.00  0.00     0.159 HD
ENDBRANCH   7  20
TORSDOF 4
ENDMDL
MODEL 4
REMARK VINA RESULT:      -5.6      2.937      3.560
REMARK  4 active torsions:
REMARK  status: ('A' for Active; 'I' for Inactive)
REMARK    1  A    between atoms: C_2  and  C_3 
REMARK    2  A    between atoms: C_2  and  N_10 
REMARK    3  A    between atoms: C_3  and  N_4 
REMARK       I    between atoms: N_10  and  C_11 
REMARK       I    between atoms: C_11  and  N_13 
REMARK    4  A    between atoms: C_16  and  C_19 
REMARK       I    between atoms: C_19  and  N_21 
ROOT
HETATM    1  N   UNL     1     -42.384 -49.381  12.327  1.00  0.00    -0.337 N 
HETATM    2  C   UNL     1     -42.958 -50.358  13.099  1.00  0.00     0.318 C 
HETATM    3  O   UNL     1     -44.110 -50.258  13.511  1.00  0.00    -0.247 OA
HETATM    4  N   UNL     1     -42.147 -51.449  13.357  1.00  0.00    -0.334 N 
HETATM    5  C   UNL     1     -40.844 -51.713  12.741  1.00  0.00     0.128 C 
HETATM    6  C   UNL     1     -40.812 -53.106  12.109  1.00  0.00     0.034 C 
HETATM    7  C   UNL     1     -41.237 -54.198  13.101  1.00  0.00     0.081 C 
HETATM    8  C   UNL     1     -42.607 -53.842  13.699  1.00  0.00     0.034 C 
HETATM    9  C   UNL     1     -42.598 -52.449  14.319  1.00  0.00     0.128 C 
HETATM   10  H   UNL     1     -41.402 -49.250  12.516  1.00  0.00     0.164 HD
ENDROOT
BRANCH   1  11
HETATM   11  C   UNL     1     -43.135 -48.174  11.970  1.00  0.00     0.100 C 
HETATM   12  C   UNL     1     -42.738 -47.043  12.919  1.00  0.00     0.034 C 
BRANCH  11  13
HETATM   13  C   UNL     1     -42.894 -47.798  10.493  1.00  0.00     0.153 C 
BRANCH  13  14
HETATM   14  N   UNL     1     -44.046 -47.212   9.840  1.00  0.00    -0.350 N 
HETATM   15  C   UNL     1     -45.292 -47.766   9.737  1.00  0.00     0.108 A 
HETATM   16  C   UNL     1     -46.033 -46.842   9.039  1.00  0.00     0.106 A 
HETATM   17  N   UNL     1     -45.274 -45.745   8.726  1.00  0.00    -0.361 N 
HETATM   18  C   UNL     1     -44.087 -45.987   9.238  1.00  0.00     0.182 A 
ATOM     19  HN  UNL     1     -45.568 -44.917   8.207  1.00  0.00     0.166 HD
ENDBRANCH  13  14
ENDBRANCH  11  13
ENDBRANCH   1  11
BRANCH   7  20
HETATM   20  C   UNL     1     -40.164 -54.419  14.166  1.00  0.00     0.219 C 
HETATM   21  O   UNL     1     -40.376 -54.384  15.372  1.00  0.00    -0.273 OA
HETATM   22  N   UNL     1     -38.899 -54.623  13.704  1.00  0.00    -0.370 N 
HETATM   23  H   UNL     1     -38.640 -54.581  12.730  1.00  0.00     0.159 HD
HETATM   24  H   UNL     1     -38.167 -54.732  14.396  1.00  0.00     0.159 HD
ENDBRANCH   7  20
TORSDOF 4
ENDMDL
MODEL 5
REMARK VINA RESULT:      -5.6      1.490      1.970
REMARK  4 active torsions:
REMARK  status: ('A' for Active; 'I' for Inactive)
REMARK    1  A    between atoms: C_2  and  C_3 
REMARK    2  A    between atoms: C_2  and  N_10 
REMARK    3  A    between atoms: C_3  and  N_4 
REMARK       I    between atoms: N_10  and  C_11 
REMARK       I    between atoms: C_11  and  N_13 
REMARK    4  A    between atoms: C_16  and  C_19 
REMARK       I    between atoms: C_19  and  N_21 
ROOT
HETATM    1  N   UNL     1     -41.499 -50.485  13.325  1.00  0.00    -0.337 N 
HETATM    2  C   UNL     1     -42.859 -50.333  13.417  1.00  0.00     0.318 C 
HETATM    3  O   UNL     1     -43.387 -49.226  13.348  1.00  0.00    -0.247 OA
HETATM    4  N   UNL     1     -43.568 -51.509  13.579  1.00  0.00    -0.334 N 
HETATM    5  C   UNL     1     -43.018 -52.863  13.476  1.00  0.00     0.128 C 
HETATM    6  C   UNL     1     -43.810 -53.699  12.468  1.00  0.00     0.034 C 
HETATM    7  C   UNL     1     -45.316 -53.686  12.766  1.00  0.00     0.081 C 
HETATM    8  C   UNL     1     -45.808 -52.234  12.859  1.00  0.00     0.034 C 
HETATM    9  C   UNL     1     -44.996 -51.435  13.873  1.00  0.00     0.128 C 
HETATM   10  H   UNL     1     -41.140 -51.218  13.918  1.00  0.00     0.164 HD
ENDROOT
BRANCH   1  11
HETATM   11  C   UNL     1     -40.627 -49.322  13.143  1.00  0.00     0.100 C 
HETATM   12  C   UNL     1     -39.390 -49.486  14.026  1.00  0.00     0.034 C 
BRANCH  11  13
HETATM   13  C   UNL     1     -40.254 -49.146  11.656  1.00  0.00     0.153 C 
BRANCH  13  14
HETATM   14  N   UNL     1     -40.785 -47.940  11.056  1.00  0.00    -0.350 N 
HETATM   15  C   UNL     1     -40.259 -46.681  11.158  1.00  0.00     0.108 A 
HETATM   16  C   UNL     1     -41.107 -45.884  10.425  1.00  0.00     0.106 A 
HETATM   17  N   UNL     1     -42.121 -46.625   9.878  1.00  0.00    -0.361 N 
HETATM   18  C   UNL     1     -41.891 -47.863  10.259  1.00  0.00     0.182 A 
ATOM     19  HN  UNL     1     -42.891 -46.288   9.299  1.00  0.00     0.166 HD
ENDBRANCH  13  14
ENDBRANCH  11  13
ENDBRANCH   1  11
BRANCH   7  20
HETATM   20  C   UNL     1     -45.633 -54.501  14.020  1.00  0.00     0.219 C 
HETATM   21  O   UNL     1     -44.865 -55.310  14.525  1.00  0.00    -0.273 OA
HETATM   22  N   UNL     1     -46.872 -54.316  14.554  1.00  0.00    -0.370 N 
HETATM   23  H   UNL     1     -47.583 -53.730  14.142  1.00  0.00     0.159 HD
HETATM   24  H   UNL     1     -47.115 -54.876  15.361  1.00  0.00     0.159 HD
ENDBRANCH   7  20
TORSDOF 4
ENDMDL
MODEL 6
REMARK VINA RESULT:      -5.6      3.726      7.558
REMARK  4 active torsions:
REMARK  status: ('A' for Active; 'I' for Inactive)
REMARK    1  A    between atoms: C_2  and  C_3 
REMARK    2  A    between atoms: C_2  and  N_10 
REMARK    3  A    between atoms: C_3  and  N_4 
REMARK       I    between atoms: N_10  and  C_11 
REMARK       I    between atoms: C_11  and  N_13 
REMARK    4  A    between atoms: C_16  and  C_19 
REMARK       I    between atoms: C_19  and  N_21 
ROOT
HETATM    1  N   UNL     1     -41.878 -54.059  14.838  1.00  0.00    -0.337 N 
HETATM    2  C   UNL     1     -42.008 -53.466  13.608  1.00  0.00     0.318 C 
HETATM    3  O   UNL     1     -43.017 -53.617  12.926  1.00  0.00    -0.247 OA
HETATM    4  N   UNL     1     -40.931 -52.691  13.218  1.00  0.00    -0.334 N 
HETATM    5  C   UNL     1     -39.791 -52.320  14.060  1.00  0.00     0.128 C 
HETATM    6  C   UNL     1     -39.595 -50.803  14.075  1.00  0.00     0.034 C 
HETATM    7  C   UNL     1     -39.505 -50.220  12.657  1.00  0.00     0.081 C 
HETATM    8  C   UNL     1     -40.733 -50.658  11.844  1.00  0.00     0.034 C 
HETATM    9  C   UNL     1     -40.894 -52.175  11.853  1.00  0.00     0.128 C 
HETATM   10  H   UNL     1     -40.936 -54.360  15.037  1.00  0.00     0.164 HD
ENDROOT
BRANCH   1  11
HETATM   11  C   UNL     1     -42.948 -54.900  15.379  1.00  0.00     0.100 C 
HETATM   12  C   UNL     1     -42.325 -56.040  16.185  1.00  0.00     0.034 C 
BRANCH  11  13
HETATM   13  C   UNL     1     -43.926 -54.062  16.229  1.00  0.00     0.153 C 
BRANCH  13  14
HETATM   14  N   UNL     1     -45.126 -53.663  15.524  1.00  0.00    -0.350 N 
HETATM   15  C   UNL     1     -45.646 -52.400  15.453  1.00  0.00     0.108 A 
HETATM   16  C   UNL     1     -46.776 -52.527  14.680  1.00  0.00     0.106 A 
HETATM   17  N   UNL     1     -46.948 -53.825  14.276  1.00  0.00    -0.361 N 
HETATM   18  C   UNL     1     -45.929 -54.483  14.784  1.00  0.00     0.182 A 
ATOM     19  HN  UNL     1     -47.705 -54.200  13.705  1.00  0.00     0.166 HD
ENDBRANCH  13  14
ENDBRANCH  11  13
ENDBRANCH   1  11
BRANCH   7  20
HETATM   20  C   UNL     1     -38.185 -50.603  11.990  1.00  0.00     0.219 C 
HETATM   21  O   UNL     1     -37.344 -51.332  12.501  1.00  0.00    -0.273 OA
HETATM   22  N   UNL     1     -37.949 -50.045  10.770  1.00  0.00    -0.370 N 
HETATM   23  H   UNL     1     -38.558 -49.373  10.329  1.00  0.00     0.159 HD
HETATM   24  H   UNL     1     -37.062 -50.256  10.330  1.00  0.00     0.159 HD
ENDBRANCH   7  20
TORSDOF 4
ENDMDL
MODEL 7
REMARK VINA RESULT:      -5.4      4.753      9.784
REMARK  4 active torsions:
REMARK  status: ('A' for Active; 'I' for Inactive)
REMARK    1  A    between atoms: C_2  and  C_3 
REMARK    2  A    between atoms: C_2  and  N_10 
REMARK    3  A    between atoms: C_3  and  N_4 
REMARK       I    between atoms: N_10  and  C_11 
REMARK       I    between atoms: C_11  and  N_13 
REMARK    4  A    between atoms: C_16  and  C_19 
REMARK       I    between atoms: C_19  and  N_21 
ROOT
HETATM    1  N   UNL     1     -46.146 -54.366  17.960  1.00  0.00    -0.337 N 
HETATM    2  C   UNL     1     -44.891 -54.161  17.447  1.00  0.00     0.318 C 
HETATM    3  O   UNL     1     -43.894 -54.173  18.164  1.00  0.00    -0.247 OA
HETATM    4  N   UNL     1     -44.846 -53.959  16.080  1.00  0.00    -0.334 N 
HETATM    5  C   UNL     1     -45.966 -54.124  15.151  1.00  0.00     0.128 C 
HETATM    6  C   UNL     1     -45.595 -55.075  14.012  1.00  0.00     0.034 C 
HETATM    7  C   UNL     1     -44.295 -54.655  13.311  1.00  0.00     0.081 C 
HETATM    8  C   UNL     1     -43.177 -54.503  14.354  1.00  0.00     0.034 C 
HETATM    9  C   UNL     1     -43.584 -53.548  15.471  1.00  0.00     0.128 C 
HETATM   10  H   UNL     1     -46.856 -53.814  17.504  1.00  0.00     0.164 HD
ENDROOT
BRANCH   1  11
HETATM   11  C   UNL     1     -46.338 -54.602  19.393  1.00  0.00     0.100 C 
HETATM   12  C   UNL     1     -46.821 -53.309  20.050  1.00  0.00     0.034 C 
BRANCH  11  13
HETATM   13  C   UNL     1     -47.321 -55.769  19.628  1.00  0.00     0.153 C 
BRANCH  13  14
HETATM   14  N   UNL     1     -46.682 -57.004  20.029  1.00  0.00    -0.350 N 
HETATM   15  C   UNL     1     -45.408 -57.144  20.507  1.00  0.00     0.108 A 
HETATM   16  C   UNL     1     -45.266 -58.490  20.746  1.00  0.00     0.106 A 
HETATM   17  N   UNL     1     -46.417 -59.165  20.435  1.00  0.00    -0.361 N 
HETATM   18  C   UNL     1     -47.259 -58.242  20.024  1.00  0.00     0.182 A 
ATOM     19  HN  UNL     1     -46.585 -60.168  20.507  1.00  0.00     0.166 HD
ENDBRANCH  13  14
ENDBRANCH  11  13
ENDBRANCH   1  11
BRANCH   7  20
HETATM   20  C   UNL     1     -44.505 -53.392  12.478  1.00  0.00     0.219 C 
HETATM   21  O   UNL     1     -45.604 -52.934  12.190  1.00  0.00    -0.273 OA
HETATM   22  N   UNL     1     -43.375 -52.790  12.012  1.00  0.00    -0.370 N 
HETATM   23  H   UNL     1     -42.445 -53.158  12.141  1.00  0.00     0.159 HD
HETATM   24  H   UNL     1     -43.496 -51.973  11.426  1.00  0.00     0.159 HD
ENDBRANCH   7  20
TORSDOF 4
ENDMDL
MODEL 8
REMARK VINA RESULT:      -5.3      3.863      7.796
REMARK  4 active torsions:
REMARK  status: ('A' for Active; 'I' for Inactive)
REMARK    1  A    between atoms: C_2  and  C_3 
REMARK    2  A    between atoms: C_2  and  N_10 
REMARK    3  A    between atoms: C_3  and  N_4 
REMARK       I    between atoms: N_10  and  C_11 
REMARK       I    between atoms: C_11  and  N_13 
REMARK    4  A    between atoms: C_16  and  C_19 
REMARK       I    between atoms: C_19  and  N_21 
ROOT
HETATM    1  N   UNL     1     -41.677 -52.766  13.506  1.00  0.00    -0.337 N 
HETATM    2  C   UNL     1     -40.307 -52.750  13.451  1.00  0.00     0.318 C 
HETATM    3  O   UNL     1     -39.657 -53.784  13.326  1.00  0.00    -0.247 OA
HETATM    4  N   UNL     1     -39.735 -51.493  13.535  1.00  0.00    -0.334 N 
HETATM    5  C   UNL     1     -40.455 -50.219  13.491  1.00  0.00     0.128 C 
HETATM    6  C   UNL     1     -39.885 -49.307  12.403  1.00  0.00     0.034 C 
HETATM    7  C   UNL     1     -38.365 -49.131  12.537  1.00  0.00     0.081 C 
HETATM    8  C   UNL     1     -37.691 -50.510  12.577  1.00  0.00     0.034 C 
HETATM    9  C   UNL     1     -38.285 -51.389  13.673  1.00  0.00     0.128 C 
HETATM   10  H   UNL     1     -42.058 -52.075  14.134  1.00  0.00     0.164 HD
ENDROOT
BRANCH   1  11
HETATM   11  C   UNL     1     -42.413 -54.030  13.420  1.00  0.00     0.100 C 
HETATM   12  C   UNL     1     -42.660 -54.558  14.834  1.00  0.00     0.034 C 
BRANCH  11  13
HETATM   13  C   UNL     1     -43.730 -53.843  12.638  1.00  0.00     0.153 C 
BRANCH  13  14
HETATM   14  N   UNL     1     -44.920 -53.937  13.458  1.00  0.00    -0.350 N 
HETATM   15  C   UNL     1     -45.570 -52.902  14.071  1.00  0.00     0.108 A 
HETATM   16  C   UNL     1     -46.629 -53.487  14.725  1.00  0.00     0.106 A 
HETATM   17  N   UNL     1     -46.642 -54.841  14.517  1.00  0.00    -0.361 N 
HETATM   18  C   UNL     1     -45.612 -55.082  13.735  1.00  0.00     0.182 A 
ATOM     19  HN  UNL     1     -47.308 -55.517  14.890  1.00  0.00     0.166 HD
ENDBRANCH  13  14
ENDBRANCH  11  13
ENDBRANCH   1  11
BRANCH   7  20
HETATM   20  C   UNL     1     -38.019 -48.266  13.748  1.00  0.00     0.219 C 
HETATM   21  O   UNL     1     -37.128 -48.528  14.546  1.00  0.00    -0.273 OA
HETATM   22  N   UNL     1     -38.800 -47.166  13.939  1.00  0.00    -0.370 N 
HETATM   23  H   UNL     1     -39.601 -46.937  13.369  1.00  0.00     0.159 HD
HETATM   24  H   UNL     1     -38.611 -46.602  14.758  1.00  0.00     0.159 HD
ENDBRANCH   7  20
TORSDOF 4
ENDMDL
MODEL 9
REMARK VINA RESULT:      -5.3      2.529      7.239
REMARK  4 active torsions:
REMARK  status: ('A' for Active; 'I' for Inactive)
REMARK    1  A    between atoms: C_2  and  C_3 
REMARK    2  A    between atoms: C_2  and  N_10 
REMARK    3  A    between atoms: C_3  and  N_4 
REMARK       I    between atoms: N_10  and  C_11 
REMARK       I    between atoms: C_11  and  N_13 
REMARK    4  A    between atoms: C_16  and  C_19 
REMARK       I    between atoms: C_19  and  N_21 
ROOT
HETATM    1  N   UNL     1     -44.055 -50.350  12.687  1.00  0.00    -0.337 N 
HETATM    2  C   UNL     1     -43.051 -49.604  13.250  1.00  0.00     0.318 C 
HETATM    3  O   UNL     1     -42.528 -49.928  14.313  1.00  0.00    -0.247 OA
HETATM    4  N   UNL     1     -42.680 -48.486  12.525  1.00  0.00    -0.334 N 
HETATM    5  C   UNL     1     -43.127 -48.155  11.170  1.00  0.00     0.128 C 
HETATM    6  C   UNL     1     -41.933 -47.916  10.244  1.00  0.00     0.034 C 
HETATM    7  C   UNL     1     -40.955 -46.882  10.821  1.00  0.00     0.081 C 
HETATM    8  C   UNL     1     -40.540 -47.303  12.239  1.00  0.00     0.034 C 
HETATM    9  C   UNL     1     -41.756 -47.531  13.130  1.00  0.00     0.128 C 
HETATM   10  H   UNL     1     -44.753 -49.791  12.222  1.00  0.00     0.164 HD
ENDROOT
BRANCH   1  11
HETATM   11  C   UNL     1     -44.540 -51.566  13.345  1.00  0.00     0.100 C 
HETATM   12  C   UNL     1     -46.067 -51.518  13.415  1.00  0.00     0.034 C 
BRANCH  11  13
HETATM   13  C   UNL     1     -44.038 -52.825  12.606  1.00  0.00     0.153 C 
BRANCH  13  14
HETATM   14  N   UNL     1     -42.741 -53.291  13.052  1.00  0.00    -0.350 N 
HETATM   15  C   UNL     1     -41.529 -52.966  12.508  1.00  0.00     0.108 A 
HETATM   16  C   UNL     1     -40.608 -53.647  13.268  1.00  0.00     0.106 A 
HETATM   17  N   UNL     1     -41.226 -54.364  14.258  1.00  0.00    -0.361 N 
HETATM   18  C   UNL     1     -42.510 -54.116  14.116  1.00  0.00     0.182 A 
ATOM     19  HN  UNL     1     -40.785 -54.963  14.955  1.00  0.00     0.166 HD
ENDBRANCH  13  14
ENDBRANCH  11  13
ENDBRANCH   1  11
BRANCH   7  20
HETATM   20  C   UNL     1     -41.552 -45.476  10.771  1.00  0.00     0.219 C 
HETATM   21  O   UNL     1     -42.460 -45.142  10.020  1.00  0.00    -0.273 OA
HETATM   22  N   UNL     1     -40.984 -44.557  11.600  1.00  0.00    -0.370 N 
HETATM   23  H   UNL     1     -40.181 -44.742  12.182  1.00  0.00     0.159 HD
HETATM   24  H   UNL     1     -41.340 -43.610  11.553  1.00  0.00     0.159 HD
ENDBRANCH   7  20
TORSDOF 4
ENDMDL
