MODEL 1
REMARK VINA RESULT:      -6.2      0.000      0.000
REMARK  3 active torsions:
REMARK  status: ('A' for Active; 'I' for Inactive)
REMARK    1  A    between atoms: C_9  and  N_10 
REMARK       I    between atoms: N_10  and  C_11 
REMARK       I    between atoms: C_11  and  N_13 
REMARK    2  A    between atoms: N_13  and  C_14 
REMARK    3  A    between atoms: C_14  and  C_15 
ROOT
HETATM    1  N   UNL     1     -42.085 -52.238  11.739  1.00  0.00    -0.307 N 
HETATM    2  C   UNL     1     -41.303 -51.123  12.054  1.00  0.00     0.320 C 
HETATM    3  O   UNL     1     -41.273 -50.597  13.161  1.00  0.00    -0.247 OA
HETATM    4  N   UNL     1     -40.496 -50.614  11.034  1.00  0.00    -0.342 N 
HETATM    5  H   UNL     1     -41.989 -52.616  10.813  1.00  0.00     0.170 HD
HETATM    6  H   UNL     1     -40.847 -50.663  10.091  1.00  0.00     0.164 HD
ENDROOT
BRANCH   1   7
HETATM    7  C   UNL     1     -42.926 -52.909  12.646  1.00  0.00     0.058 A 
HETATM    8  C   UNL     1     -42.407 -53.997  13.499  1.00  0.00    -0.029 A 
HETATM    9  C   UNL     1     -40.987 -54.481  13.409  1.00  0.00     0.050 C 
HETATM   10  C   UNL     1     -43.227 -54.600  14.387  1.00  0.00     0.083 A 
HETATM   11  C   UNL     1     -44.656 -54.236  14.529  1.00  0.00     0.247 A 
HETATM   12  O   UNL     1     -45.350 -54.818  15.353  1.00  0.00    -0.268 OA
HETATM   13  N   UNL     1     -45.089 -53.242  13.674  1.00  0.00    -0.327 N 
HETATM   14  C   UNL     1     -46.481 -52.817  13.698  1.00  0.00     0.159 C 
HETATM   15  C   UNL     1     -44.233 -52.611  12.790  1.00  0.00     0.123 A 
ENDBRANCH   1   7
BRANCH   4  16
HETATM   16  C   UNL     1     -39.781 -49.417  11.455  1.00  0.00     0.129 C 
BRANCH  16  17
HETATM   17  C   UNL     1     -38.360 -49.495  11.895  1.00  0.00     0.003 A 
HETATM   18  C   UNL     1     -37.267 -49.937  10.953  1.00  0.00     0.007 A 
HETATM   19  C   UNL     1     -37.557 -50.730  12.199  1.00  0.00     0.007 A 
ENDBRANCH  16  17
ENDBRANCH   4  16
TORSDOF 3
ENDMDL
MODEL 2
REMARK VINA RESULT:      -6.0      3.124      5.261
REMARK  3 active torsions:
REMARK  status: ('A' for Active; 'I' for Inactive)
REMARK    1  A    between atoms: C_9  and  N_10 
REMARK       I    between atoms: N_10  and  C_11 
REMARK       I    between atoms: C_11  and  N_13 
REMARK    2  A    between atoms: N_13  and  C_14 
REMARK    3  A    between atoms: C_14  and  C_15 
ROOT
HETATM    1  N   UNL     1     -40.423 -50.054  10.814  1.00  0.00    -0.307 N 
HETATM    2  C   UNL     1     -41.362 -49.026  10.952  1.00  0.00     0.320 C 
HETATM    3  O   UNL     1     -41.960 -48.778  11.993  1.00  0.00    -0.247 OA
HETATM    4  N   UNL     1     -41.592 -48.232   9.825  1.00  0.00    -0.342 N 
HETATM    5  H   UNL     1     -39.957 -50.130   9.928  1.00  0.00     0.170 HD
HETATM    6  H   UNL     1     -41.542 -48.676   8.923  1.00  0.00     0.164 HD
ENDROOT
BRANCH   1   7
HETATM    7  C   UNL     1     -40.033 -50.925  11.848  1.00  0.00     0.058 A 
HETATM    8  C   UNL     1     -38.808 -50.672  12.632  1.00  0.00    -0.029 A 
HETATM    9  C   UNL     1     -37.891 -49.518  12.339  1.00  0.00     0.050 C 
HETATM   10  C   UNL     1     -38.475 -51.505  13.641  1.00  0.00     0.083 A 
HETATM   11  C   UNL     1     -39.281 -52.699  13.990  1.00  0.00     0.247 A 
HETATM   12  O   UNL     1     -38.929 -53.416  14.918  1.00  0.00    -0.268 OA
HETATM   13  N   UNL     1     -40.390 -52.902  13.192  1.00  0.00    -0.327 N 
HETATM   14  C   UNL     1     -41.244 -54.060  13.418  1.00  0.00     0.159 C 
HETATM   15  C   UNL     1     -40.737 -52.027  12.180  1.00  0.00     0.123 A 
ENDBRANCH   1   7
BRANCH   4  16
HETATM   16  C   UNL     1     -42.634 -47.242  10.065  1.00  0.00     0.129 C 
BRANCH  16  17
HETATM   17  C   UNL     1     -43.652 -46.943   9.019  1.00  0.00     0.003 A 
HETATM   18  C   UNL     1     -45.064 -47.464   9.123  1.00  0.00     0.007 A 
HETATM   19  C   UNL     1     -44.191 -47.871   7.966  1.00  0.00     0.007 A 
ENDBRANCH  16  17
ENDBRANCH   4  16
TORSDOF 3
ENDMDL
MODEL 3
REMARK VINA RESULT:      -5.9      3.863      6.453
REMARK  3 active torsions:
REMARK  status: ('A' for Active; 'I' for Inactive)
REMARK    1  A    between atoms: C_9  and  N_10 
REMARK       I    between atoms: N_10  and  C_11 
REMARK       I    between atoms: C_11  and  N_13 
REMARK    2  A    between atoms: N_13  and  C_14 
REMARK    3  A    between atoms: C_14  and  C_15 
ROOT
HETATM    1  N   UNL     1     -40.867 -49.205  10.632  1.00  0.00    -0.307 N 
HETATM    2  C   UNL     1     -42.041 -48.448  10.708  1.00  0.00     0.320 C 
HETATM    3  O   UNL     1     -42.552 -48.079  11.759  1.00  0.00    -0.247 OA
HETATM    4  N   UNL     1     -42.630 -48.082   9.495  1.00  0.00    -0.342 N 
HETATM    5  H   UNL     1     -40.511 -49.404   9.714  1.00  0.00     0.170 HD
HETATM    6  H   UNL     1     -42.564 -48.731   8.728  1.00  0.00     0.164 HD
ENDROOT
BRANCH   1   7
HETATM    7  C   UNL     1     -40.115 -49.629  11.743  1.00  0.00     0.058 A 
HETATM    8  C   UNL     1     -40.271 -50.991  12.290  1.00  0.00    -0.029 A 
HETATM    9  C   UNL     1     -41.269 -51.969  11.737  1.00  0.00     0.050 C 
HETATM   10  C   UNL     1     -39.511 -51.384  13.334  1.00  0.00     0.083 A 
HETATM   11  C   UNL     1     -38.527 -50.489  13.988  1.00  0.00     0.247 A 
HETATM   12  O   UNL     1     -37.865 -50.903  14.931  1.00  0.00    -0.268 OA
HETATM   13  N   UNL     1     -38.459 -49.216  13.455  1.00  0.00    -0.327 N 
HETATM   14  C   UNL     1     -37.550 -48.235  14.032  1.00  0.00     0.159 C 
HETATM   15  C   UNL     1     -39.221 -48.834  12.367  1.00  0.00     0.123 A 
ENDBRANCH   1   7
BRANCH   4  16
HETATM   16  C   UNL     1     -43.879 -47.359   9.697  1.00  0.00     0.129 C 
BRANCH  16  17
HETATM   17  C   UNL     1     -45.025 -47.547   8.764  1.00  0.00     0.003 A 
HETATM   18  C   UNL     1     -46.335 -46.828   8.971  1.00  0.00     0.007 A 
HETATM   19  C   UNL     1     -46.286 -48.332   9.002  1.00  0.00     0.007 A 
ENDBRANCH  16  17
ENDBRANCH   4  16
TORSDOF 3
ENDMDL
MODEL 4
REMARK VINA RESULT:      -5.8      3.264      6.673
REMARK  3 active torsions:
REMARK  status: ('A' for Active; 'I' for Inactive)
REMARK    1  A    between atoms: C_9  and  N_10 
REMARK       I    between atoms: N_10  and  C_11 
REMARK       I    between atoms: C_11  and  N_13 
REMARK    2  A    between atoms: N_13  and  C_14 
REMARK    3  A    between atoms: C_14  and  C_15 
ROOT
HETATM    1  N   UNL     1     -40.859 -49.534  10.767  1.00  0.00    -0.307 N 
HETATM    2  C   UNL     1     -41.406 -50.506  11.611  1.00  0.00     0.320 C 
HETATM    3  O   UNL     1     -42.321 -50.293  12.399  1.00  0.00    -0.247 OA
HETATM    4  N   UNL     1     -40.877 -51.794  11.509  1.00  0.00    -0.342 N 
HETATM    5  H   UNL     1     -40.149 -49.836  10.124  1.00  0.00     0.170 HD
HETATM    6  H   UNL     1     -39.896 -51.882  11.301  1.00  0.00     0.164 HD
ENDROOT
BRANCH   1   7
HETATM    7  C   UNL     1     -41.291 -48.196  10.700  1.00  0.00     0.058 A 
HETATM    8  C   UNL     1     -40.638 -47.147  11.508  1.00  0.00    -0.029 A 
HETATM    9  C   UNL     1     -39.531 -47.453  12.478  1.00  0.00     0.050 C 
HETATM   10  C   UNL     1     -41.048 -45.866  11.398  1.00  0.00     0.083 A 
HETATM   11  C   UNL     1     -42.161 -45.456  10.509  1.00  0.00     0.247 A 
HETATM   12  O   UNL     1     -42.486 -44.278  10.450  1.00  0.00    -0.268 OA
HETATM   13  N   UNL     1     -42.755 -46.490   9.812  1.00  0.00    -0.327 N 
HETATM   14  C   UNL     1     -43.879 -46.218   8.928  1.00  0.00     0.159 C 
HETATM   15  C   UNL     1     -42.308 -47.795   9.910  1.00  0.00     0.123 A 
ENDBRANCH   1   7
BRANCH   4  16
HETATM   16  C   UNL     1     -41.474 -52.703  12.480  1.00  0.00     0.129 C 
BRANCH  16  17
HETATM   17  C   UNL     1     -40.698 -53.853  13.021  1.00  0.00     0.003 A 
HETATM   18  C   UNL     1     -40.858 -54.310  14.450  1.00  0.00     0.007 A 
HETATM   19  C   UNL     1     -39.524 -53.813  13.960  1.00  0.00     0.007 A 
ENDBRANCH  16  17
ENDBRANCH   4  16
TORSDOF 3
ENDMDL
MODEL 5
REMARK VINA RESULT:      -5.7      2.306      6.814
REMARK  3 active torsions:
REMARK  status: ('A' for Active; 'I' for Inactive)
REMARK    1  A    between atoms: C_9  and  N_10 
REMARK       I    between atoms: N_10  and  C_11 
REMARK       I    between atoms: C_11  and  N_13 
REMARK    2  A    between atoms: N_13  and  C_14 
REMARK    3  A    between atoms: C_14  and  C_15 
ROOT
HETATM    1  N   UNL     1     -40.951 -50.843  11.210  1.00  0.00    -0.307 N 
HETATM    2  C   UNL     1     -41.772 -51.515  12.121  1.00  0.00     0.320 C 
HETATM    3  O   UNL     1     -42.387 -50.964  13.027  1.00  0.00    -0.247 OA
HETATM    4  N   UNL     1     -41.903 -52.895  11.947  1.00  0.00    -0.342 N 
HETATM    5  H   UNL     1     -40.539 -51.391  10.476  1.00  0.00     0.170 HD
HETATM    6  H   UNL     1     -41.102 -53.401  11.607  1.00  0.00     0.164 HD
ENDROOT
BRANCH   1   7
HETATM    7  C   UNL     1     -40.733 -49.453  11.203  1.00  0.00     0.058 A 
HETATM    8  C   UNL     1     -39.528 -48.871  11.828  1.00  0.00    -0.029 A 
HETATM    9  C   UNL     1     -38.510 -49.712  12.546  1.00  0.00     0.050 C 
HETATM   10  C   UNL     1     -39.325 -47.537  11.776  1.00  0.00     0.083 A 
HETATM   11  C   UNL     1     -40.285 -46.607  11.135  1.00  0.00     0.247 A 
HETATM   12  O   UNL     1     -40.046 -45.407  11.117  1.00  0.00    -0.268 OA
HETATM   13  N   UNL     1     -41.410 -47.210  10.607  1.00  0.00    -0.327 N 
HETATM   14  C   UNL     1     -42.441 -46.398   9.976  1.00  0.00     0.159 C 
HETATM   15  C   UNL     1     -41.593 -48.580  10.640  1.00  0.00     0.123 A 
ENDBRANCH   1   7
BRANCH   4  16
HETATM   16  C   UNL     1     -42.723 -53.497  12.990  1.00  0.00     0.129 C 
BRANCH  16  17
HETATM   17  C   UNL     1     -44.075 -54.039  12.676  1.00  0.00     0.003 A 
HETATM   18  C   UNL     1     -45.330 -53.303  13.072  1.00  0.00     0.007 A 
HETATM   19  C   UNL     1     -45.054 -54.676  13.622  1.00  0.00     0.007 A 
ENDBRANCH  16  17
ENDBRANCH   4  16
TORSDOF 3
ENDMDL
MODEL 6
REMARK VINA RESULT:      -5.7      1.715      2.594
REMARK  3 active torsions:
REMARK  status: ('A' for Active; 'I' for Inactive)
REMARK    1  A    between atoms: C_9  and  N_10 
REMARK       I    between atoms: N_10  and  C_11 
REMARK       I    between atoms: C_11  and  N_13 
REMARK    2  A    between atoms: N_13  and  C_14 
REMARK    3  A    between atoms: C_14  and  C_15 
ROOT
HETATM    1  N   UNL     1     -41.603 -52.256  11.726  1.00  0.00    -0.307 N 
HETATM    2  C   UNL     1     -41.317 -50.905  11.945  1.00  0.00     0.320 C 
HETATM    3  O   UNL     1     -41.495 -50.331  13.014  1.00  0.00    -0.247 OA
HETATM    4  N   UNL     1     -40.772 -50.197  10.871  1.00  0.00    -0.342 N 
HETATM    5  H   UNL     1     -41.366 -52.632  10.824  1.00  0.00     0.170 HD
HETATM    6  H   UNL     1     -41.075 -50.446   9.944  1.00  0.00     0.164 HD
ENDROOT
BRANCH   1   7
HETATM    7  C   UNL     1     -42.116 -53.135  12.698  1.00  0.00     0.058 A 
HETATM    8  C   UNL     1     -41.228 -53.764  13.696  1.00  0.00    -0.029 A 
HETATM    9  C   UNL     1     -39.740 -53.551  13.695  1.00  0.00     0.050 C 
HETATM   10  C   UNL     1     -41.751 -54.575  14.640  1.00  0.00     0.083 A 
HETATM   11  C   UNL     1     -43.197 -54.892  14.708  1.00  0.00     0.247 A 
HETATM   12  O   UNL     1     -43.614 -55.634  15.589  1.00  0.00    -0.268 OA
HETATM   13  N   UNL     1     -43.966 -54.306  13.722  1.00  0.00    -0.327 N 
HETATM   14  C   UNL     1     -45.398 -54.565  13.666  1.00  0.00     0.159 C 
HETATM   15  C   UNL     1     -43.423 -53.453  12.778  1.00  0.00     0.123 A 
ENDBRANCH   1   7
BRANCH   4  16
HETATM   16  C   UNL     1     -40.580 -48.789  11.193  1.00  0.00     0.129 C 
BRANCH  16  17
HETATM   17  C   UNL     1     -41.482 -47.750  10.622  1.00  0.00     0.003 A 
HETATM   18  C   UNL     1     -42.514 -47.050  11.472  1.00  0.00     0.007 A 
HETATM   19  C   UNL     1     -42.943 -47.880  10.292  1.00  0.00     0.007 A 
ENDBRANCH  16  17
ENDBRANCH   4  16
TORSDOF 3
ENDMDL
MODEL 7
REMARK VINA RESULT:      -5.5      3.225      7.407
REMARK  3 active torsions:
REMARK  status: ('A' for Active; 'I' for Inactive)
REMARK    1  A    between atoms: C_9  and  N_10 
REMARK       I    between atoms: N_10  and  C_11 
REMARK       I    between atoms: C_11  and  N_13 
REMARK    2  A    between atoms: N_13  and  C_14 
REMARK    3  A    between atoms: C_14  and  C_15 
ROOT
HETATM    1  N   UNL     1     -42.171 -49.681  11.534  1.00  0.00    -0.307 N 
HETATM    2  C   UNL     1     -42.937 -49.998  12.660  1.00  0.00     0.320 C 
HETATM    3  O   UNL     1     -43.373 -49.168  13.449  1.00  0.00    -0.247 OA
HETATM    4  N   UNL     1     -43.231 -51.350  12.858  1.00  0.00    -0.342 N 
HETATM    5  H   UNL     1     -41.913 -50.441  10.929  1.00  0.00     0.170 HD
HETATM    6  H   UNL     1     -42.536 -52.024  12.584  1.00  0.00     0.164 HD
ENDROOT
BRANCH   1   7
HETATM    7  C   UNL     1     -41.811 -48.376  11.151  1.00  0.00     0.058 A 
HETATM    8  C   UNL     1     -40.483 -47.825  11.485  1.00  0.00    -0.029 A 
HETATM    9  C   UNL     1     -39.473 -48.596  12.291  1.00  0.00     0.050 C 
HETATM   10  C   UNL     1     -40.150 -46.583  11.075  1.00  0.00     0.083 A 
HETATM   11  C   UNL     1     -41.082 -45.717  10.316  1.00  0.00     0.247 A 
HETATM   12  O   UNL     1     -40.723 -44.598   9.969  1.00  0.00    -0.268 OA
HETATM   13  N   UNL     1     -42.322 -46.274  10.072  1.00  0.00    -0.327 N 
HETATM   14  C   UNL     1     -43.335 -45.508   9.359  1.00  0.00     0.159 C 
HETATM   15  C   UNL     1     -42.641 -47.559  10.471  1.00  0.00     0.123 A 
ENDBRANCH   1   7
BRANCH   4  16
HETATM   16  C   UNL     1     -43.972 -51.567  14.093  1.00  0.00     0.129 C 
BRANCH  16  17
HETATM   17  C   UNL     1     -45.362 -52.102  14.061  1.00  0.00     0.003 A 
HETATM   18  C   UNL     1     -46.398 -51.546  13.116  1.00  0.00     0.007 A 
HETATM   19  C   UNL     1     -46.608 -51.459  14.603  1.00  0.00     0.007 A 
ENDBRANCH  16  17
ENDBRANCH   4  16
TORSDOF 3
ENDMDL
MODEL 8
REMARK VINA RESULT:      -5.4      1.754      2.026
REMARK  3 active torsions:
REMARK  status: ('A' for Active; 'I' for Inactive)
REMARK    1  A    between atoms: C_9  and  N_10 
REMARK       I    between atoms: N_10  and  C_11 
REMARK       I    between atoms: C_11  and  N_13 
REMARK    2  A    between atoms: N_13  and  C_14 
REMARK    3  A    between atoms: C_14  and  C_15 
ROOT
HETATM    1  N   UNL     1     -41.243 -52.270  14.670  1.00  0.00    -0.307 N 
HETATM    2  C   UNL     1     -40.133 -52.129  13.831  1.00  0.00     0.320 C 
HETATM    3  O   UNL     1     -40.020 -52.686  12.744  1.00  0.00    -0.247 OA
HETATM    4  N   UNL     1     -39.119 -51.275  14.271  1.00  0.00    -0.342 N 
HETATM    5  H   UNL     1     -41.250 -51.723  15.513  1.00  0.00     0.170 HD
HETATM    6  H   UNL     1     -38.941 -51.232  15.261  1.00  0.00     0.164 HD
ENDROOT
BRANCH   1   7
HETATM    7  C   UNL     1     -42.375 -53.052  14.376  1.00  0.00     0.058 A 
HETATM    8  C   UNL     1     -42.498 -54.432  14.885  1.00  0.00    -0.029 A 
HETATM    9  C   UNL     1     -41.410 -55.092  15.687  1.00  0.00     0.050 C 
HETATM   10  C   UNL     1     -43.611 -55.148  14.618  1.00  0.00     0.083 A 
HETATM   11  C   UNL     1     -44.726 -54.616  13.800  1.00  0.00     0.247 A 
HETATM   12  O   UNL     1     -45.711 -55.312  13.593  1.00  0.00    -0.268 OA
HETATM   13  N   UNL     1     -44.531 -53.335  13.319  1.00  0.00    -0.327 N 
HETATM   14  C   UNL     1     -45.544 -52.714  12.478  1.00  0.00     0.159 C 
HETATM   15  C   UNL     1     -43.400 -52.601  13.624  1.00  0.00     0.123 A 
ENDBRANCH   1   7
BRANCH   4  16
HETATM   16  C   UNL     1     -37.987 -51.260  13.353  1.00  0.00     0.129 C 
BRANCH  16  17
HETATM   17  C   UNL     1     -37.664 -50.038  12.566  1.00  0.00     0.003 A 
HETATM   18  C   UNL     1     -38.661 -49.427  11.614  1.00  0.00     0.007 A 
HETATM   19  C   UNL     1     -37.345 -49.945  11.099  1.00  0.00     0.007 A 
ENDBRANCH  16  17
ENDBRANCH   4  16
TORSDOF 3
ENDMDL
MODEL 9
REMARK VINA RESULT:      -5.3      3.651      7.398
REMARK  3 active torsions:
REMARK  status: ('A' for Active; 'I' for Inactive)
REMARK    1  A    between atoms: C_9  and  N_10 
REMARK       I    between atoms: N_10  and  C_11 
REMARK       I    between atoms: C_11  and  N_13 
REMARK    2  A    between atoms: N_13  and  C_14 
REMARK    3  A    between atoms: C_14  and  C_15 
ROOT
HETATM    1  N   UNL     1     -41.247 -48.912  10.454  1.00  0.00    -0.307 N 
HETATM    2  C   UNL     1     -41.019 -49.767  11.537  1.00  0.00     0.320 C 
HETATM    3  O   UNL     1     -40.929 -49.390  12.701  1.00  0.00    -0.247 OA
HETATM    4  N   UNL     1     -40.920 -51.130  11.251  1.00  0.00    -0.342 N 
HETATM    5  H   UNL     1     -41.356 -49.340   9.551  1.00  0.00     0.170 HD
HETATM    6  H   UNL     1     -40.499 -51.395  10.376  1.00  0.00     0.164 HD
ENDROOT
BRANCH   1   7
HETATM    7  C   UNL     1     -41.414 -47.519  10.554  1.00  0.00     0.058 A 
HETATM    8  C   UNL     1     -42.647 -46.866  10.072  1.00  0.00    -0.029 A 
HETATM    9  C   UNL     1     -43.754 -47.634   9.404  1.00  0.00     0.050 C 
HETATM   10  C   UNL     1     -42.798 -45.532  10.212  1.00  0.00     0.083 A 
HETATM   11  C   UNL     1     -41.753 -44.670  10.814  1.00  0.00     0.247 A 
HETATM   12  O   UNL     1     -41.947 -43.465  10.916  1.00  0.00    -0.268 OA
HETATM   13  N   UNL     1     -40.608 -45.335  11.206  1.00  0.00    -0.327 N 
HETATM   14  C   UNL     1     -39.498 -44.591  11.784  1.00  0.00     0.159 C 
HETATM   15  C   UNL     1     -40.478 -46.706  11.084  1.00  0.00     0.123 A 
ENDBRANCH   1   7
BRANCH   4  16
HETATM   16  C   UNL     1     -40.616 -51.913  12.441  1.00  0.00     0.129 C 
BRANCH  16  17
HETATM   17  C   UNL     1     -41.703 -52.576  13.214  1.00  0.00     0.003 A 
HETATM   18  C   UNL     1     -41.867 -54.076  13.214  1.00  0.00     0.007 A 
HETATM   19  C   UNL     1     -42.965 -53.195  12.680  1.00  0.00     0.007 A 
ENDBRANCH  16  17
ENDBRANCH   4  16
TORSDOF 3
ENDMDL
