MODEL 1
REMARK VINA RESULT:      -6.2      0.000      0.000
REMARK  3 active torsions:
REMARK  status: ('A' for Active; 'I' for Inactive)
REMARK    1  A    between atoms: S_2  and  C_3 
REMARK    2  A    between atoms: C_7  and  N_9 
REMARK       I    between atoms: N_9  and  C_10 
REMARK       I    between atoms: C_10  and  N_12 
REMARK    3  A    between atoms: N_12  and  C_13 
ROOT
HETATM    1  N   UNL     1     -40.630 -49.453  10.560  1.00  0.00    -0.338 N 
HETATM    2  C   UNL     1     -41.702 -48.594  10.673  1.00  0.00     0.321 C 
HETATM    3  O   UNL     1     -42.078 -48.183  11.769  1.00  0.00    -0.247 OA
HETATM    4  N   UNL     1     -42.295 -48.289   9.470  1.00  0.00    -0.306 N 
HETATM    5  H   UNL     1     -40.130 -49.464   9.686  1.00  0.00     0.164 HD
HETATM    6  H   UNL     1     -42.079 -48.884   8.683  1.00  0.00     0.171 HD
ENDROOT
BRANCH   1   7
HETATM    7  C   UNL     1     -39.915 -49.817  11.784  1.00  0.00     0.087 C 
HETATM    8  C   UNL     1     -38.397 -49.653  11.626  1.00  0.00     0.025 C 
HETATM    9  C   UNL     1     -37.666 -49.971  12.931  1.00  0.00     0.003 C 
HETATM   10  C   UNL     1     -38.060 -51.328  13.517  1.00  0.00     0.015 C 
HETATM   11  C   UNL     1     -39.575 -51.571  13.598  1.00  0.00     0.049 C 
HETATM   12  C   UNL     1     -40.250 -51.236  12.253  1.00  0.00     0.040 C 
BRANCH  11  13
HETATM   13  S   UNL     1     -40.383 -50.608  14.949  1.00  0.00    -0.169 SA
HETATM   14  C   UNL     1     -41.904 -51.559  15.178  1.00  0.00     0.090 C 
ENDBRANCH  11  13
ENDBRANCH   1   7
BRANCH   4  15
HETATM   15  C   UNL     1     -43.409 -47.418   9.322  1.00  0.00     0.077 A 
HETATM   16  C   UNL     1     -44.718 -47.873   9.152  1.00  0.00     0.050 A 
HETATM   17  C   UNL     1     -45.736 -46.950   8.966  1.00  0.00     0.090 A 
HETATM   18  N   UNL     1     -45.548 -45.614   8.960  1.00  0.00    -0.372 N 
HETATM   19  C   UNL     1     -44.276 -45.190   9.149  1.00  0.00     0.132 A 
ATOM     20  HN  UNL     1     -46.319 -44.962   8.821  1.00  0.00     0.164 HD
HETATM   21  C   UNL     1     -43.196 -46.044   9.336  1.00  0.00     0.158 A 
HETATM   22  F   UNL     1     -41.964 -45.540   9.506  1.00  0.00    -0.202 F 
ENDBRANCH   4  15
TORSDOF 3
ENDMDL
MODEL 2
REMARK VINA RESULT:      -6.1      2.032      2.450
REMARK  3 active torsions:
REMARK  status: ('A' for Active; 'I' for Inactive)
REMARK    1  A    between atoms: S_2  and  C_3 
REMARK    2  A    between atoms: C_7  and  N_9 
REMARK       I    between atoms: N_9  and  C_10 
REMARK       I    between atoms: C_10  and  N_12 
REMARK    3  A    between atoms: N_12  and  C_13 
ROOT
HETATM    1  N   UNL     1     -40.601 -50.709  11.361  1.00  0.00    -0.338 N 
HETATM    2  C   UNL     1     -41.485 -49.650  11.395  1.00  0.00     0.321 C 
HETATM    3  O   UNL     1     -42.310 -49.537  12.300  1.00  0.00    -0.247 OA
HETATM    4  N   UNL     1     -41.361 -48.792  10.328  1.00  0.00    -0.306 N 
HETATM    5  H   UNL     1     -39.737 -50.579  10.861  1.00  0.00     0.164 HD
HETATM    6  H   UNL     1     -40.848 -49.124   9.523  1.00  0.00     0.171 HD
ENDROOT
BRANCH   1   7
HETATM    7  C   UNL     1     -40.637 -51.664  12.468  1.00  0.00     0.087 C 
HETATM    8  C   UNL     1     -39.327 -51.659  13.267  1.00  0.00     0.025 C 
HETATM    9  C   UNL     1     -39.401 -52.611  14.461  1.00  0.00     0.003 C 
HETATM   10  C   UNL     1     -39.855 -54.019  14.071  1.00  0.00     0.015 C 
HETATM   11  C   UNL     1     -41.109 -54.061  13.184  1.00  0.00     0.049 C 
HETATM   12  C   UNL     1     -40.969 -53.084  12.000  1.00  0.00     0.040 C 
BRANCH  11  13
HETATM   13  S   UNL     1     -42.656 -53.683  14.115  1.00  0.00    -0.169 SA
HETATM   14  C   UNL     1     -43.872 -53.712  12.777  1.00  0.00     0.090 C 
ENDBRANCH  11  13
ENDBRANCH   1   7
BRANCH   4  15
HETATM   15  C   UNL     1     -42.148 -47.623  10.142  1.00  0.00     0.077 A 
HETATM   16  C   UNL     1     -43.282 -47.587   9.328  1.00  0.00     0.050 A 
HETATM   17  C   UNL     1     -43.961 -46.388   9.166  1.00  0.00     0.090 A 
HETATM   18  N   UNL     1     -43.607 -45.237   9.773  1.00  0.00    -0.372 N 
HETATM   19  C   UNL     1     -42.519 -45.296  10.577  1.00  0.00     0.132 A 
ATOM     20  HN  UNL     1     -44.129 -44.371   9.633  1.00  0.00     0.164 HD
HETATM   21  C   UNL     1     -41.776 -46.450  10.789  1.00  0.00     0.158 A 
HETATM   22  F   UNL     1     -40.704 -46.419  11.595  1.00  0.00    -0.202 F 
ENDBRANCH   4  15
TORSDOF 3
ENDMDL
MODEL 3
REMARK VINA RESULT:      -6.1      3.229      4.862
REMARK  3 active torsions:
REMARK  status: ('A' for Active; 'I' for Inactive)
REMARK    1  A    between atoms: S_2  and  C_3 
REMARK    2  A    between atoms: C_7  and  N_9 
REMARK       I    between atoms: N_9  and  C_10 
REMARK       I    between atoms: C_10  and  N_12 
REMARK    3  A    between atoms: N_12  and  C_13 
ROOT
HETATM    1  N   UNL     1     -42.309 -52.008  11.958  1.00  0.00    -0.338 N 
HETATM    2  C   UNL     1     -42.124 -50.658  12.173  1.00  0.00     0.321 C 
HETATM    3  O   UNL     1     -42.594 -50.099  13.162  1.00  0.00    -0.247 OA
HETATM    4  N   UNL     1     -41.411 -50.032  11.177  1.00  0.00    -0.306 N 
HETATM    5  H   UNL     1     -41.632 -52.487  11.388  1.00  0.00     0.164 HD
HETATM    6  H   UNL     1     -41.313 -50.523  10.299  1.00  0.00     0.171 HD
ENDROOT
BRANCH   1   7
HETATM    7  C   UNL     1     -43.035 -52.767  12.977  1.00  0.00     0.087 C 
HETATM    8  C   UNL     1     -42.229 -53.979  13.465  1.00  0.00     0.025 C 
HETATM    9  C   UNL     1     -42.967 -54.726  14.576  1.00  0.00     0.003 C 
HETATM   10  C   UNL     1     -44.406 -55.082  14.197  1.00  0.00     0.015 C 
HETATM   11  C   UNL     1     -45.217 -53.916  13.609  1.00  0.00     0.049 C 
HETATM   12  C   UNL     1     -44.420 -53.209  12.495  1.00  0.00     0.040 C 
BRANCH  11  13
HETATM   13  S   UNL     1     -45.722 -52.681  14.884  1.00  0.00    -0.169 SA
HETATM   14  C   UNL     1     -46.553 -51.451  13.852  1.00  0.00     0.090 C 
ENDBRANCH  11  13
ENDBRANCH   1   7
BRANCH   4  15
HETATM   15  C   UNL     1     -41.081 -48.650  11.173  1.00  0.00     0.077 A 
HETATM   16  C   UNL     1     -39.976 -48.126  11.846  1.00  0.00     0.050 A 
HETATM   17  C   UNL     1     -39.758 -46.756  11.828  1.00  0.00     0.090 A 
HETATM   18  N   UNL     1     -40.546 -45.879  11.171  1.00  0.00    -0.372 N 
HETATM   19  C   UNL     1     -41.601 -46.408  10.505  1.00  0.00     0.132 A 
ATOM     20  HN  UNL     1     -40.359 -44.877  11.177  1.00  0.00     0.164 HD
HETATM   21  C   UNL     1     -41.896 -47.765  10.477  1.00  0.00     0.158 A 
HETATM   22  F   UNL     1     -42.968 -48.203   9.800  1.00  0.00    -0.202 F 
ENDBRANCH   4  15
TORSDOF 3
ENDMDL
MODEL 4
REMARK VINA RESULT:      -6.0      4.066      5.767
REMARK  3 active torsions:
REMARK  status: ('A' for Active; 'I' for Inactive)
REMARK    1  A    between atoms: S_2  and  C_3 
REMARK    2  A    between atoms: C_7  and  N_9 
REMARK       I    between atoms: N_9  and  C_10 
REMARK       I    between atoms: C_10  and  N_12 
REMARK    3  A    between atoms: N_12  and  C_13 
ROOT
HETATM    1  N   UNL     1     -41.836 -51.282  11.852  1.00  0.00    -0.338 N 
HETATM    2  C   UNL     1     -42.673 -51.833  12.801  1.00  0.00     0.321 C 
HETATM    3  O   UNL     1     -42.444 -51.708  14.002  1.00  0.00    -0.247 OA
HETATM    4  N   UNL     1     -43.728 -52.534  12.266  1.00  0.00    -0.306 N 
HETATM    5  H   UNL     1     -42.227 -51.076  10.948  1.00  0.00     0.164 HD
HETATM    6  H   UNL     1     -43.666 -52.795  11.292  1.00  0.00     0.171 HD
ENDROOT
BRANCH   1   7
HETATM    7  C   UNL     1     -40.696 -50.495  12.322  1.00  0.00     0.087 C 
HETATM    8  C   UNL     1     -40.383 -49.327  11.377  1.00  0.00     0.025 C 
HETATM    9  C   UNL     1     -39.235 -48.471  11.913  1.00  0.00     0.003 C 
HETATM   10  C   UNL     1     -37.997 -49.296  12.270  1.00  0.00     0.015 C 
HETATM   11  C   UNL     1     -38.284 -50.534  13.135  1.00  0.00     0.049 C 
HETATM   12  C   UNL     1     -39.447 -51.353  12.540  1.00  0.00     0.040 C 
BRANCH  11  13
HETATM   13  S   UNL     1     -38.664 -50.108  14.889  1.00  0.00    -0.169 SA
HETATM   14  C   UNL     1     -39.137 -51.730  15.535  1.00  0.00     0.090 C 
ENDBRANCH  11  13
ENDBRANCH   1   7
BRANCH   4  15
HETATM   15  C   UNL     1     -44.732 -53.182  13.035  1.00  0.00     0.077 A 
HETATM   16  C   UNL     1     -44.720 -54.550  13.311  1.00  0.00     0.050 A 
HETATM   17  C   UNL     1     -45.768 -55.107  14.029  1.00  0.00     0.090 A 
HETATM   18  N   UNL     1     -46.810 -54.397  14.508  1.00  0.00    -0.372 N 
HETATM   19  C   UNL     1     -46.795 -53.067  14.250  1.00  0.00     0.132 A 
ATOM     20  HN  UNL     1     -47.566 -54.836  15.033  1.00  0.00     0.164 HD
HETATM   21  C   UNL     1     -45.790 -52.429  13.535  1.00  0.00     0.158 A 
HETATM   22  F   UNL     1     -45.857 -51.108  13.316  1.00  0.00    -0.202 F 
ENDBRANCH   4  15
TORSDOF 3
ENDMDL
MODEL 5
REMARK VINA RESULT:      -5.6      3.964      6.417
REMARK  3 active torsions:
REMARK  status: ('A' for Active; 'I' for Inactive)
REMARK    1  A    between atoms: S_2  and  C_3 
REMARK    2  A    between atoms: C_7  and  N_9 
REMARK       I    between atoms: N_9  and  C_10 
REMARK       I    between atoms: C_10  and  N_12 
REMARK    3  A    between atoms: N_12  and  C_13 
ROOT
HETATM    1  N   UNL     1     -41.458 -50.402  11.297  1.00  0.00    -0.338 N 
HETATM    2  C   UNL     1     -42.188 -51.092  12.242  1.00  0.00     0.321 C 
HETATM    3  O   UNL     1     -42.607 -50.536  13.256  1.00  0.00    -0.247 OA
HETATM    4  N   UNL     1     -42.358 -52.424  11.946  1.00  0.00    -0.306 N 
HETATM    5  H   UNL     1     -41.462 -50.756  10.355  1.00  0.00     0.164 HD
HETATM    6  H   UNL     1     -41.753 -52.823  11.241  1.00  0.00     0.171 HD
ENDROOT
BRANCH   1   7
HETATM    7  C   UNL     1     -41.245 -48.971  11.511  1.00  0.00     0.087 C 
HETATM    8  C   UNL     1     -41.754 -48.137  10.327  1.00  0.00     0.025 C 
HETATM    9  C   UNL     1     -41.589 -46.640  10.590  1.00  0.00     0.003 C 
HETATM   10  C   UNL     1     -40.167 -46.265  11.016  1.00  0.00     0.015 C 
HETATM   11  C   UNL     1     -39.584 -47.144  12.133  1.00  0.00     0.049 C 
HETATM   12  C   UNL     1     -39.780 -48.638  11.806  1.00  0.00     0.040 C 
BRANCH  11  13
HETATM   13  S   UNL     1     -40.314 -46.776  13.787  1.00  0.00    -0.169 SA
HETATM   14  C   UNL     1     -39.427 -47.966  14.820  1.00  0.00     0.090 C 
ENDBRANCH  11  13
ENDBRANCH   1   7
BRANCH   4  15
HETATM   15  C   UNL     1     -43.080 -53.342  12.756  1.00  0.00     0.077 A 
HETATM   16  C   UNL     1     -44.451 -53.566  12.620  1.00  0.00     0.050 A 
HETATM   17  C   UNL     1     -45.083 -54.445  13.488  1.00  0.00     0.090 A 
HETATM   18  N   UNL     1     -44.445 -55.128  14.461  1.00  0.00    -0.372 N 
HETATM   19  C   UNL     1     -43.112 -54.915  14.563  1.00  0.00     0.132 A 
ATOM     20  HN  UNL     1     -44.939 -55.768  15.083  1.00  0.00     0.164 HD
HETATM   21  C   UNL     1     -42.401 -54.049  13.742  1.00  0.00     0.158 A 
HETATM   22  F   UNL     1     -41.081 -53.889  13.918  1.00  0.00    -0.202 F 
ENDBRANCH   4  15
TORSDOF 3
ENDMDL
MODEL 6
REMARK VINA RESULT:      -5.5      4.393      6.242
REMARK  3 active torsions:
REMARK  status: ('A' for Active; 'I' for Inactive)
REMARK    1  A    between atoms: S_2  and  C_3 
REMARK    2  A    between atoms: C_7  and  N_9 
REMARK       I    between atoms: N_9  and  C_10 
REMARK       I    between atoms: C_10  and  N_12 
REMARK    3  A    between atoms: N_12  and  C_13 
ROOT
HETATM    1  N   UNL     1     -43.356 -49.347  12.209  1.00  0.00    -0.338 N 
HETATM    2  C   UNL     1     -43.721 -50.414  13.004  1.00  0.00     0.321 C 
HETATM    3  O   UNL     1     -43.015 -50.782  13.941  1.00  0.00    -0.247 OA
HETATM    4  N   UNL     1     -44.900 -51.010  12.622  1.00  0.00    -0.306 N 
HETATM    5  H   UNL     1     -44.088 -48.852  11.728  1.00  0.00     0.164 HD
HETATM    6  H   UNL     1     -45.246 -50.801  11.696  1.00  0.00     0.171 HD
ENDROOT
BRANCH   1   7
HETATM    7  C   UNL     1     -42.128 -48.630  12.551  1.00  0.00     0.087 C 
HETATM    8  C   UNL     1     -42.424 -47.246  13.146  1.00  0.00     0.025 C 
HETATM    9  C   UNL     1     -41.137 -46.533  13.562  1.00  0.00     0.003 C 
HETATM   10  C   UNL     1     -40.094 -46.490  12.444  1.00  0.00     0.015 C 
HETATM   11  C   UNL     1     -39.843 -47.840  11.755  1.00  0.00     0.049 C 
HETATM   12  C   UNL     1     -41.176 -48.503  11.358  1.00  0.00     0.040 C 
BRANCH  11  13
HETATM   13  S   UNL     1     -38.862 -49.004  12.798  1.00  0.00    -0.169 SA
HETATM   14  C   UNL     1     -37.836 -49.802  11.541  1.00  0.00     0.090 C 
ENDBRANCH  11  13
ENDBRANCH   1   7
BRANCH   4  15
HETATM   15  C   UNL     1     -45.491 -52.118  13.287  1.00  0.00     0.077 A 
HETATM   16  C   UNL     1     -46.495 -51.987  14.248  1.00  0.00     0.050 A 
HETATM   17  C   UNL     1     -46.979 -53.123  14.881  1.00  0.00     0.090 A 
HETATM   18  N   UNL     1     -46.553 -54.373  14.609  1.00  0.00    -0.372 N 
HETATM   19  C   UNL     1     -45.595 -54.484  13.658  1.00  0.00     0.132 A 
ATOM     20  HN  UNL     1     -46.930 -55.188  15.093  1.00  0.00     0.164 HD
HETATM   21  C   UNL     1     -45.049 -53.401  12.980  1.00  0.00     0.158 A 
HETATM   22  F   UNL     1     -44.095 -53.599  12.058  1.00  0.00    -0.202 F 
ENDBRANCH   4  15
TORSDOF 3
ENDMDL
MODEL 7
REMARK VINA RESULT:      -5.3      4.249      6.815
REMARK  3 active torsions:
REMARK  status: ('A' for Active; 'I' for Inactive)
REMARK    1  A    between atoms: S_2  and  C_3 
REMARK    2  A    between atoms: C_7  and  N_9 
REMARK       I    between atoms: N_9  and  C_10 
REMARK       I    between atoms: C_10  and  N_12 
REMARK    3  A    between atoms: N_12  and  C_13 
ROOT
HETATM    1  N   UNL     1     -43.815 -51.989  12.510  1.00  0.00    -0.338 N 
HETATM    2  C   UNL     1     -42.656 -51.351  12.898  1.00  0.00     0.321 C 
HETATM    3  O   UNL     1     -42.437 -51.088  14.079  1.00  0.00    -0.247 OA
HETATM    4  N   UNL     1     -41.825 -51.028  11.851  1.00  0.00    -0.306 N 
HETATM    5  H   UNL     1     -43.795 -52.509  11.648  1.00  0.00     0.164 HD
HETATM    6  H   UNL     1     -42.222 -51.046  10.922  1.00  0.00     0.171 HD
ENDROOT
BRANCH   1   7
HETATM    7  C   UNL     1     -44.753 -52.396  13.556  1.00  0.00     0.087 C 
HETATM    8  C   UNL     1     -45.124 -53.881  13.441  1.00  0.00     0.025 C 
HETATM    9  C   UNL     1     -46.050 -54.312  14.578  1.00  0.00     0.003 C 
HETATM   10  C   UNL     1     -47.272 -53.403  14.725  1.00  0.00     0.015 C 
HETATM   11  C   UNL     1     -46.950 -51.901  14.743  1.00  0.00     0.049 C 
HETATM   12  C   UNL     1     -46.017 -51.532  13.572  1.00  0.00     0.040 C 
BRANCH  11  13
HETATM   13  S   UNL     1     -46.190 -51.351  16.332  1.00  0.00    -0.169 SA
HETATM   14  C   UNL     1     -47.670 -50.974  17.301  1.00  0.00     0.090 C 
ENDBRANCH  11  13
ENDBRANCH   1   7
BRANCH   4  15
HETATM   15  C   UNL     1     -40.569 -50.378  11.993  1.00  0.00     0.077 A 
HETATM   16  C   UNL     1     -40.358 -49.040  11.654  1.00  0.00     0.050 A 
HETATM   17  C   UNL     1     -39.086 -48.502  11.781  1.00  0.00     0.090 A 
HETATM   18  N   UNL     1     -38.021 -49.191  12.239  1.00  0.00    -0.372 N 
HETATM   19  C   UNL     1     -38.249 -50.481  12.584  1.00  0.00     0.132 A 
ATOM     20  HN  UNL     1     -37.098 -48.765  12.321  1.00  0.00     0.164 HD
HETATM   21  C   UNL     1     -39.487 -51.101  12.484  1.00  0.00     0.158 A 
HETATM   22  F   UNL     1     -39.624 -52.387  12.839  1.00  0.00    -0.202 F 
ENDBRANCH   4  15
TORSDOF 3
ENDMDL
MODEL 8
REMARK VINA RESULT:      -5.1      4.088      6.221
REMARK  3 active torsions:
REMARK  status: ('A' for Active; 'I' for Inactive)
REMARK    1  A    between atoms: S_2  and  C_3 
REMARK    2  A    between atoms: C_7  and  N_9 
REMARK       I    between atoms: N_9  and  C_10 
REMARK       I    between atoms: C_10  and  N_12 
REMARK    3  A    between atoms: N_12  and  C_13 
ROOT
HETATM    1  N   UNL     1     -42.321 -50.144  11.763  1.00  0.00    -0.338 N 
HETATM    2  C   UNL     1     -43.182 -50.530  12.769  1.00  0.00     0.321 C 
HETATM    3  O   UNL     1     -43.450 -49.778  13.703  1.00  0.00    -0.247 OA
HETATM    4  N   UNL     1     -43.659 -51.812  12.625  1.00  0.00    -0.306 N 
HETATM    5  H   UNL     1     -42.416 -50.595  10.868  1.00  0.00     0.164 HD
HETATM    6  H   UNL     1     -43.170 -52.419  11.983  1.00  0.00     0.171 HD
ENDROOT
BRANCH   1   7
HETATM    7  C   UNL     1     -41.779 -48.785  11.813  1.00  0.00     0.087 C 
HETATM    8  C   UNL     1     -42.111 -47.994  10.541  1.00  0.00     0.025 C 
HETATM    9  C   UNL     1     -41.599 -46.556  10.632  1.00  0.00     0.003 C 
HETATM   10  C   UNL     1     -40.120 -46.475  11.015  1.00  0.00     0.015 C 
HETATM   11  C   UNL     1     -39.728 -47.335  12.227  1.00  0.00     0.049 C 
HETATM   12  C   UNL     1     -40.270 -48.770  12.071  1.00  0.00     0.040 C 
BRANCH  11  13
HETATM   13  S   UNL     1     -40.313 -46.626  13.827  1.00  0.00    -0.169 SA
HETATM   14  C   UNL     1     -38.954 -45.498  14.213  1.00  0.00     0.090 C 
ENDBRANCH  11  13
ENDBRANCH   1   7
BRANCH   4  15
HETATM   15  C   UNL     1     -44.567 -52.436  13.523  1.00  0.00     0.077 A 
HETATM   16  C   UNL     1     -44.175 -53.374  14.479  1.00  0.00     0.050 A 
HETATM   17  C   UNL     1     -45.138 -53.968  15.281  1.00  0.00     0.090 A 
HETATM   18  N   UNL     1     -46.454 -53.678  15.214  1.00  0.00    -0.372 N 
HETATM   19  C   UNL     1     -46.814 -52.749  14.296  1.00  0.00     0.132 A 
ATOM     20  HN  UNL     1     -47.138 -54.133  15.819  1.00  0.00     0.164 HD
HETATM   21  C   UNL     1     -45.918 -52.110  13.449  1.00  0.00     0.158 A 
HETATM   22  F   UNL     1     -46.360 -51.208  12.561  1.00  0.00    -0.202 F 
ENDBRANCH   4  15
TORSDOF 3
ENDMDL
MODEL 9
REMARK VINA RESULT:      -5.0      3.464      5.557
REMARK  3 active torsions:
REMARK  status: ('A' for Active; 'I' for Inactive)
REMARK    1  A    between atoms: S_2  and  C_3 
REMARK    2  A    between atoms: C_7  and  N_9 
REMARK       I    between atoms: N_9  and  C_10 
REMARK       I    between atoms: C_10  and  N_12 
REMARK    3  A    between atoms: N_12  and  C_13 
ROOT
HETATM    1  N   UNL     1     -44.146 -50.101  14.572  1.00  0.00    -0.338 N 
HETATM    2  C   UNL     1     -43.317 -49.803  13.510  1.00  0.00     0.321 C 
HETATM    3  O   UNL     1     -43.025 -50.652  12.670  1.00  0.00    -0.247 OA
HETATM    4  N   UNL     1     -42.851 -48.509  13.520  1.00  0.00    -0.306 N 
HETATM    5  H   UNL     1     -44.650 -49.342  14.998  1.00  0.00     0.164 HD
HETATM    6  H   UNL     1     -42.934 -47.993  14.384  1.00  0.00     0.171 HD
ENDROOT
BRANCH   1   7
HETATM    7  C   UNL     1     -44.714 -51.448  14.636  1.00  0.00     0.087 C 
HETATM    8  C   UNL     1     -46.231 -51.415  14.867  1.00  0.00     0.025 C 
HETATM    9  C   UNL     1     -46.824 -52.824  14.865  1.00  0.00     0.003 C 
HETATM   10  C   UNL     1     -46.097 -53.775  15.817  1.00  0.00     0.015 C 
HETATM   11  C   UNL     1     -44.566 -53.763  15.685  1.00  0.00     0.049 C 
HETATM   12  C   UNL     1     -44.033 -52.317  15.697  1.00  0.00     0.040 C 
BRANCH  11  13
HETATM   13  S   UNL     1     -43.973 -54.625  14.165  1.00  0.00    -0.169 SA
HETATM   14  C   UNL     1     -42.211 -54.223  14.215  1.00  0.00     0.090 C 
ENDBRANCH  11  13
ENDBRANCH   1   7
BRANCH   4  15
HETATM   15  C   UNL     1     -41.993 -47.958  12.530  1.00  0.00     0.077 A 
HETATM   16  C   UNL     1     -40.601 -47.956  12.640  1.00  0.00     0.050 A 
HETATM   17  C   UNL     1     -39.844 -47.351  11.647  1.00  0.00     0.090 A 
HETATM   18  N   UNL     1     -40.371 -46.772  10.549  1.00  0.00    -0.372 N 
HETATM   19  C   UNL     1     -41.721 -46.802  10.448  1.00  0.00     0.132 A 
ATOM     20  HN  UNL     1     -39.786 -46.335   9.836  1.00  0.00     0.164 HD
HETATM   21  C   UNL     1     -42.555 -47.380  11.397  1.00  0.00     0.158 A 
HETATM   22  F   UNL     1     -43.885 -47.358  11.224  1.00  0.00    -0.202 F 
ENDBRANCH   4  15
TORSDOF 3
ENDMDL
