MODEL 1
REMARK VINA RESULT:      -6.3      0.000      0.000
REMARK  4 active torsions:
REMARK  status: ('A' for Active; 'I' for Inactive)
REMARK    1  A    between atoms: C_4  and  C_5 
REMARK    2  A    between atoms: C_5  and  C_6 
REMARK    3  A    between atoms: C_6  and  N_7 
REMARK       I    between atoms: N_7  and  C_8 
REMARK       I    between atoms: C_8  and  N_10 
REMARK    4  A    between atoms: N_10  and  C_11 
ROOT
HETATM    1  N   UNL     1     -42.089 -49.918  11.546  1.00  0.00    -0.343 N 
HETATM    2  C   UNL     1     -42.664 -50.550  12.623  1.00  0.00     0.316 C 
HETATM    3  O   UNL     1     -42.850 -49.999  13.703  1.00  0.00    -0.247 OA
HETATM    4  N   UNL     1     -42.999 -51.850  12.379  1.00  0.00    -0.338 N 
HETATM    5  H   UNL     1     -42.367 -50.255  10.634  1.00  0.00     0.164 HD
HETATM    6  H   UNL     1     -42.695 -52.267  11.508  1.00  0.00     0.164 HD
ENDROOT
BRANCH   1   7
HETATM    7  C   UNL     1     -41.856 -48.489  11.685  1.00  0.00     0.129 C 
BRANCH   7   8
HETATM    8  C   UNL     1     -41.791 -47.721  10.372  1.00  0.00     0.061 C 
BRANCH   8   9
HETATM    9  C   UNL     1     -43.094 -47.660   9.649  1.00  0.00    -0.023 A 
HETATM   10  C   UNL     1     -44.357 -47.432  10.160  1.00  0.00     0.118 A 
HETATM   11  N   UNL     1     -45.212 -47.463   9.100  1.00  0.00    -0.308 N 
HETATM   12  C   UNL     1     -46.641 -47.266   9.125  1.00  0.00     0.177 C 
HETATM   13  N   UNL     1     -44.597 -47.695   7.927  1.00  0.00    -0.310 N 
HETATM   14  C   UNL     1     -43.310 -47.796   8.260  1.00  0.00     0.115 A 
ATOM     15  HN  UNL     1     -45.016 -47.775   7.001  1.00  0.00     0.186 HD
ENDBRANCH   8   9
ENDBRANCH   7   8
ENDBRANCH   1   7
BRANCH   4  16
HETATM   16  C   UNL     1     -43.560 -52.713  13.412  1.00  0.00     0.101 C 
HETATM   17  C   UNL     1     -42.599 -53.826  13.865  1.00  0.00     0.041 C 
HETATM   18  C   UNL     1     -43.388 -54.864  14.663  1.00  0.00     0.142 C 
HETATM   19  S   UNL     1     -45.114 -54.576  14.324  1.00  0.00     0.146 S 
HETATM   20  O   UNL     1     -45.713 -55.780  13.792  1.00  0.00    -0.228 OA
HETATM   21  O   UNL     1     -45.683 -53.868  15.454  1.00  0.00    -0.228 OA
HETATM   22  C   UNL     1     -44.866 -53.404  13.016  1.00  0.00     0.165 C 
ENDBRANCH   4  16
TORSDOF 4
ENDMDL
MODEL 2
REMARK VINA RESULT:      -6.2      4.132      4.656
REMARK  4 active torsions:
REMARK  status: ('A' for Active; 'I' for Inactive)
REMARK    1  A    between atoms: C_4  and  C_5 
REMARK    2  A    between atoms: C_5  and  C_6 
REMARK    3  A    between atoms: C_6  and  N_7 
REMARK       I    between atoms: N_7  and  C_8 
REMARK       I    between atoms: C_8  and  N_10 
REMARK    4  A    between atoms: N_10  and  C_11 
ROOT
HETATM    1  N   UNL     1     -41.169 -47.214  10.332  1.00  0.00    -0.343 N 
HETATM    2  C   UNL     1     -40.605 -47.810  11.436  1.00  0.00     0.316 C 
HETATM    3  O   UNL     1     -40.804 -47.423  12.582  1.00  0.00    -0.247 OA
HETATM    4  N   UNL     1     -39.795 -48.866  11.132  1.00  0.00    -0.338 N 
HETATM    5  H   UNL     1     -41.320 -47.815   9.533  1.00  0.00     0.164 HD
HETATM    6  H   UNL     1     -39.579 -49.039  10.158  1.00  0.00     0.164 HD
ENDROOT
BRANCH   1   7
HETATM    7  C   UNL     1     -42.167 -46.189  10.593  1.00  0.00     0.129 C 
BRANCH   7   8
HETATM    8  C   UNL     1     -42.955 -45.738   9.370  1.00  0.00     0.061 C 
BRANCH   8   9
HETATM    9  C   UNL     1     -43.835 -46.798   8.800  1.00  0.00    -0.023 A 
HETATM   10  C   UNL     1     -45.106 -47.173   9.195  1.00  0.00     0.118 A 
HETATM   11  N   UNL     1     -45.488 -48.177   8.358  1.00  0.00    -0.308 N 
HETATM   12  C   UNL     1     -46.743 -48.888   8.364  1.00  0.00     0.177 C 
HETATM   13  N   UNL     1     -44.556 -48.488   7.440  1.00  0.00    -0.310 N 
HETATM   14  C   UNL     1     -43.561 -47.638   7.699  1.00  0.00     0.115 A 
ATOM     15  HN  UNL     1     -44.599 -49.206   6.716  1.00  0.00     0.186 HD
ENDBRANCH   8   9
ENDBRANCH   7   8
ENDBRANCH   1   7
BRANCH   4  16
HETATM   16  C   UNL     1     -39.050 -49.590  12.155  1.00  0.00     0.101 C 
HETATM   17  C   UNL     1     -37.687 -50.111  11.665  1.00  0.00     0.041 C 
HETATM   18  C   UNL     1     -37.161 -51.136  12.669  1.00  0.00     0.142 C 
HETATM   19  S   UNL     1     -38.538 -51.611  13.695  1.00  0.00     0.146 S 
HETATM   20  O   UNL     1     -38.727 -53.043  13.626  1.00  0.00    -0.228 OA
HETATM   21  O   UNL     1     -38.420 -50.911  14.960  1.00  0.00    -0.228 OA
HETATM   22  C   UNL     1     -39.790 -50.796  12.738  1.00  0.00     0.165 C 
ENDBRANCH   4  16
TORSDOF 4
ENDMDL
MODEL 3
REMARK VINA RESULT:      -5.9      3.827      7.775
REMARK  4 active torsions:
REMARK  status: ('A' for Active; 'I' for Inactive)
REMARK    1  A    between atoms: C_4  and  C_5 
REMARK    2  A    between atoms: C_5  and  C_6 
REMARK    3  A    between atoms: C_6  and  N_7 
REMARK       I    between atoms: N_7  and  C_8 
REMARK       I    between atoms: C_8  and  N_10 
REMARK    4  A    between atoms: N_10  and  C_11 
ROOT
HETATM    1  N   UNL     1     -40.899 -51.528  11.597  1.00  0.00    -0.343 N 
HETATM    2  C   UNL     1     -41.318 -50.247  11.866  1.00  0.00     0.316 C 
HETATM    3  O   UNL     1     -41.547 -49.840  12.999  1.00  0.00    -0.247 OA
HETATM    4  N   UNL     1     -41.466 -49.475  10.749  1.00  0.00    -0.338 N 
HETATM    5  H   UNL     1     -40.334 -51.645  10.766  1.00  0.00     0.164 HD
HETATM    6  H   UNL     1     -41.384 -49.921   9.845  1.00  0.00     0.164 HD
ENDROOT
BRANCH   1   7
HETATM    7  C   UNL     1     -40.568 -52.353  12.748  1.00  0.00     0.129 C 
BRANCH   7   8
HETATM    8  C   UNL     1     -41.002 -53.808  12.638  1.00  0.00     0.061 C 
BRANCH   8   9
HETATM    9  C   UNL     1     -42.241 -54.124  13.407  1.00  0.00    -0.023 A 
HETATM   10  C   UNL     1     -43.559 -53.990  13.015  1.00  0.00     0.118 A 
HETATM   11  N   UNL     1     -44.317 -54.418  14.063  1.00  0.00    -0.308 N 
HETATM   12  C   UNL     1     -45.756 -54.481  14.131  1.00  0.00     0.177 C 
HETATM   13  N   UNL     1     -43.586 -54.825  15.116  1.00  0.00    -0.310 N 
HETATM   14  C   UNL     1     -42.327 -54.662  14.709  1.00  0.00     0.115 A 
ATOM     15  HN  UNL     1     -43.918 -55.175  16.015  1.00  0.00     0.186 HD
ENDBRANCH   8   9
ENDBRANCH   7   8
ENDBRANCH   1   7
BRANCH   4  16
HETATM   16  C   UNL     1     -41.965 -48.107  10.815  1.00  0.00     0.101 C 
HETATM   17  C   UNL     1     -42.797 -47.702   9.584  1.00  0.00     0.041 C 
HETATM   18  C   UNL     1     -42.964 -46.182   9.581  1.00  0.00     0.142 C 
HETATM   19  S   UNL     1     -41.756 -45.525  10.714  1.00  0.00     0.146 S 
HETATM   20  O   UNL     1     -40.906 -44.579  10.025  1.00  0.00    -0.228 OA
HETATM   21  O   UNL     1     -42.433 -45.192  11.951  1.00  0.00    -0.228 OA
HETATM   22  C   UNL     1     -40.875 -47.044  10.968  1.00  0.00     0.165 C 
ENDBRANCH   4  16
TORSDOF 4
ENDMDL
MODEL 4
REMARK VINA RESULT:      -5.8      3.341      5.312
REMARK  4 active torsions:
REMARK  status: ('A' for Active; 'I' for Inactive)
REMARK    1  A    between atoms: C_4  and  C_5 
REMARK    2  A    between atoms: C_5  and  C_6 
REMARK    3  A    between atoms: C_6  and  N_7 
REMARK       I    between atoms: N_7  and  C_8 
REMARK       I    between atoms: C_8  and  N_10 
REMARK    4  A    between atoms: N_10  and  C_11 
ROOT
HETATM    1  N   UNL     1     -40.810 -51.009  11.129  1.00  0.00    -0.343 N 
HETATM    2  C   UNL     1     -41.550 -51.374  12.228  1.00  0.00     0.316 C 
HETATM    3  O   UNL     1     -41.484 -50.793  13.305  1.00  0.00    -0.247 OA
HETATM    4  N   UNL     1     -42.357 -52.453  12.008  1.00  0.00    -0.338 N 
HETATM    5  H   UNL     1     -41.220 -51.217  10.228  1.00  0.00     0.164 HD
HETATM    6  H   UNL     1     -42.257 -52.956  11.136  1.00  0.00     0.164 HD
ENDROOT
BRANCH   1   7
HETATM    7  C   UNL     1     -40.052 -49.772  11.245  1.00  0.00     0.129 C 
BRANCH   7   8
HETATM    8  C   UNL     1     -38.548 -49.955  11.391  1.00  0.00     0.061 C 
BRANCH   8   9
HETATM    9  C   UNL     1     -38.055 -49.775  12.787  1.00  0.00    -0.023 A 
HETATM   10  C   UNL     1     -37.877 -48.603  13.497  1.00  0.00     0.118 A 
HETATM   11  N   UNL     1     -37.418 -48.966  14.728  1.00  0.00    -0.308 N 
HETATM   12  C   UNL     1     -37.095 -48.093  15.830  1.00  0.00     0.177 C 
HETATM   13  N   UNL     1     -37.284 -50.295  14.875  1.00  0.00    -0.310 N 
HETATM   14  C   UNL     1     -37.688 -50.785  13.703  1.00  0.00     0.115 A 
ATOM     15  HN  UNL     1     -36.951 -50.808  15.691  1.00  0.00     0.186 HD
ENDBRANCH   8   9
ENDBRANCH   7   8
ENDBRANCH   1   7
BRANCH   4  16
HETATM   16  C   UNL     1     -43.172 -53.039  13.066  1.00  0.00     0.101 C 
HETATM   17  C   UNL     1     -42.439 -54.129  13.869  1.00  0.00     0.041 C 
HETATM   18  C   UNL     1     -43.464 -54.910  14.690  1.00  0.00     0.142 C 
HETATM   19  S   UNL     1     -45.068 -54.531  14.013  1.00  0.00     0.146 S 
HETATM   20  O   UNL     1     -45.728 -55.753  13.608  1.00  0.00    -0.228 OA
HETATM   21  O   UNL     1     -45.708 -53.564  14.883  1.00  0.00    -0.228 OA
HETATM   22  C   UNL     1     -44.480 -53.667  12.580  1.00  0.00     0.165 C 
ENDBRANCH   4  16
TORSDOF 4
ENDMDL
MODEL 5
REMARK VINA RESULT:      -5.5      2.742      3.369
REMARK  4 active torsions:
REMARK  status: ('A' for Active; 'I' for Inactive)
REMARK    1  A    between atoms: C_4  and  C_5 
REMARK    2  A    between atoms: C_5  and  C_6 
REMARK    3  A    between atoms: C_6  and  N_7 
REMARK       I    between atoms: N_7  and  C_8 
REMARK       I    between atoms: C_8  and  N_10 
REMARK    4  A    between atoms: N_10  and  C_11 
ROOT
HETATM    1  N   UNL     1     -40.913 -50.999  11.040  1.00  0.00    -0.343 N 
HETATM    2  C   UNL     1     -41.668 -51.344  12.137  1.00  0.00     0.316 C 
HETATM    3  O   UNL     1     -41.703 -50.675  13.164  1.00  0.00    -0.247 OA
HETATM    4  N   UNL     1     -42.365 -52.507  11.977  1.00  0.00    -0.338 N 
HETATM    5  H   UNL     1     -41.263 -51.315  10.145  1.00  0.00     0.164 HD
HETATM    6  H   UNL     1     -42.180 -53.065  11.153  1.00  0.00     0.164 HD
ENDROOT
BRANCH   1   7
HETATM    7  C   UNL     1     -40.275 -49.693  11.082  1.00  0.00     0.129 C 
BRANCH   7   8
HETATM    8  C   UNL     1     -41.176 -48.528  10.698  1.00  0.00     0.061 C 
BRANCH   8   9
HETATM    9  C   UNL     1     -40.829 -47.250  11.385  1.00  0.00    -0.023 A 
HETATM   10  C   UNL     1     -40.579 -46.009  10.829  1.00  0.00     0.118 A 
HETATM   11  N   UNL     1     -40.318 -45.168  11.868  1.00  0.00    -0.308 N 
HETATM   12  C   UNL     1     -40.011 -43.761  11.795  1.00  0.00     0.177 C 
HETATM   13  N   UNL     1     -40.381 -45.770  13.068  1.00  0.00    -0.310 N 
HETATM   14  C   UNL     1     -40.708 -47.029  12.774  1.00  0.00     0.115 A 
ATOM     15  HN  UNL     1     -40.216 -45.361  13.988  1.00  0.00     0.186 HD
ENDBRANCH   8   9
ENDBRANCH   7   8
ENDBRANCH   1   7
BRANCH   4  16
HETATM   16  C   UNL     1     -43.172 -53.080  13.047  1.00  0.00     0.101 C 
HETATM   17  C   UNL     1     -42.434 -54.164  13.853  1.00  0.00     0.041 C 
HETATM   18  C   UNL     1     -43.454 -54.934  14.692  1.00  0.00     0.142 C 
HETATM   19  S   UNL     1     -45.064 -54.556  14.026  1.00  0.00     0.146 S 
HETATM   20  O   UNL     1     -45.731 -55.780  13.639  1.00  0.00    -0.228 OA
HETATM   21  O   UNL     1     -45.692 -53.579  14.893  1.00  0.00    -0.228 OA
HETATM   22  C   UNL     1     -44.486 -53.708  12.579  1.00  0.00     0.165 C 
ENDBRANCH   4  16
TORSDOF 4
ENDMDL
MODEL 6
REMARK VINA RESULT:      -5.5      1.948      2.476
REMARK  4 active torsions:
REMARK  status: ('A' for Active; 'I' for Inactive)
REMARK    1  A    between atoms: C_4  and  C_5 
REMARK    2  A    between atoms: C_5  and  C_6 
REMARK    3  A    between atoms: C_6  and  N_7 
REMARK       I    between atoms: N_7  and  C_8 
REMARK       I    between atoms: C_8  and  N_10 
REMARK    4  A    between atoms: N_10  and  C_11 
ROOT
HETATM    1  N   UNL     1     -43.158 -48.723  14.532  1.00  0.00    -0.343 N 
HETATM    2  C   UNL     1     -43.514 -49.938  13.994  1.00  0.00     0.316 C 
HETATM    3  O   UNL     1     -43.214 -50.280  12.855  1.00  0.00    -0.247 OA
HETATM    4  N   UNL     1     -44.242 -50.719  14.843  1.00  0.00    -0.338 N 
HETATM    5  H   UNL     1     -43.047 -48.700  15.537  1.00  0.00     0.164 HD
HETATM    6  H   UNL     1     -44.559 -50.313  15.714  1.00  0.00     0.164 HD
ENDROOT
BRANCH   1   7
HETATM    7  C   UNL     1     -42.248 -47.909  13.742  1.00  0.00     0.129 C 
BRANCH   7   8
HETATM    8  C   UNL     1     -42.924 -46.960  12.763  1.00  0.00     0.061 C 
BRANCH   8   9
HETATM    9  C   UNL     1     -42.785 -47.372  11.336  1.00  0.00    -0.023 A 
HETATM   10  C   UNL     1     -43.664 -47.172  10.288  1.00  0.00     0.118 A 
HETATM   11  N   UNL     1     -43.080 -47.722   9.187  1.00  0.00    -0.308 N 
HETATM   12  C   UNL     1     -43.608 -47.755   7.845  1.00  0.00     0.177 C 
HETATM   13  N   UNL     1     -41.878 -48.268   9.439  1.00  0.00    -0.310 N 
HETATM   14  C   UNL     1     -41.693 -48.038  10.740  1.00  0.00     0.115 A 
ATOM     15  HN  UNL     1     -41.254 -48.746   8.789  1.00  0.00     0.186 HD
ENDBRANCH   8   9
ENDBRANCH   7   8
ENDBRANCH   1   7
BRANCH   4  16
HETATM   16  C   UNL     1     -44.772 -52.016  14.439  1.00  0.00     0.101 C 
HETATM   17  C   UNL     1     -45.906 -52.522  15.350  1.00  0.00     0.041 C 
HETATM   18  C   UNL     1     -46.140 -54.006  15.068  1.00  0.00     0.142 C 
HETATM   19  S   UNL     1     -44.716 -54.593  14.170  1.00  0.00     0.146 S 
HETATM   20  O   UNL     1     -44.113 -55.698  14.882  1.00  0.00    -0.228 OA
HETATM   21  O   UNL     1     -45.074 -54.686  12.768  1.00  0.00    -0.228 OA
HETATM   22  C   UNL     1     -43.730 -53.135  14.385  1.00  0.00     0.165 C 
ENDBRANCH   4  16
TORSDOF 4
ENDMDL
MODEL 7
REMARK VINA RESULT:      -5.4      4.418      6.847
REMARK  4 active torsions:
REMARK  status: ('A' for Active; 'I' for Inactive)
REMARK    1  A    between atoms: C_4  and  C_5 
REMARK    2  A    between atoms: C_5  and  C_6 
REMARK    3  A    between atoms: C_6  and  N_7 
REMARK       I    between atoms: N_7  and  C_8 
REMARK       I    between atoms: C_8  and  N_10 
REMARK    4  A    between atoms: N_10  and  C_11 
ROOT
HETATM    1  N   UNL     1     -44.837 -52.523  12.137  1.00  0.00    -0.343 N 
HETATM    2  C   UNL     1     -43.620 -52.755  12.734  1.00  0.00     0.316 C 
HETATM    3  O   UNL     1     -43.500 -53.055  13.917  1.00  0.00    -0.247 OA
HETATM    4  N   UNL     1     -42.560 -52.610  11.887  1.00  0.00    -0.338 N 
HETATM    5  H   UNL     1     -44.889 -52.721  11.147  1.00  0.00     0.164 HD
HETATM    6  H   UNL     1     -42.733 -52.235  10.964  1.00  0.00     0.164 HD
ENDROOT
BRANCH   1   7
HETATM    7  C   UNL     1     -46.015 -52.816  12.939  1.00  0.00     0.129 C 
BRANCH   7   8
HETATM    8  C   UNL     1     -46.539 -51.645  13.757  1.00  0.00     0.061 C 
BRANCH   8   9
HETATM    9  C   UNL     1     -46.687 -51.948  15.210  1.00  0.00    -0.023 A 
HETATM   10  C   UNL     1     -46.106 -52.964  15.946  1.00  0.00     0.118 A 
HETATM   11  N   UNL     1     -46.543 -52.809  17.227  1.00  0.00    -0.308 N 
HETATM   12  C   UNL     1     -46.203 -53.622  18.368  1.00  0.00     0.177 C 
HETATM   13  N   UNL     1     -47.370 -51.761  17.383  1.00  0.00    -0.310 N 
HETATM   14  C   UNL     1     -47.442 -51.229  16.163  1.00  0.00     0.115 A 
ATOM     15  HN  UNL     1     -47.834 -51.446  18.236  1.00  0.00     0.186 HD
ENDBRANCH   8   9
ENDBRANCH   7   8
ENDBRANCH   1   7
BRANCH   4  16
HETATM   16  C   UNL     1     -41.181 -52.748  12.342  1.00  0.00     0.101 C 
HETATM   17  C   UNL     1     -40.886 -54.113  12.989  1.00  0.00     0.041 C 
HETATM   18  C   UNL     1     -39.555 -54.026  13.736  1.00  0.00     0.142 C 
HETATM   19  S   UNL     1     -39.174 -52.295  13.918  1.00  0.00     0.146 S 
HETATM   20  O   UNL     1     -39.006 -51.977  15.319  1.00  0.00    -0.228 OA
HETATM   21  O   UNL     1     -38.177 -51.946  12.925  1.00  0.00    -0.228 OA
HETATM   22  C   UNL     1     -40.741 -51.686  13.352  1.00  0.00     0.165 C 
ENDBRANCH   4  16
TORSDOF 4
ENDMDL
MODEL 8
REMARK VINA RESULT:      -5.4      4.224      8.540
REMARK  4 active torsions:
REMARK  status: ('A' for Active; 'I' for Inactive)
REMARK    1  A    between atoms: C_4  and  C_5 
REMARK    2  A    between atoms: C_5  and  C_6 
REMARK    3  A    between atoms: C_6  and  N_7 
REMARK       I    between atoms: N_7  and  C_8 
REMARK       I    between atoms: C_8  and  N_10 
REMARK    4  A    between atoms: N_10  and  C_11 
ROOT
HETATM    1  N   UNL     1     -41.915 -51.540  11.952  1.00  0.00    -0.343 N 
HETATM    2  C   UNL     1     -41.406 -50.273  11.789  1.00  0.00     0.316 C 
HETATM    3  O   UNL     1     -40.217 -50.007  11.925  1.00  0.00    -0.247 OA
HETATM    4  N   UNL     1     -42.351 -49.340  11.475  1.00  0.00    -0.338 N 
HETATM    5  H   UNL     1     -42.747 -51.754  11.418  1.00  0.00     0.164 HD
HETATM    6  H   UNL     1     -43.324 -49.615  11.511  1.00  0.00     0.164 HD
ENDROOT
BRANCH   1   7
HETATM    7  C   UNL     1     -40.944 -52.608  12.128  1.00  0.00     0.129 C 
BRANCH   7   8
HETATM    8  C   UNL     1     -41.449 -53.809  12.916  1.00  0.00     0.061 C 
BRANCH   8   9
HETATM    9  C   UNL     1     -40.532 -54.235  14.012  1.00  0.00    -0.023 A 
HETATM   10  C   UNL     1     -40.780 -54.304  15.370  1.00  0.00     0.118 A 
HETATM   11  N   UNL     1     -39.634 -54.759  15.948  1.00  0.00    -0.308 N 
HETATM   12  C   UNL     1     -39.402 -55.008  17.349  1.00  0.00     0.177 C 
HETATM   13  N   UNL     1     -38.650 -54.995  15.062  1.00  0.00    -0.310 N 
HETATM   14  C   UNL     1     -39.203 -54.693  13.887  1.00  0.00     0.115 A 
ATOM     15  HN  UNL     1     -37.703 -55.326  15.247  1.00  0.00     0.186 HD
ENDBRANCH   8   9
ENDBRANCH   7   8
ENDBRANCH   1   7
BRANCH   4  16
HETATM   16  C   UNL     1     -42.025 -47.927  11.328  1.00  0.00     0.101 C 
HETATM   17  C   UNL     1     -42.568 -47.052  12.472  1.00  0.00     0.041 C 
HETATM   18  C   UNL     1     -42.489 -45.585  12.052  1.00  0.00     0.142 C 
HETATM   19  S   UNL     1     -42.249 -45.564  10.286  1.00  0.00     0.146 S 
HETATM   20  O   UNL     1     -43.306 -44.801   9.660  1.00  0.00    -0.228 OA
HETATM   21  O   UNL     1     -40.848 -45.295  10.026  1.00  0.00    -0.228 OA
HETATM   22  C   UNL     1     -42.527 -47.296  10.027  1.00  0.00     0.165 C 
ENDBRANCH   4  16
TORSDOF 4
ENDMDL
MODEL 9
REMARK VINA RESULT:      -5.3      3.792      7.757
REMARK  4 active torsions:
REMARK  status: ('A' for Active; 'I' for Inactive)
REMARK    1  A    between atoms: C_4  and  C_5 
REMARK    2  A    between atoms: C_5  and  C_6 
REMARK    3  A    between atoms: C_6  and  N_7 
REMARK       I    between atoms: N_7  and  C_8 
REMARK       I    between atoms: C_8  and  N_10 
REMARK    4  A    between atoms: N_10  and  C_11 
ROOT
HETATM    1  N   UNL     1     -42.696 -51.896  12.502  1.00  0.00    -0.343 N 
HETATM    2  C   UNL     1     -42.026 -50.695  12.470  1.00  0.00     0.316 C 
HETATM    3  O   UNL     1     -40.982 -50.493  13.081  1.00  0.00    -0.247 OA
HETATM    4  N   UNL     1     -42.641 -49.747  11.704  1.00  0.00    -0.338 N 
HETATM    5  H   UNL     1     -43.245 -52.119  11.682  1.00  0.00     0.164 HD
HETATM    6  H   UNL     1     -43.564 -49.950  11.341  1.00  0.00     0.164 HD
ENDROOT
BRANCH   1   7
HETATM    7  C   UNL     1     -42.014 -52.996  13.166  1.00  0.00     0.129 C 
BRANCH   7   8
HETATM    8  C   UNL     1     -42.788 -54.307  13.189  1.00  0.00     0.061 C 
BRANCH   8   9
HETATM    9  C   UNL     1     -43.985 -54.281  14.079  1.00  0.00    -0.023 A 
HETATM   10  C   UNL     1     -44.087 -53.823  15.379  1.00  0.00     0.118 A 
HETATM   11  N   UNL     1     -45.385 -54.005  15.750  1.00  0.00    -0.308 N 
HETATM   12  C   UNL     1     -45.984 -53.669  17.018  1.00  0.00     0.177 C 
HETATM   13  N   UNL     1     -46.142 -54.550  14.783  1.00  0.00    -0.310 N 
HETATM   14  C   UNL     1     -45.296 -54.700  13.764  1.00  0.00     0.115 A 
ATOM     15  HN  UNL     1     -47.133 -54.793  14.820  1.00  0.00     0.186 HD
ENDBRANCH   8   9
ENDBRANCH   7   8
ENDBRANCH   1   7
BRANCH   4  16
HETATM   16  C   UNL     1     -42.127 -48.387  11.595  1.00  0.00     0.101 C 
HETATM   17  C   UNL     1     -42.853 -47.385  12.510  1.00  0.00     0.041 C 
HETATM   18  C   UNL     1     -42.496 -45.966  12.069  1.00  0.00     0.142 C 
HETATM   19  S   UNL     1     -41.790 -46.093  10.437  1.00  0.00     0.146 S 
HETATM   20  O   UNL     1     -42.545 -45.275   9.514  1.00  0.00    -0.228 OA
HETATM   21  O   UNL     1     -40.350 -45.984  10.560  1.00  0.00    -0.228 OA
HETATM   22  C   UNL     1     -42.186 -47.803  10.182  1.00  0.00     0.165 C 
ENDBRANCH   4  16
TORSDOF 4
ENDMDL
