MODEL 1
REMARK VINA RESULT:      -6.6      0.000      0.000
REMARK  6 active torsions:
REMARK  status: ('A' for Active; 'I' for Inactive)
REMARK    1  A    between atoms: C_7  and  O_8 
REMARK    2  A    between atoms: O_8  and  C_9 
REMARK    3  A    between atoms: C_9  and  C_10 
REMARK    4  A    between atoms: C_10  and  O_11 
REMARK    5  A    between atoms: C_10  and  C_12 
REMARK    6  A    between atoms: C_12  and  N_13 
ROOT
HETATM    1  C   UNL     1     -40.865 -52.543  14.406  1.00  0.00     0.183 C 
ENDROOT
BRANCH   1   2
HETATM    2  C   UNL     1     -41.175 -53.872  13.708  1.00  0.00     0.162 C 
BRANCH   2   3
HETATM    3  C   UNL     1     -42.479 -53.842  12.900  1.00  0.00     0.209 C 
BRANCH   3   4
HETATM    4  O   UNL     1     -43.569 -54.068  13.801  1.00  0.00    -0.348 OA
BRANCH   4   5
HETATM    5  C   UNL     1     -44.624 -53.195  13.749  1.00  0.00     0.075 A 
HETATM    6  C   UNL     1     -44.933 -52.538  14.951  1.00  0.00    -0.029 A 
HETATM    7  C   UNL     1     -46.004 -51.633  14.986  1.00  0.00     0.010 A 
HETATM    8  C   UNL     1     -44.117 -52.774  16.192  1.00  0.00     0.051 C 
HETATM    9  C   UNL     1     -46.747 -51.366  13.835  1.00  0.00     0.007 A 
HETATM   10  C   UNL     1     -46.431 -51.998  12.632  1.00  0.00    -0.059 A 
HETATM   11  C   UNL     1     -47.193 -51.696  11.376  1.00  0.00     0.048 C 
HETATM   12  C   UNL     1     -45.377 -52.924  12.601  1.00  0.00     0.044 A 
ENDBRANCH   4   5
ENDBRANCH   3   4
ENDBRANCH   2   3
BRANCH   2  13
HETATM   13  O   UNL     1     -40.086 -54.186  12.818  1.00  0.00    -0.392 OA
HETATM   14  H   UNL     1     -39.265 -53.956  13.296  1.00  0.00     0.210 HD
ENDBRANCH   2  13
ENDBRANCH   1   2
BRANCH   1  15
HETATM   15  N   UNL     1     -39.805 -51.765  13.798  1.00  0.00    -0.284 N 
HETATM   16  N   UNL     1     -38.508 -52.062  14.071  1.00  0.00    -0.308 N 
HETATM   17  C   UNL     1     -37.809 -51.195  13.328  1.00  0.00     0.122 A 
ATOM     18  HN  UNL     1     -38.148 -52.782  14.698  1.00  0.00     0.186 HD
HETATM   19  C   UNL     1     -38.646 -50.362  12.580  1.00  0.00     0.032 A 
HETATM   20  C   UNL     1     -38.434 -49.307  11.639  1.00  0.00     0.122 A 
HETATM   21  C   UNL     1     -39.924 -50.746  12.899  1.00  0.00     0.133 A 
HETATM   22  N   UNL     1     -39.444 -48.698  11.089  1.00  0.00    -0.306 N 
HETATM   23  N   UNL     1     -40.751 -49.092  11.423  1.00  0.00    -0.261 N 
ATOM     24  HN  UNL     1     -39.289 -47.943  10.422  1.00  0.00     0.186 HD
HETATM   25  C   UNL     1     -41.828 -48.367  10.780  1.00  0.00     0.181 C 
HETATM   26  C   UNL     1     -41.081 -50.128  12.324  1.00  0.00     0.290 A 
HETATM   27  O   UNL     1     -42.235 -50.460  12.577  1.00  0.00    -0.264 OA
ENDBRANCH   1  15
TORSDOF 6
ENDMDL
MODEL 2
REMARK VINA RESULT:      -6.6      1.684      3.274
REMARK  6 active torsions:
REMARK  status: ('A' for Active; 'I' for Inactive)
REMARK    1  A    between atoms: C_7  and  O_8 
REMARK    2  A    between atoms: O_8  and  C_9 
REMARK    3  A    between atoms: C_9  and  C_10 
REMARK    4  A    between atoms: C_10  and  O_11 
REMARK    5  A    between atoms: C_10  and  C_12 
REMARK    6  A    between atoms: C_12  and  N_13 
ROOT
HETATM    1  C   UNL     1     -42.189 -52.324  13.711  1.00  0.00     0.183 C 
ENDROOT
BRANCH   1   2
HETATM    2  C   UNL     1     -42.723 -53.508  12.897  1.00  0.00     0.162 C 
BRANCH   2   3
HETATM    3  C   UNL     1     -43.735 -54.366  13.668  1.00  0.00     0.209 C 
BRANCH   3   4
HETATM    4  O   UNL     1     -45.045 -53.848  13.413  1.00  0.00    -0.348 OA
BRANCH   4   5
HETATM    5  C   UNL     1     -45.667 -53.173  14.432  1.00  0.00     0.075 A 
HETATM    6  C   UNL     1     -46.433 -52.060  14.048  1.00  0.00    -0.029 A 
HETATM    7  C   UNL     1     -47.097 -51.309  15.028  1.00  0.00     0.010 A 
HETATM    8  C   UNL     1     -46.569 -51.679  12.599  1.00  0.00     0.051 C 
HETATM    9  C   UNL     1     -47.020 -51.671  16.374  1.00  0.00     0.007 A 
HETATM   10  C   UNL     1     -46.280 -52.790  16.760  1.00  0.00    -0.059 A 
HETATM   11  C   UNL     1     -46.216 -53.217  18.196  1.00  0.00     0.048 C 
HETATM   12  C   UNL     1     -45.593 -53.526  15.784  1.00  0.00     0.044 A 
ENDBRANCH   4   5
ENDBRANCH   3   4
ENDBRANCH   2   3
BRANCH   2  13
HETATM   13  O   UNL     1     -43.359 -52.996  11.710  1.00  0.00    -0.392 OA
HETATM   14  H   UNL     1     -43.115 -53.602  10.983  1.00  0.00     0.210 HD
ENDBRANCH   2  13
ENDBRANCH   1   2
BRANCH   1  15
HETATM   15  N   UNL     1     -42.184 -51.055  13.014  1.00  0.00    -0.284 N 
HETATM   16  N   UNL     1     -43.330 -50.331  12.920  1.00  0.00    -0.308 N 
HETATM   17  C   UNL     1     -42.966 -49.222  12.265  1.00  0.00     0.122 A 
ATOM     18  HN  UNL     1     -44.257 -50.577  13.270  1.00  0.00     0.186 HD
HETATM   19  C   UNL     1     -41.603 -49.228  11.955  1.00  0.00     0.032 A 
HETATM   20  C   UNL     1     -40.718 -48.316  11.300  1.00  0.00     0.122 A 
HETATM   21  C   UNL     1     -41.122 -50.415  12.445  1.00  0.00     0.133 A 
HETATM   22  N   UNL     1     -39.458 -48.608  11.155  1.00  0.00    -0.306 N 
HETATM   23  N   UNL     1     -38.971 -49.828  11.654  1.00  0.00    -0.261 N 
ATOM     24  HN  UNL     1     -38.830 -47.957  10.684  1.00  0.00     0.186 HD
HETATM   25  C   UNL     1     -37.561 -50.091  11.451  1.00  0.00     0.181 C 
HETATM   26  C   UNL     1     -39.746 -50.795  12.330  1.00  0.00     0.290 A 
HETATM   27  O   UNL     1     -39.283 -51.843  12.772  1.00  0.00    -0.264 OA
ENDBRANCH   1  15
TORSDOF 6
ENDMDL
MODEL 3
REMARK VINA RESULT:      -6.4      2.836      4.676
REMARK  6 active torsions:
REMARK  status: ('A' for Active; 'I' for Inactive)
REMARK    1  A    between atoms: C_7  and  O_8 
REMARK    2  A    between atoms: O_8  and  C_9 
REMARK    3  A    between atoms: C_9  and  C_10 
REMARK    4  A    between atoms: C_10  and  O_11 
REMARK    5  A    between atoms: C_10  and  C_12 
REMARK    6  A    between atoms: C_12  and  N_13 
ROOT
HETATM    1  C   UNL     1     -41.264 -49.583  12.493  1.00  0.00     0.183 C 
ENDROOT
BRANCH   1   2
HETATM    2  C   UNL     1     -40.476 -50.677  11.762  1.00  0.00     0.162 C 
BRANCH   2   3
HETATM    3  C   UNL     1     -41.211 -52.023  11.715  1.00  0.00     0.209 C 
BRANCH   3   4
HETATM    4  O   UNL     1     -40.518 -52.940  12.571  1.00  0.00    -0.348 OA
BRANCH   4   5
HETATM    5  C   UNL     1     -41.269 -53.665  13.459  1.00  0.00     0.075 A 
HETATM    6  C   UNL     1     -40.581 -54.152  14.584  1.00  0.00    -0.029 A 
HETATM    7  C   UNL     1     -41.273 -54.909  15.540  1.00  0.00     0.010 A 
HETATM    8  C   UNL     1     -39.122 -53.850  14.787  1.00  0.00     0.051 C 
HETATM    9  C   UNL     1     -42.637 -55.164  15.393  1.00  0.00     0.007 A 
HETATM   10  C   UNL     1     -43.332 -54.664  14.291  1.00  0.00    -0.059 A 
HETATM   11  C   UNL     1     -44.805 -54.894  14.135  1.00  0.00     0.048 C 
HETATM   12  C   UNL     1     -42.636 -53.928  13.320  1.00  0.00     0.044 A 
ENDBRANCH   4   5
ENDBRANCH   3   4
ENDBRANCH   2   3
BRANCH   2  13
HETATM   13  O   UNL     1     -40.229 -50.237  10.413  1.00  0.00    -0.392 OA
HETATM   14  H   UNL     1     -40.978 -50.561   9.875  1.00  0.00     0.210 HD
ENDBRANCH   2  13
ENDBRANCH   1   2
BRANCH   1  15
HETATM   15  N   UNL     1     -41.641 -48.449  11.674  1.00  0.00    -0.284 N 
HETATM   16  N   UNL     1     -42.624 -48.584  10.745  1.00  0.00    -0.308 N 
HETATM   17  C   UNL     1     -42.741 -47.363  10.212  1.00  0.00     0.122 A 
ATOM     18  HN  UNL     1     -43.151 -49.425  10.509  1.00  0.00     0.186 HD
HETATM   19  C   UNL     1     -41.857 -46.454  10.799  1.00  0.00     0.032 A 
HETATM   20  C   UNL     1     -41.585 -45.061  10.626  1.00  0.00     0.122 A 
HETATM   21  C   UNL     1     -41.159 -47.175  11.735  1.00  0.00     0.133 A 
HETATM   22  N   UNL     1     -40.672 -44.472  11.342  1.00  0.00    -0.306 N 
HETATM   23  N   UNL     1     -39.957 -45.216  12.296  1.00  0.00    -0.261 N 
ATOM     24  HN  UNL     1     -40.478 -43.479  11.213  1.00  0.00     0.186 HD
HETATM   25  C   UNL     1     -38.950 -44.499  13.052  1.00  0.00     0.181 C 
HETATM   26  C   UNL     1     -40.150 -46.589  12.564  1.00  0.00     0.290 A 
HETATM   27  O   UNL     1     -39.521 -47.204  13.420  1.00  0.00    -0.264 OA
ENDBRANCH   1  15
TORSDOF 6
ENDMDL
MODEL 4
REMARK VINA RESULT:      -6.4      1.910      3.510
REMARK  6 active torsions:
REMARK  status: ('A' for Active; 'I' for Inactive)
REMARK    1  A    between atoms: C_7  and  O_8 
REMARK    2  A    between atoms: O_8  and  C_9 
REMARK    3  A    between atoms: C_9  and  C_10 
REMARK    4  A    between atoms: C_10  and  O_11 
REMARK    5  A    between atoms: C_10  and  C_12 
REMARK    6  A    between atoms: C_12  and  N_13 
ROOT
HETATM    1  C   UNL     1     -40.821 -52.943  12.528  1.00  0.00     0.183 C 
ENDROOT
BRANCH   1   2
HETATM    2  C   UNL     1     -42.279 -53.037  12.990  1.00  0.00     0.162 C 
BRANCH   2   3
HETATM    3  C   UNL     1     -42.636 -52.018  14.081  1.00  0.00     0.209 C 
BRANCH   3   4
HETATM    4  O   UNL     1     -43.853 -51.366  13.701  1.00  0.00    -0.348 OA
BRANCH   4   5
HETATM    5  C   UNL     1     -44.824 -51.234  14.659  1.00  0.00     0.075 A 
HETATM    6  C   UNL     1     -46.135 -51.525  14.244  1.00  0.00    -0.029 A 
HETATM    7  C   UNL     1     -47.189 -51.409  15.160  1.00  0.00     0.010 A 
HETATM    8  C   UNL     1     -46.415 -51.983  12.839  1.00  0.00     0.051 C 
HETATM    9  C   UNL     1     -46.946 -51.028  16.481  1.00  0.00     0.007 A 
HETATM   10  C   UNL     1     -45.644 -50.759  16.906  1.00  0.00    -0.059 A 
HETATM   11  C   UNL     1     -45.356 -50.386  18.330  1.00  0.00     0.048 C 
HETATM   12  C   UNL     1     -44.590 -50.849  15.984  1.00  0.00     0.044 A 
ENDBRANCH   4   5
ENDBRANCH   3   4
ENDBRANCH   2   3
BRANCH   2  13
HETATM   13  O   UNL     1     -43.134 -52.816  11.852  1.00  0.00    -0.392 OA
HETATM   14  H   UNL     1     -42.749 -52.064  11.360  1.00  0.00     0.210 HD
ENDBRANCH   2  13
ENDBRANCH   1   2
BRANCH   1  15
HETATM   15  N   UNL     1     -40.366 -51.606  12.204  1.00  0.00    -0.284 N 
HETATM   16  N   UNL     1     -40.898 -50.951  11.139  1.00  0.00    -0.308 N 
HETATM   17  C   UNL     1     -40.296 -49.756  11.155  1.00  0.00     0.122 A 
ATOM     18  HN  UNL     1     -41.596 -51.293  10.479  1.00  0.00     0.186 HD
HETATM   19  C   UNL     1     -39.401 -49.641  12.222  1.00  0.00     0.032 A 
HETATM   20  C   UNL     1     -38.537 -48.608  12.702  1.00  0.00     0.122 A 
HETATM   21  C   UNL     1     -39.462 -50.842  12.882  1.00  0.00     0.133 A 
HETATM   22  N   UNL     1     -37.798 -48.801  13.756  1.00  0.00    -0.306 N 
HETATM   23  N   UNL     1     -37.861 -50.035  14.425  1.00  0.00    -0.261 N 
ATOM     24  HN  UNL     1     -37.180 -48.063  14.093  1.00  0.00     0.186 HD
HETATM   25  C   UNL     1     -37.006 -50.184  15.585  1.00  0.00     0.181 C 
HETATM   26  C   UNL     1     -38.686 -51.118  14.053  1.00  0.00     0.290 A 
HETATM   27  O   UNL     1     -38.731 -52.177  14.674  1.00  0.00    -0.264 OA
ENDBRANCH   1  15
TORSDOF 6
ENDMDL
MODEL 5
REMARK VINA RESULT:      -6.2      2.573      4.747
REMARK  6 active torsions:
REMARK  status: ('A' for Active; 'I' for Inactive)
REMARK    1  A    between atoms: C_7  and  O_8 
REMARK    2  A    between atoms: O_8  and  C_9 
REMARK    3  A    between atoms: C_9  and  C_10 
REMARK    4  A    between atoms: C_10  and  O_11 
REMARK    5  A    between atoms: C_10  and  C_12 
REMARK    6  A    between atoms: C_12  and  N_13 
ROOT
HETATM    1  C   UNL     1     -41.838 -49.620  12.145  1.00  0.00     0.183 C 
ENDROOT
BRANCH   1   2
HETATM    2  C   UNL     1     -40.719 -50.585  11.737  1.00  0.00     0.162 C 
BRANCH   2   3
HETATM    3  C   UNL     1     -41.137 -52.060  11.808  1.00  0.00     0.209 C 
BRANCH   3   4
HETATM    4  O   UNL     1     -42.372 -52.140  12.529  1.00  0.00    -0.348 OA
BRANCH   4   5
HETATM    5  C   UNL     1     -42.510 -53.159  13.436  1.00  0.00     0.075 A 
HETATM    6  C   UNL     1     -43.773 -53.772  13.478  1.00  0.00    -0.029 A 
HETATM    7  C   UNL     1     -44.002 -54.819  14.382  1.00  0.00     0.010 A 
HETATM    8  C   UNL     1     -44.874 -53.335  12.551  1.00  0.00     0.051 C 
HETATM    9  C   UNL     1     -42.981 -55.269  15.221  1.00  0.00     0.007 A 
HETATM   10  C   UNL     1     -41.716 -54.681  15.168  1.00  0.00    -0.059 A 
HETATM   11  C   UNL     1     -40.596 -55.175  16.034  1.00  0.00     0.048 C 
HETATM   12  C   UNL     1     -41.493 -53.615  14.283  1.00  0.00     0.044 A 
ENDBRANCH   4   5
ENDBRANCH   3   4
ENDBRANCH   2   3
BRANCH   2  13
HETATM   13  O   UNL     1     -40.324 -50.281  10.385  1.00  0.00    -0.392 OA
HETATM   14  H   UNL     1     -40.877 -50.838   9.804  1.00  0.00     0.210 HD
ENDBRANCH   2  13
ENDBRANCH   1   2
BRANCH   1  15
HETATM   15  N   UNL     1     -41.887 -48.385  11.389  1.00  0.00    -0.284 N 
HETATM   16  N   UNL     1     -42.693 -48.293  10.299  1.00  0.00    -0.308 N 
HETATM   17  C   UNL     1     -42.530 -47.034   9.875  1.00  0.00     0.122 A 
ATOM     18  HN  UNL     1     -43.287 -49.017   9.896  1.00  0.00     0.186 HD
HETATM   19  C   UNL     1     -41.642 -46.325  10.689  1.00  0.00     0.032 A 
HETATM   20  C   UNL     1     -41.140 -44.986  10.701  1.00  0.00     0.122 A 
HETATM   21  C   UNL     1     -41.241 -47.213  11.654  1.00  0.00     0.133 A 
HETATM   22  N   UNL     1     -40.296 -44.605  11.616  1.00  0.00    -0.306 N 
HETATM   23  N   UNL     1     -39.885 -45.521  12.599  1.00  0.00    -0.261 N 
ATOM     24  HN  UNL     1     -39.937 -43.651  11.619  1.00  0.00     0.186 HD
HETATM   25  C   UNL     1     -38.938 -45.032  13.581  1.00  0.00     0.181 C 
HETATM   26  C   UNL     1     -40.325 -46.859  12.696  1.00  0.00     0.290 A 
HETATM   27  O   UNL     1     -39.960 -47.627  13.581  1.00  0.00    -0.264 OA
ENDBRANCH   1  15
TORSDOF 6
ENDMDL
MODEL 6
REMARK VINA RESULT:      -6.2      2.673      4.361
REMARK  6 active torsions:
REMARK  status: ('A' for Active; 'I' for Inactive)
REMARK    1  A    between atoms: C_7  and  O_8 
REMARK    2  A    between atoms: O_8  and  C_9 
REMARK    3  A    between atoms: C_9  and  C_10 
REMARK    4  A    between atoms: C_10  and  O_11 
REMARK    5  A    between atoms: C_10  and  C_12 
REMARK    6  A    between atoms: C_12  and  N_13 
ROOT
HETATM    1  C   UNL     1     -39.715 -48.738  12.280  1.00  0.00     0.183 C 
ENDROOT
BRANCH   1   2
HETATM    2  C   UNL     1     -40.360 -49.975  11.646  1.00  0.00     0.162 C 
BRANCH   2   3
HETATM    3  C   UNL     1     -41.808 -50.203  12.101  1.00  0.00     0.209 C 
BRANCH   3   4
HETATM    4  O   UNL     1     -41.816 -51.287  13.036  1.00  0.00    -0.348 OA
BRANCH   4   5
HETATM    5  C   UNL     1     -42.994 -51.970  13.203  1.00  0.00     0.075 A 
HETATM    6  C   UNL     1     -42.896 -53.371  13.178  1.00  0.00    -0.029 A 
HETATM    7  C   UNL     1     -44.054 -54.145  13.335  1.00  0.00     0.010 A 
HETATM    8  C   UNL     1     -41.564 -54.049  13.010  1.00  0.00     0.051 C 
HETATM    9  C   UNL     1     -45.294 -53.537  13.535  1.00  0.00     0.007 A 
HETATM   10  C   UNL     1     -45.395 -52.145  13.585  1.00  0.00    -0.059 A 
HETATM   11  C   UNL     1     -46.712 -51.474  13.838  1.00  0.00     0.048 C 
HETATM   12  C   UNL     1     -44.241 -51.368  13.402  1.00  0.00     0.044 A 
ENDBRANCH   4   5
ENDBRANCH   3   4
ENDBRANCH   2   3
BRANCH   2  13
HETATM   13  O   UNL     1     -40.345 -49.815  10.214  1.00  0.00    -0.392 OA
HETATM   14  H   UNL     1     -39.447 -49.505   9.981  1.00  0.00     0.210 HD
ENDBRANCH   2  13
ENDBRANCH   1   2
BRANCH   1  15
HETATM   15  N   UNL     1     -40.242 -47.469  11.821  1.00  0.00    -0.284 N 
HETATM   16  N   UNL     1     -39.861 -46.976  10.614  1.00  0.00    -0.308 N 
HETATM   17  C   UNL     1     -40.552 -45.837  10.490  1.00  0.00     0.122 A 
ATOM     18  HN  UNL     1     -39.198 -47.381   9.953  1.00  0.00     0.186 HD
HETATM   19  C   UNL     1     -41.377 -45.610  11.596  1.00  0.00     0.032 A 
HETATM   20  C   UNL     1     -42.308 -44.589  11.962  1.00  0.00     0.122 A 
HETATM   21  C   UNL     1     -41.160 -46.670  12.439  1.00  0.00     0.133 A 
HETATM   22  N   UNL     1     -42.946 -44.651  13.094  1.00  0.00    -0.306 N 
HETATM   23  N   UNL     1     -42.717 -45.737  13.956  1.00  0.00    -0.261 N 
ATOM     24  HN  UNL     1     -43.607 -43.919  13.354  1.00  0.00     0.186 HD
HETATM   25  C   UNL     1     -43.455 -45.739  15.203  1.00  0.00     0.181 C 
HETATM   26  C   UNL     1     -41.835 -46.809  13.693  1.00  0.00     0.290 A 
HETATM   27  O   UNL     1     -41.674 -47.753  14.461  1.00  0.00    -0.264 OA
ENDBRANCH   1  15
TORSDOF 6
ENDMDL
MODEL 7
REMARK VINA RESULT:      -6.1      2.678      6.984
REMARK  6 active torsions:
REMARK  status: ('A' for Active; 'I' for Inactive)
REMARK    1  A    between atoms: C_7  and  O_8 
REMARK    2  A    between atoms: O_8  and  C_9 
REMARK    3  A    between atoms: C_9  and  C_10 
REMARK    4  A    between atoms: C_10  and  O_11 
REMARK    5  A    between atoms: C_10  and  C_12 
REMARK    6  A    between atoms: C_12  and  N_13 
ROOT
HETATM    1  C   UNL     1     -41.239 -52.036  11.840  1.00  0.00     0.183 C 
ENDROOT
BRANCH   1   2
HETATM    2  C   UNL     1     -41.334 -50.541  12.166  1.00  0.00     0.162 C 
BRANCH   2   3
HETATM    3  C   UNL     1     -40.648 -49.649  11.123  1.00  0.00     0.209 C 
BRANCH   3   4
HETATM    4  O   UNL     1     -39.243 -49.634  11.404  1.00  0.00    -0.348 OA
BRANCH   4   5
HETATM    5  C   UNL     1     -38.823 -48.908  12.488  1.00  0.00     0.075 A 
HETATM    6  C   UNL     1     -37.901 -49.550  13.332  1.00  0.00    -0.029 A 
HETATM    7  C   UNL     1     -37.425 -48.880  14.468  1.00  0.00     0.010 A 
HETATM    8  C   UNL     1     -37.403 -50.934  13.021  1.00  0.00     0.051 C 
HETATM    9  C   UNL     1     -37.841 -47.578  14.752  1.00  0.00     0.007 A 
HETATM   10  C   UNL     1     -38.738 -46.926  13.905  1.00  0.00    -0.059 A 
HETATM   11  C   UNL     1     -39.167 -45.514  14.172  1.00  0.00     0.048 C 
HETATM   12  C   UNL     1     -39.236 -47.604  12.782  1.00  0.00     0.044 A 
ENDBRANCH   4   5
ENDBRANCH   3   4
ENDBRANCH   2   3
BRANCH   2  13
HETATM   13  O   UNL     1     -42.727 -50.178  12.240  1.00  0.00    -0.392 OA
HETATM   14  H   UNL     1     -42.868 -49.806  13.133  1.00  0.00     0.210 HD
ENDBRANCH   2  13
ENDBRANCH   1   2
BRANCH   1  15
HETATM   15  N   UNL     1     -42.229 -52.869  12.490  1.00  0.00    -0.284 N 
HETATM   16  N   UNL     1     -43.475 -52.978  11.958  1.00  0.00    -0.308 N 
HETATM   17  C   UNL     1     -44.105 -53.836  12.768  1.00  0.00     0.122 A 
ATOM     18  HN  UNL     1     -43.845 -52.511  11.129  1.00  0.00     0.186 HD
HETATM   19  C   UNL     1     -43.272 -54.283  13.797  1.00  0.00     0.032 A 
HETATM   20  C   UNL     1     -43.425 -55.189  14.892  1.00  0.00     0.122 A 
HETATM   21  C   UNL     1     -42.072 -53.647  13.600  1.00  0.00     0.133 A 
HETATM   22  N   UNL     1     -42.438 -55.409  15.711  1.00  0.00    -0.306 N 
HETATM   23  N   UNL     1     -41.213 -54.752  15.507  1.00  0.00    -0.261 N 
ATOM     24  HN  UNL     1     -42.552 -56.053  16.494  1.00  0.00     0.186 HD
HETATM   25  C   UNL     1     -40.160 -55.037  16.461  1.00  0.00     0.181 C 
HETATM   26  C   UNL     1     -40.942 -53.851  14.454  1.00  0.00     0.290 A 
HETATM   27  O   UNL     1     -39.852 -53.309  14.294  1.00  0.00    -0.264 OA
ENDBRANCH   1  15
TORSDOF 6
ENDMDL
MODEL 8
REMARK VINA RESULT:      -6.1      1.724      2.052
REMARK  6 active torsions:
REMARK  status: ('A' for Active; 'I' for Inactive)
REMARK    1  A    between atoms: C_7  and  O_8 
REMARK    2  A    between atoms: O_8  and  C_9 
REMARK    3  A    between atoms: C_9  and  C_10 
REMARK    4  A    between atoms: C_10  and  O_11 
REMARK    5  A    between atoms: C_10  and  C_12 
REMARK    6  A    between atoms: C_12  and  N_13 
ROOT
HETATM    1  C   UNL     1     -40.851 -50.956  14.063  1.00  0.00     0.183 C 
ENDROOT
BRANCH   1   2
HETATM    2  C   UNL     1     -40.374 -52.316  13.542  1.00  0.00     0.162 C 
BRANCH   2   3
HETATM    3  C   UNL     1     -41.270 -52.890  12.437  1.00  0.00     0.209 C 
BRANCH   3   4
HETATM    4  O   UNL     1     -41.963 -54.025  12.967  1.00  0.00    -0.348 OA
BRANCH   4   5
HETATM    5  C   UNL     1     -43.289 -53.869  13.276  1.00  0.00     0.075 A 
HETATM    6  C   UNL     1     -43.728 -54.531  14.435  1.00  0.00    -0.029 A 
HETATM    7  C   UNL     1     -45.073 -54.428  14.819  1.00  0.00     0.010 A 
HETATM    8  C   UNL     1     -42.771 -55.325  15.280  1.00  0.00     0.051 C 
HETATM    9  C   UNL     1     -45.969 -53.661  14.073  1.00  0.00     0.007 A 
HETATM   10  C   UNL     1     -45.534 -52.981  12.934  1.00  0.00    -0.059 A 
HETATM   11  C   UNL     1     -46.472 -52.121  12.141  1.00  0.00     0.048 C 
HETATM   12  C   UNL     1     -44.195 -53.104  12.533  1.00  0.00     0.044 A 
ENDBRANCH   4   5
ENDBRANCH   3   4
ENDBRANCH   2   3
BRANCH   2  13
HETATM   13  O   UNL     1     -39.038 -52.163  13.023  1.00  0.00    -0.392 OA
HETATM   14  H   UNL     1     -38.840 -52.982  12.527  1.00  0.00     0.210 HD
ENDBRANCH   2  13
ENDBRANCH   1   2
BRANCH   1  15
HETATM   15  N   UNL     1     -40.138 -49.812  13.532  1.00  0.00    -0.284 N 
HETATM   16  N   UNL     1     -38.907 -49.500  14.014  1.00  0.00    -0.308 N 
HETATM   17  C   UNL     1     -38.529 -48.440  13.290  1.00  0.00     0.122 A 
ATOM     18  HN  UNL     1     -38.388 -49.967  14.758  1.00  0.00     0.186 HD
HETATM   19  C   UNL     1     -39.499 -48.085  12.348  1.00  0.00     0.032 A 
HETATM   20  C   UNL     1     -39.599 -47.076  11.340  1.00  0.00     0.122 A 
HETATM   21  C   UNL     1     -40.524 -48.980  12.522  1.00  0.00     0.133 A 
HETATM   22  N   UNL     1     -40.660 -46.991  10.592  1.00  0.00    -0.306 N 
HETATM   23  N   UNL     1     -41.710 -47.907  10.779  1.00  0.00    -0.261 N 
ATOM     24  HN  UNL     1     -40.730 -46.267   9.878  1.00  0.00     0.186 HD
HETATM   25  C   UNL     1     -42.864 -47.750   9.917  1.00  0.00     0.181 C 
HETATM   26  C   UNL     1     -41.715 -48.952  11.728  1.00  0.00     0.290 A 
HETATM   27  O   UNL     1     -42.641 -49.748  11.850  1.00  0.00    -0.264 OA
ENDBRANCH   1  15
TORSDOF 6
ENDMDL
MODEL 9
REMARK VINA RESULT:      -6.0      2.061      3.084
REMARK  6 active torsions:
REMARK  status: ('A' for Active; 'I' for Inactive)
REMARK    1  A    between atoms: C_7  and  O_8 
REMARK    2  A    between atoms: O_8  and  C_9 
REMARK    3  A    between atoms: C_9  and  C_10 
REMARK    4  A    between atoms: C_10  and  O_11 
REMARK    5  A    between atoms: C_10  and  C_12 
REMARK    6  A    between atoms: C_12  and  N_13 
ROOT
HETATM    1  C   UNL     1     -39.781 -51.110  12.374  1.00  0.00     0.183 C 
ENDROOT
BRANCH   1   2
HETATM    2  C   UNL     1     -40.501 -52.462  12.327  1.00  0.00     0.162 C 
BRANCH   2   3
HETATM    3  C   UNL     1     -41.495 -52.660  13.480  1.00  0.00     0.209 C 
BRANCH   3   4
HETATM    4  O   UNL     1     -42.298 -53.808  13.185  1.00  0.00    -0.348 OA
BRANCH   4   5
HETATM    5  C   UNL     1     -43.650 -53.701  13.381  1.00  0.00     0.075 A 
HETATM    6  C   UNL     1     -44.197 -54.560  14.349  1.00  0.00    -0.029 A 
HETATM    7  C   UNL     1     -45.574 -54.520  14.607  1.00  0.00     0.010 A 
HETATM    8  C   UNL     1     -43.320 -55.503  15.127  1.00  0.00     0.051 C 
HETATM    9  C   UNL     1     -46.399 -53.622  13.928  1.00  0.00     0.007 A 
HETATM   10  C   UNL     1     -45.859 -52.748  12.982  1.00  0.00    -0.059 A 
HETATM   11  C   UNL     1     -46.722 -51.750  12.270  1.00  0.00     0.048 C 
HETATM   12  C   UNL     1     -44.485 -52.806  12.703  1.00  0.00     0.044 A 
ENDBRANCH   4   5
ENDBRANCH   3   4
ENDBRANCH   2   3
BRANCH   2  13
HETATM   13  O   UNL     1     -41.215 -52.556  11.079  1.00  0.00    -0.392 OA
HETATM   14  H   UNL     1     -41.148 -51.677  10.656  1.00  0.00     0.210 HD
ENDBRANCH   2  13
ENDBRANCH   1   2
BRANCH   1  15
HETATM   15  N   UNL     1     -40.559 -49.985  11.898  1.00  0.00    -0.284 N 
HETATM   16  N   UNL     1     -40.665 -49.753  10.563  1.00  0.00    -0.308 N 
HETATM   17  C   UNL     1     -41.469 -48.687  10.478  1.00  0.00     0.122 A 
ATOM     18  HN  UNL     1     -40.230 -50.273   9.801  1.00  0.00     0.186 HD
HETATM   19  C   UNL     1     -41.885 -48.249  11.738  1.00  0.00     0.032 A 
HETATM   20  C   UNL     1     -42.735 -47.200  12.208  1.00  0.00     0.122 A 
HETATM   21  C   UNL     1     -41.287 -49.097  12.636  1.00  0.00     0.133 A 
HETATM   22  N   UNL     1     -42.938 -47.034  13.483  1.00  0.00    -0.306 N 
HETATM   23  N   UNL     1     -42.318 -47.902  14.398  1.00  0.00    -0.261 N 
ATOM     24  HN  UNL     1     -43.541 -46.282  13.814  1.00  0.00     0.186 HD
HETATM   25  C   UNL     1     -42.582 -47.655  15.801  1.00  0.00     0.181 C 
HETATM   26  C   UNL     1     -41.475 -48.980  14.050  1.00  0.00     0.290 A 
HETATM   27  O   UNL     1     -40.967 -49.732  14.876  1.00  0.00    -0.264 OA
ENDBRANCH   1  15
TORSDOF 6
ENDMDL
