MODEL 1
REMARK VINA RESULT:      -6.2      0.000      0.000
REMARK  5 active torsions:
REMARK  status: ('A' for Active; 'I' for Inactive)
REMARK    1  A    between atoms: C_7  and  O_8 
REMARK    2  A    between atoms: O_8  and  C_9 
REMARK    3  A    between atoms: C_9  and  C_10 
REMARK    4  A    between atoms: C_10  and  N_11 
REMARK       I    between atoms: N_11  and  C_12 
REMARK       I    between atoms: C_12  and  N_14 
REMARK    5  A    between atoms: N_14  and  C_15 
ROOT
HETATM    1  N   UNL     1     -40.555 -49.945  10.790  1.00  0.00    -0.341 N 
HETATM    2  C   UNL     1     -41.573 -49.025  10.924  1.00  0.00     0.320 C 
HETATM    3  O   UNL     1     -42.220 -48.917  11.958  1.00  0.00    -0.247 OA
HETATM    4  N   UNL     1     -41.781 -48.322   9.761  1.00  0.00    -0.308 N 
HETATM    5  H   UNL     1     -39.756 -49.622  10.261  1.00  0.00     0.164 HD
HETATM    6  H   UNL     1     -41.419 -48.766   8.925  1.00  0.00     0.170 HD
ENDROOT
BRANCH   1   7
HETATM    7  C   UNL     1     -40.230 -50.736  11.963  1.00  0.00     0.150 C 
BRANCH   7   8
HETATM    8  C   UNL     1     -41.016 -52.034  12.034  1.00  0.00     0.188 C 
BRANCH   8   9
HETATM    9  O   UNL     1     -41.882 -51.999  13.175  1.00  0.00    -0.384 OA
BRANCH   9  10
HETATM   10  C   UNL     1     -43.239 -52.342  12.868  1.00  0.00     0.125 C 
HETATM   11  C   UNL     1     -44.251 -51.276  13.344  1.00  0.00     0.010 C 
HETATM   12  C   UNL     1     -44.055 -50.885  14.816  1.00  0.00     0.012 C 
HETATM   13  C   UNL     1     -45.685 -51.743  13.065  1.00  0.00     0.007 C 
HETATM   14  C   UNL     1     -45.992 -53.106  13.676  1.00  0.00     0.001 C 
HETATM   15  C   UNL     1     -44.969 -54.159  13.256  1.00  0.00     0.002 C 
HETATM   16  C   UNL     1     -43.532 -53.709  13.503  1.00  0.00     0.032 C 
ENDBRANCH   9  10
ENDBRANCH   8   9
ENDBRANCH   7   8
ENDBRANCH   1   7
BRANCH   4  17
HETATM   17  C   UNL     1     -42.744 -47.305   9.596  1.00  0.00     0.051 A 
HETATM   18  C   UNL     1     -43.973 -47.509   8.970  1.00  0.00     0.032 A 
HETATM   19  C   UNL     1     -44.848 -46.439   8.784  1.00  0.00     0.019 A 
HETATM   20  C   UNL     1     -44.467 -45.194   9.250  1.00  0.00     0.088 A 
HETATM   21  N   UNL     1     -43.306 -44.959   9.900  1.00  0.00    -0.373 N 
HETATM   22  C   UNL     1     -42.478 -46.019  10.061  1.00  0.00     0.117 A 
ATOM     23  HN  UNL     1     -43.066 -44.032  10.252  1.00  0.00     0.164 HD
ENDBRANCH   4  17
TORSDOF 5
ENDMDL
MODEL 2
REMARK VINA RESULT:      -6.2      2.003      2.984
REMARK  5 active torsions:
REMARK  status: ('A' for Active; 'I' for Inactive)
REMARK    1  A    between atoms: C_7  and  O_8 
REMARK    2  A    between atoms: O_8  and  C_9 
REMARK    3  A    between atoms: C_9  and  C_10 
REMARK    4  A    between atoms: C_10  and  N_11 
REMARK       I    between atoms: N_11  and  C_12 
REMARK       I    between atoms: C_12  and  N_14 
REMARK    5  A    between atoms: N_14  and  C_15 
ROOT
HETATM    1  N   UNL     1     -41.212 -52.642  11.726  1.00  0.00    -0.341 N 
HETATM    2  C   UNL     1     -41.050 -51.320  12.081  1.00  0.00     0.320 C 
HETATM    3  O   UNL     1     -41.085 -50.951  13.249  1.00  0.00    -0.247 OA
HETATM    4  N   UNL     1     -40.909 -50.510  10.980  1.00  0.00    -0.308 N 
HETATM    5  H   UNL     1     -40.629 -52.952  10.959  1.00  0.00     0.164 HD
HETATM    6  H   UNL     1     -41.250 -50.907  10.112  1.00  0.00     0.170 HD
ENDROOT
BRANCH   1   7
HETATM    7  C   UNL     1     -41.352 -53.598  12.809  1.00  0.00     0.150 C 
BRANCH   7   8
HETATM    8  C   UNL     1     -42.801 -53.952  13.098  1.00  0.00     0.188 C 
BRANCH   8   9
HETATM    9  O   UNL     1     -43.657 -53.110  12.316  1.00  0.00    -0.384 OA
BRANCH   9  10
HETATM   10  C   UNL     1     -44.987 -53.008  12.841  1.00  0.00     0.125 C 
HETATM   11  C   UNL     1     -45.398 -51.553  13.158  1.00  0.00     0.010 C 
HETATM   12  C   UNL     1     -44.361 -50.817  14.019  1.00  0.00     0.012 C 
HETATM   13  C   UNL     1     -46.792 -51.522  13.795  1.00  0.00     0.007 C 
HETATM   14  C   UNL     1     -46.896 -52.407  15.033  1.00  0.00     0.001 C 
HETATM   15  C   UNL     1     -46.443 -53.836  14.748  1.00  0.00     0.002 C 
HETATM   16  C   UNL     1     -45.066 -53.894  14.092  1.00  0.00     0.032 C 
ENDBRANCH   9  10
ENDBRANCH   8   9
ENDBRANCH   7   8
ENDBRANCH   1   7
BRANCH   4  17
HETATM   17  C   UNL     1     -40.713 -49.114  11.026  1.00  0.00     0.051 A 
HETATM   18  C   UNL     1     -39.673 -48.510  11.733  1.00  0.00     0.032 A 
HETATM   19  C   UNL     1     -39.581 -47.120  11.787  1.00  0.00     0.019 A 
HETATM   20  C   UNL     1     -40.529 -46.375  11.112  1.00  0.00     0.088 A 
HETATM   21  N   UNL     1     -41.527 -46.916  10.378  1.00  0.00    -0.373 N 
HETATM   22  C   UNL     1     -41.589 -48.269  10.350  1.00  0.00     0.117 A 
ATOM     23  HN  UNL     1     -42.197 -46.336   9.872  1.00  0.00     0.164 HD
ENDBRANCH   4  17
TORSDOF 5
ENDMDL
MODEL 3
REMARK VINA RESULT:      -6.1      3.894      5.252
REMARK  5 active torsions:
REMARK  status: ('A' for Active; 'I' for Inactive)
REMARK    1  A    between atoms: C_7  and  O_8 
REMARK    2  A    between atoms: O_8  and  C_9 
REMARK    3  A    between atoms: C_9  and  C_10 
REMARK    4  A    between atoms: C_10  and  N_11 
REMARK       I    between atoms: N_11  and  C_12 
REMARK       I    between atoms: C_12  and  N_14 
REMARK    5  A    between atoms: N_14  and  C_15 
ROOT
HETATM    1  N   UNL     1     -41.503 -53.447  14.916  1.00  0.00    -0.341 N 
HETATM    2  C   UNL     1     -40.621 -53.133  13.903  1.00  0.00     0.320 C 
HETATM    3  O   UNL     1     -40.222 -53.973  13.106  1.00  0.00    -0.247 OA
HETATM    4  N   UNL     1     -40.233 -51.816  13.955  1.00  0.00    -0.308 N 
HETATM    5  H   UNL     1     -42.196 -52.736  15.112  1.00  0.00     0.164 HD
HETATM    6  H   UNL     1     -40.368 -51.367  14.853  1.00  0.00     0.170 HD
ENDROOT
BRANCH   1   7
HETATM    7  C   UNL     1     -41.999 -54.809  14.953  1.00  0.00     0.150 C 
BRANCH   7   8
HETATM    8  C   UNL     1     -43.513 -54.888  14.851  1.00  0.00     0.188 C 
BRANCH   8   9
HETATM    9  O   UNL     1     -43.927 -54.371  13.580  1.00  0.00    -0.384 OA
BRANCH   9  10
HETATM   10  C   UNL     1     -45.175 -53.669  13.633  1.00  0.00     0.125 C 
HETATM   11  C   UNL     1     -45.140 -52.322  12.874  1.00  0.00     0.010 C 
HETATM   12  C   UNL     1     -43.947 -51.444  13.278  1.00  0.00     0.012 C 
HETATM   13  C   UNL     1     -46.473 -51.584  13.042  1.00  0.00     0.007 C 
HETATM   14  C   UNL     1     -46.858 -51.383  14.504  1.00  0.00     0.001 C 
HETATM   15  C   UNL     1     -46.846 -52.699  15.279  1.00  0.00     0.002 C 
HETATM   16  C   UNL     1     -45.537 -53.465  15.110  1.00  0.00     0.032 C 
ENDBRANCH   9  10
ENDBRANCH   8   9
ENDBRANCH   7   8
ENDBRANCH   1   7
BRANCH   4  17
HETATM   17  C   UNL     1     -39.351 -51.200  13.043  1.00  0.00     0.051 A 
HETATM   18  C   UNL     1     -37.964 -51.217  13.190  1.00  0.00     0.032 A 
HETATM   19  C   UNL     1     -37.158 -50.529  12.283  1.00  0.00     0.019 A 
HETATM   20  C   UNL     1     -37.770 -49.857  11.242  1.00  0.00     0.088 A 
HETATM   21  N   UNL     1     -39.105 -49.850  11.036  1.00  0.00    -0.373 N 
HETATM   22  C   UNL     1     -39.859 -50.525  11.937  1.00  0.00     0.117 A 
ATOM     23  HN  UNL     1     -39.523 -49.362  10.243  1.00  0.00     0.164 HD
ENDBRANCH   4  17
TORSDOF 5
ENDMDL
MODEL 4
REMARK VINA RESULT:      -6.1      3.567      5.163
REMARK  5 active torsions:
REMARK  status: ('A' for Active; 'I' for Inactive)
REMARK    1  A    between atoms: C_7  and  O_8 
REMARK    2  A    between atoms: O_8  and  C_9 
REMARK    3  A    between atoms: C_9  and  C_10 
REMARK    4  A    between atoms: C_10  and  N_11 
REMARK       I    between atoms: N_11  and  C_12 
REMARK       I    between atoms: C_12  and  N_14 
REMARK    5  A    between atoms: N_14  and  C_15 
ROOT
HETATM    1  N   UNL     1     -41.301 -45.966  10.258  1.00  0.00    -0.341 N 
HETATM    2  C   UNL     1     -42.178 -46.962   9.882  1.00  0.00     0.320 C 
HETATM    3  O   UNL     1     -41.917 -48.149  10.034  1.00  0.00    -0.247 OA
HETATM    4  N   UNL     1     -43.307 -46.450   9.290  1.00  0.00    -0.308 N 
HETATM    5  H   UNL     1     -41.736 -45.144  10.655  1.00  0.00     0.164 HD
HETATM    6  H   UNL     1     -43.209 -45.508   8.929  1.00  0.00     0.170 HD
ENDROOT
BRANCH   1   7
HETATM    7  C   UNL     1     -40.077 -46.386  10.914  1.00  0.00     0.150 C 
BRANCH   7   8
HETATM    8  C   UNL     1     -40.203 -46.424  12.427  1.00  0.00     0.188 C 
BRANCH   8   9
HETATM    9  O   UNL     1     -40.291 -47.787  12.859  1.00  0.00    -0.384 OA
BRANCH   9  10
HETATM   10  C   UNL     1     -39.038 -48.480  12.812  1.00  0.00     0.125 C 
HETATM   11  C   UNL     1     -39.017 -49.614  11.762  1.00  0.00     0.010 C 
HETATM   12  C   UNL     1     -40.216 -50.564  11.888  1.00  0.00     0.012 C 
HETATM   13  C   UNL     1     -37.683 -50.369  11.823  1.00  0.00     0.007 C 
HETATM   14  C   UNL     1     -37.370 -50.903  13.217  1.00  0.00     0.001 C 
HETATM   15  C   UNL     1     -37.439 -49.803  14.274  1.00  0.00     0.002 C 
HETATM   16  C   UNL     1     -38.748 -49.021  14.219  1.00  0.00     0.032 C 
ENDBRANCH   9  10
ENDBRANCH   8   9
ENDBRANCH   7   8
ENDBRANCH   1   7
BRANCH   4  17
HETATM   17  C   UNL     1     -44.389 -47.221   8.816  1.00  0.00     0.051 A 
HETATM   18  C   UNL     1     -45.598 -47.346   9.499  1.00  0.00     0.032 A 
HETATM   19  C   UNL     1     -46.599 -48.179   9.001  1.00  0.00     0.019 A 
HETATM   20  C   UNL     1     -46.361 -48.852   7.817  1.00  0.00     0.088 A 
HETATM   21  N   UNL     1     -45.224 -48.727   7.098  1.00  0.00    -0.373 N 
HETATM   22  C   UNL     1     -44.271 -47.912   7.612  1.00  0.00     0.117 A 
ATOM     23  HN  UNL     1     -45.090 -49.220   6.215  1.00  0.00     0.164 HD
ENDBRANCH   4  17
TORSDOF 5
ENDMDL
MODEL 5
REMARK VINA RESULT:      -6.0      1.525      2.288
REMARK  5 active torsions:
REMARK  status: ('A' for Active; 'I' for Inactive)
REMARK    1  A    between atoms: C_7  and  O_8 
REMARK    2  A    between atoms: O_8  and  C_9 
REMARK    3  A    between atoms: C_9  and  C_10 
REMARK    4  A    between atoms: C_10  and  N_11 
REMARK       I    between atoms: N_11  and  C_12 
REMARK       I    between atoms: C_12  and  N_14 
REMARK    5  A    between atoms: N_14  and  C_15 
ROOT
HETATM    1  N   UNL     1     -41.168 -51.433  11.444  1.00  0.00    -0.341 N 
HETATM    2  C   UNL     1     -41.365 -50.111  11.782  1.00  0.00     0.320 C 
HETATM    3  O   UNL     1     -41.422 -49.739  12.948  1.00  0.00    -0.247 OA
HETATM    4  N   UNL     1     -41.537 -49.321  10.671  1.00  0.00    -0.308 N 
HETATM    5  H   UNL     1     -40.576 -51.583  10.638  1.00  0.00     0.164 HD
HETATM    6  H   UNL     1     -41.810 -49.819   9.832  1.00  0.00     0.170 HD
ENDROOT
BRANCH   1   7
HETATM    7  C   UNL     1     -40.956 -52.363  12.538  1.00  0.00     0.150 C 
BRANCH   7   8
HETATM    8  C   UNL     1     -42.205 -53.151  12.892  1.00  0.00     0.188 C 
BRANCH   8   9
HETATM    9  O   UNL     1     -42.629 -52.793  14.213  1.00  0.00    -0.384 OA
BRANCH   9  10
HETATM   10  C   UNL     1     -43.782 -51.942  14.229  1.00  0.00     0.125 C 
HETATM   11  C   UNL     1     -44.564 -52.015  15.560  1.00  0.00     0.010 C 
HETATM   12  C   UNL     1     -44.884 -53.455  15.984  1.00  0.00     0.012 C 
HETATM   13  C   UNL     1     -45.829 -51.151  15.479  1.00  0.00     0.007 C 
HETATM   14  C   UNL     1     -46.719 -51.515  14.295  1.00  0.00     0.001 C 
HETATM   15  C   UNL     1     -45.946 -51.499  12.979  1.00  0.00     0.002 C 
HETATM   16  C   UNL     1     -44.670 -52.334  13.040  1.00  0.00     0.032 C 
ENDBRANCH   9  10
ENDBRANCH   8   9
ENDBRANCH   7   8
ENDBRANCH   1   7
BRANCH   4  17
HETATM   17  C   UNL     1     -41.743 -47.926  10.698  1.00  0.00     0.051 A 
HETATM   18  C   UNL     1     -40.714 -47.004  10.887  1.00  0.00     0.032 A 
HETATM   19  C   UNL     1     -41.003 -45.642  10.968  1.00  0.00     0.019 A 
HETATM   20  C   UNL     1     -42.320 -45.244  10.838  1.00  0.00     0.088 A 
HETATM   21  N   UNL     1     -43.343 -46.097  10.610  1.00  0.00    -0.373 N 
HETATM   22  C   UNL     1     -43.028 -47.413  10.540  1.00  0.00     0.117 A 
ATOM     23  HN  UNL     1     -44.301 -45.767  10.496  1.00  0.00     0.164 HD
ENDBRANCH   4  17
TORSDOF 5
ENDMDL
MODEL 6
REMARK VINA RESULT:      -6.0      2.917      7.644
REMARK  5 active torsions:
REMARK  status: ('A' for Active; 'I' for Inactive)
REMARK    1  A    between atoms: C_7  and  O_8 
REMARK    2  A    between atoms: O_8  and  C_9 
REMARK    3  A    between atoms: C_9  and  C_10 
REMARK    4  A    between atoms: C_10  and  N_11 
REMARK       I    between atoms: N_11  and  C_12 
REMARK       I    between atoms: C_12  and  N_14 
REMARK    5  A    between atoms: N_14  and  C_15 
ROOT
HETATM    1  N   UNL     1     -41.029 -50.943  11.239  1.00  0.00    -0.341 N 
HETATM    2  C   UNL     1     -41.809 -51.451  12.256  1.00  0.00     0.320 C 
HETATM    3  O   UNL     1     -41.746 -51.021  13.401  1.00  0.00    -0.247 OA
HETATM    4  N   UNL     1     -42.588 -52.499  11.826  1.00  0.00    -0.308 N 
HETATM    5  H   UNL     1     -41.489 -50.878  10.340  1.00  0.00     0.164 HD
HETATM    6  H   UNL     1     -42.269 -52.946  10.974  1.00  0.00     0.170 HD
ENDROOT
BRANCH   1   7
HETATM    7  C   UNL     1     -40.175 -49.817  11.569  1.00  0.00     0.150 C 
BRANCH   7   8
HETATM    8  C   UNL     1     -40.816 -48.478  11.247  1.00  0.00     0.188 C 
BRANCH   8   9
HETATM    9  O   UNL     1     -39.828 -47.446  11.353  1.00  0.00    -0.384 OA
BRANCH   9  10
HETATM   10  C   UNL     1     -40.350 -46.211  11.861  1.00  0.00     0.125 C 
HETATM   11  C   UNL     1     -40.561 -45.149  10.759  1.00  0.00     0.010 C 
HETATM   12  C   UNL     1     -39.319 -44.951   9.878  1.00  0.00     0.012 C 
HETATM   13  C   UNL     1     -41.037 -43.829  11.378  1.00  0.00     0.007 C 
HETATM   14  C   UNL     1     -40.099 -43.316  12.466  1.00  0.00     0.001 C 
HETATM   15  C   UNL     1     -39.840 -44.373  13.536  1.00  0.00     0.002 C 
HETATM   16  C   UNL     1     -39.387 -45.705  12.944  1.00  0.00     0.032 C 
ENDBRANCH   9  10
ENDBRANCH   8   9
ENDBRANCH   7   8
ENDBRANCH   1   7
BRANCH   4  17
HETATM   17  C   UNL     1     -43.499 -53.210  12.634  1.00  0.00     0.051 A 
HETATM   18  C   UNL     1     -43.106 -54.159  13.578  1.00  0.00     0.032 A 
HETATM   19  C   UNL     1     -44.068 -54.871  14.295  1.00  0.00     0.019 A 
HETATM   20  C   UNL     1     -45.400 -54.594  14.054  1.00  0.00     0.088 A 
HETATM   21  N   UNL     1     -45.826 -53.653  13.183  1.00  0.00    -0.373 N 
HETATM   22  C   UNL     1     -44.866 -52.983  12.501  1.00  0.00     0.117 A 
ATOM     23  HN  UNL     1     -46.818 -53.457  13.047  1.00  0.00     0.164 HD
ENDBRANCH   4  17
TORSDOF 5
ENDMDL
MODEL 7
REMARK VINA RESULT:      -5.6      4.606      7.132
REMARK  5 active torsions:
REMARK  status: ('A' for Active; 'I' for Inactive)
REMARK    1  A    between atoms: C_7  and  O_8 
REMARK    2  A    between atoms: O_8  and  C_9 
REMARK    3  A    between atoms: C_9  and  C_10 
REMARK    4  A    between atoms: C_10  and  N_11 
REMARK       I    between atoms: N_11  and  C_12 
REMARK       I    between atoms: C_12  and  N_14 
REMARK    5  A    between atoms: N_14  and  C_15 
ROOT
HETATM    1  N   UNL     1     -40.954 -54.218  12.906  1.00  0.00    -0.341 N 
HETATM    2  C   UNL     1     -42.106 -54.078  13.650  1.00  0.00     0.320 C 
HETATM    3  O   UNL     1     -42.117 -54.227  14.866  1.00  0.00    -0.247 OA
HETATM    4  N   UNL     1     -43.197 -53.813  12.856  1.00  0.00    -0.308 N 
HETATM    5  H   UNL     1     -40.859 -53.564  12.140  1.00  0.00     0.164 HD
HETATM    6  H   UNL     1     -43.086 -54.069  11.882  1.00  0.00     0.170 HD
ENDROOT
BRANCH   1   7
HETATM    7  C   UNL     1     -39.730 -54.481  13.639  1.00  0.00     0.150 C 
BRANCH   7   8
HETATM    8  C   UNL     1     -38.973 -53.213  13.996  1.00  0.00     0.188 C 
BRANCH   8   9
HETATM    9  O   UNL     1     -39.079 -52.280  12.914  1.00  0.00    -0.384 OA
BRANCH   9  10
HETATM   10  C   UNL     1     -39.133 -50.915  13.345  1.00  0.00     0.125 C 
HETATM   11  C   UNL     1     -38.772 -49.915  12.223  1.00  0.00     0.010 C 
HETATM   12  C   UNL     1     -37.454 -50.264  11.517  1.00  0.00     0.012 C 
HETATM   13  C   UNL     1     -38.764 -48.483  12.770  1.00  0.00     0.007 C 
HETATM   14  C   UNL     1     -37.842 -48.316  13.974  1.00  0.00     0.001 C 
HETATM   15  C   UNL     1     -38.153 -49.332  15.071  1.00  0.00     0.002 C 
HETATM   16  C   UNL     1     -38.190 -50.765  14.547  1.00  0.00     0.032 C 
ENDBRANCH   9  10
ENDBRANCH   8   9
ENDBRANCH   7   8
ENDBRANCH   1   7
BRANCH   4  17
HETATM   17  C   UNL     1     -44.508 -53.605  13.332  1.00  0.00     0.051 A 
HETATM   18  C   UNL     1     -45.114 -52.351  13.381  1.00  0.00     0.032 A 
HETATM   19  C   UNL     1     -46.391 -52.213  13.926  1.00  0.00     0.019 A 
HETATM   20  C   UNL     1     -47.030 -53.347  14.391  1.00  0.00     0.088 A 
HETATM   21  N   UNL     1     -46.500 -54.588  14.323  1.00  0.00    -0.373 N 
HETATM   22  C   UNL     1     -45.257 -54.686  13.791  1.00  0.00     0.117 A 
ATOM     23  HN  UNL     1     -47.008 -55.408  14.654  1.00  0.00     0.164 HD
ENDBRANCH   4  17
TORSDOF 5
ENDMDL
MODEL 8
REMARK VINA RESULT:      -5.6      1.874      2.742
REMARK  5 active torsions:
REMARK  status: ('A' for Active; 'I' for Inactive)
REMARK    1  A    between atoms: C_7  and  O_8 
REMARK    2  A    between atoms: O_8  and  C_9 
REMARK    3  A    between atoms: C_9  and  C_10 
REMARK    4  A    between atoms: C_10  and  N_11 
REMARK       I    between atoms: N_11  and  C_12 
REMARK       I    between atoms: C_12  and  N_14 
REMARK    5  A    between atoms: N_14  and  C_15 
ROOT
HETATM    1  N   UNL     1     -39.527 -48.696  12.268  1.00  0.00    -0.341 N 
HETATM    2  C   UNL     1     -40.815 -48.400  11.874  1.00  0.00     0.320 C 
HETATM    3  O   UNL     1     -41.792 -48.901  12.417  1.00  0.00    -0.247 OA
HETATM    4  N   UNL     1     -40.835 -47.545  10.798  1.00  0.00    -0.308 N 
HETATM    5  H   UNL     1     -38.885 -47.915  12.248  1.00  0.00     0.164 HD
HETATM    6  H   UNL     1     -39.975 -47.512  10.264  1.00  0.00     0.170 HD
ENDROOT
BRANCH   1   7
HETATM    7  C   UNL     1     -39.379 -49.577  13.411  1.00  0.00     0.150 C 
BRANCH   7   8
HETATM    8  C   UNL     1     -38.370 -50.687  13.172  1.00  0.00     0.188 C 
BRANCH   8   9
HETATM    9  O   UNL     1     -39.032 -51.803  12.564  1.00  0.00    -0.384 OA
BRANCH   9  10
HETATM   10  C   UNL     1     -40.322 -52.074  13.126  1.00  0.00     0.125 C 
HETATM   11  C   UNL     1     -40.282 -53.156  14.229  1.00  0.00     0.010 C 
HETATM   12  C   UNL     1     -39.548 -54.430  13.786  1.00  0.00     0.012 C 
HETATM   13  C   UNL     1     -41.700 -53.460  14.727  1.00  0.00     0.007 C 
HETATM   14  C   UNL     1     -42.649 -53.855  13.600  1.00  0.00     0.001 C 
HETATM   15  C   UNL     1     -42.660 -52.819  12.478  1.00  0.00     0.002 C 
HETATM   16  C   UNL     1     -41.257 -52.483  11.980  1.00  0.00     0.032 C 
ENDBRANCH   9  10
ENDBRANCH   8   9
ENDBRANCH   7   8
ENDBRANCH   1   7
BRANCH   4  17
HETATM   17  C   UNL     1     -42.005 -47.052  10.183  1.00  0.00     0.051 A 
HETATM   18  C   UNL     1     -42.753 -47.786   9.263  1.00  0.00     0.032 A 
HETATM   19  C   UNL     1     -43.862 -47.207   8.646  1.00  0.00     0.019 A 
HETATM   20  C   UNL     1     -44.197 -45.910   8.985  1.00  0.00     0.088 A 
HETATM   21  N   UNL     1     -43.528 -45.178   9.903  1.00  0.00    -0.373 N 
HETATM   22  C   UNL     1     -42.454 -45.768  10.481  1.00  0.00     0.117 A 
ATOM     23  HN  UNL     1     -43.817 -44.230  10.147  1.00  0.00     0.164 HD
ENDBRANCH   4  17
TORSDOF 5
ENDMDL
MODEL 9
REMARK VINA RESULT:      -5.6      2.415      6.571
REMARK  5 active torsions:
REMARK  status: ('A' for Active; 'I' for Inactive)
REMARK    1  A    between atoms: C_7  and  O_8 
REMARK    2  A    between atoms: O_8  and  C_9 
REMARK    3  A    between atoms: C_9  and  C_10 
REMARK    4  A    between atoms: C_10  and  N_11 
REMARK       I    between atoms: N_11  and  C_12 
REMARK       I    between atoms: C_12  and  N_14 
REMARK    5  A    between atoms: N_14  and  C_15 
ROOT
HETATM    1  N   UNL     1     -41.312 -51.861  11.702  1.00  0.00    -0.341 N 
HETATM    2  C   UNL     1     -42.277 -51.971  12.681  1.00  0.00     0.320 C 
HETATM    3  O   UNL     1     -42.021 -51.803  13.868  1.00  0.00    -0.247 OA
HETATM    4  N   UNL     1     -43.495 -52.334  12.158  1.00  0.00    -0.308 N 
HETATM    5  H   UNL     1     -41.625 -51.433  10.841  1.00  0.00     0.164 HD
HETATM    6  H   UNL     1     -43.453 -52.768  11.243  1.00  0.00     0.170 HD
ENDROOT
BRANCH   1   7
HETATM    7  C   UNL     1     -39.985 -51.463  12.134  1.00  0.00     0.150 C 
BRANCH   7   8
HETATM    8  C   UNL     1     -39.694 -49.997  11.865  1.00  0.00     0.188 C 
BRANCH   8   9
HETATM    9  O   UNL     1     -40.836 -49.395  11.243  1.00  0.00    -0.384 OA
BRANCH   9  10
HETATM   10  C   UNL     1     -41.110 -48.071  11.719  1.00  0.00     0.125 C 
HETATM   11  C   UNL     1     -42.474 -47.529  11.234  1.00  0.00     0.010 C 
HETATM   12  C   UNL     1     -42.662 -47.666   9.716  1.00  0.00     0.012 C 
HETATM   13  C   UNL     1     -42.667 -46.082  11.703  1.00  0.00     0.007 C 
HETATM   14  C   UNL     1     -41.525 -45.165  11.276  1.00  0.00     0.001 C 
HETATM   15  C   UNL     1     -40.167 -45.715  11.704  1.00  0.00     0.002 C 
HETATM   16  C   UNL     1     -39.959 -47.163  11.268  1.00  0.00     0.032 C 
ENDBRANCH   9  10
ENDBRANCH   8   9
ENDBRANCH   7   8
ENDBRANCH   1   7
BRANCH   4  17
HETATM   17  C   UNL     1     -44.675 -52.510  12.910  1.00  0.00     0.051 A 
HETATM   18  C   UNL     1     -45.457 -51.449  13.365  1.00  0.00     0.032 A 
HETATM   19  C   UNL     1     -46.576 -51.697  14.160  1.00  0.00     0.019 A 
HETATM   20  C   UNL     1     -46.886 -53.010  14.461  1.00  0.00     0.088 A 
HETATM   21  N   UNL     1     -46.183 -54.071  14.006  1.00  0.00    -0.373 N 
HETATM   22  C   UNL     1     -45.101 -53.794  13.239  1.00  0.00     0.117 A 
ATOM     23  HN  UNL     1     -46.454 -55.029  14.228  1.00  0.00     0.164 HD
ENDBRANCH   4  17
TORSDOF 5
ENDMDL
