MODEL 1
REMARK VINA RESULT:      -6.1      0.000      0.000
REMARK  4 active torsions:
REMARK  status: ('A' for Active; 'I' for Inactive)
REMARK       I    between atoms: C_2  and  N_3 
REMARK       I    between atoms: C_2  and  N_13 
REMARK    1  A    between atoms: N_3  and  C_4 
REMARK    2  A    between atoms: C_4  and  C_5 
REMARK    3  A    between atoms: N_8  and  C_10 
REMARK    4  A    between atoms: N_13  and  C_14 
ROOT
HETATM    1  O   UNL     1     -44.997 -54.597  12.592  1.00  0.00    -0.247 OA
HETATM    2  C   UNL     1     -44.280 -53.599  12.538  1.00  0.00     0.322 C 
HETATM    3  N   UNL     1     -44.769 -52.329  12.547  1.00  0.00    -0.342 N 
HETATM    4  N   UNL     1     -42.928 -53.748  12.530  1.00  0.00    -0.289 N 
HETATM    5  H   UNL     1     -44.094 -51.577  12.422  1.00  0.00     0.164 HD
HETATM    6  H   UNL     1     -42.591 -54.693  12.628  1.00  0.00     0.172 HD
ENDROOT
BRANCH   3   7
HETATM    7  C   UNL     1     -46.167 -51.997  12.718  1.00  0.00     0.130 C 
BRANCH   7   8
HETATM    8  C   UNL     1     -46.449 -51.487  14.129  1.00  0.00     0.033 C 
HETATM    9  C   UNL     1     -45.217 -50.990  14.882  1.00  0.00     0.038 C 
HETATM   10  C   UNL     1     -45.444 -51.402  16.334  1.00  0.00     0.273 C 
HETATM   11  N   UNL     1     -46.752 -52.072  16.408  1.00  0.00     0.093 N 
HETATM   12  C   UNL     1     -46.997 -52.576  15.044  1.00  0.00     0.279 C 
BRANCH  11  13
HETATM   13  C   UNL     1     -47.834 -51.196  16.895  1.00  0.00     0.223 A 
HETATM   14  C   UNL     1     -47.566 -50.179  17.971  1.00  0.00     0.038 A 
HETATM   15  C   UNL     1     -48.330 -51.425  18.299  1.00  0.00     0.038 A 
ENDBRANCH  11  13
ENDBRANCH   7   8
ENDBRANCH   3   7
BRANCH   4  16
HETATM   16  C   UNL     1     -42.015 -52.740  12.459  1.00  0.00     0.152 A 
HETATM   17  N   UNL     1     -41.448 -52.235  11.387  1.00  0.00    -0.346 N 
HETATM   18  C   UNL     1     -40.588 -51.225  11.770  1.00  0.00     0.097 A 
ATOM     19  HN  UNL     1     -41.615 -52.540  10.428  1.00  0.00     0.167 HD
HETATM   20  C   UNL     1     -40.555 -50.952  13.121  1.00  0.00     0.070 A 
HETATM   21  S   UNL     1     -41.580 -52.049  13.955  1.00  0.00    -0.064 SA
ENDBRANCH   4  16
TORSDOF 4
ENDMDL
MODEL 2
REMARK VINA RESULT:      -5.7      3.248      4.609
REMARK  4 active torsions:
REMARK  status: ('A' for Active; 'I' for Inactive)
REMARK       I    between atoms: C_2  and  N_3 
REMARK       I    between atoms: C_2  and  N_13 
REMARK    1  A    between atoms: N_3  and  C_4 
REMARK    2  A    between atoms: C_4  and  C_5 
REMARK    3  A    between atoms: N_8  and  C_10 
REMARK    4  A    between atoms: N_13  and  C_14 
ROOT
HETATM    1  O   UNL     1     -39.316 -50.540  11.949  1.00  0.00    -0.247 OA
HETATM    2  C   UNL     1     -40.403 -50.150  11.527  1.00  0.00     0.322 C 
HETATM    3  N   UNL     1     -41.532 -50.910  11.562  1.00  0.00    -0.342 N 
HETATM    4  N   UNL     1     -40.519 -48.879  11.055  1.00  0.00    -0.289 N 
HETATM    5  H   UNL     1     -42.360 -50.519  11.118  1.00  0.00     0.164 HD
HETATM    6  H   UNL     1     -39.695 -48.305  11.135  1.00  0.00     0.172 HD
ENDROOT
BRANCH   3   7
HETATM    7  C   UNL     1     -41.614 -52.215  12.180  1.00  0.00     0.130 C 
BRANCH   7   8
HETATM    8  C   UNL     1     -42.915 -52.378  12.962  1.00  0.00     0.033 C 
HETATM    9  C   UNL     1     -43.905 -53.366  12.349  1.00  0.00     0.038 C 
HETATM   10  C   UNL     1     -45.283 -52.766  12.615  1.00  0.00     0.273 C 
HETATM   11  N   UNL     1     -45.088 -51.517  13.367  1.00  0.00     0.093 N 
HETATM   12  C   UNL     1     -43.718 -51.085  13.035  1.00  0.00     0.279 C 
BRANCH  11  13
HETATM   13  C   UNL     1     -45.302 -51.666  14.819  1.00  0.00     0.223 A 
HETATM   14  C   UNL     1     -46.250 -52.709  15.347  1.00  0.00     0.038 A 
HETATM   15  C   UNL     1     -46.648 -51.265  15.364  1.00  0.00     0.038 A 
ENDBRANCH  11  13
ENDBRANCH   7   8
ENDBRANCH   3   7
BRANCH   4  16
HETATM   16  C   UNL     1     -41.651 -48.318  10.545  1.00  0.00     0.152 A 
HETATM   17  N   UNL     1     -42.040 -48.274   9.292  1.00  0.00    -0.346 N 
HETATM   18  C   UNL     1     -43.250 -47.613   9.222  1.00  0.00     0.097 A 
ATOM     19  HN  UNL     1     -41.531 -48.664   8.498  1.00  0.00     0.167 HD
HETATM   20  C   UNL     1     -43.779 -47.211  10.431  1.00  0.00     0.070 A 
HETATM   21  S   UNL     1     -42.686 -47.604  11.696  1.00  0.00    -0.064 SA
ENDBRANCH   4  16
TORSDOF 4
ENDMDL
MODEL 3
REMARK VINA RESULT:      -5.3      3.870      6.395
REMARK  4 active torsions:
REMARK  status: ('A' for Active; 'I' for Inactive)
REMARK       I    between atoms: C_2  and  N_3 
REMARK       I    between atoms: C_2  and  N_13 
REMARK    1  A    between atoms: N_3  and  C_4 
REMARK    2  A    between atoms: C_4  and  C_5 
REMARK    3  A    between atoms: N_8  and  C_10 
REMARK    4  A    between atoms: N_13  and  C_14 
ROOT
HETATM    1  O   UNL     1     -39.091 -51.689  12.607  1.00  0.00    -0.247 OA
HETATM    2  C   UNL     1     -40.317 -51.614  12.561  1.00  0.00     0.322 C 
HETATM    3  N   UNL     1     -40.981 -50.517  12.102  1.00  0.00    -0.342 N 
HETATM    4  N   UNL     1     -41.066 -52.691  12.924  1.00  0.00    -0.289 N 
HETATM    5  H   UNL     1     -41.995 -50.531  12.178  1.00  0.00     0.164 HD
HETATM    6  H   UNL     1     -40.550 -53.523  13.162  1.00  0.00     0.172 HD
ENDROOT
BRANCH   3   7
HETATM    7  C   UNL     1     -40.333 -49.358  11.527  1.00  0.00     0.130 C 
BRANCH   7   8
HETATM    8  C   UNL     1     -41.335 -48.466  10.800  1.00  0.00     0.033 C 
HETATM    9  C   UNL     1     -41.014 -46.974  10.854  1.00  0.00     0.038 C 
HETATM   10  C   UNL     1     -42.368 -46.278  10.958  1.00  0.00     0.273 C 
HETATM   11  N   UNL     1     -43.408 -47.319  10.934  1.00  0.00     0.093 N 
HETATM   12  C   UNL     1     -42.731 -48.541  11.407  1.00  0.00     0.279 C 
BRANCH  11  13
HETATM   13  C   UNL     1     -44.035 -47.492   9.610  1.00  0.00     0.223 A 
HETATM   14  C   UNL     1     -44.638 -46.314   8.892  1.00  0.00     0.038 A 
HETATM   15  C   UNL     1     -45.532 -47.335   9.528  1.00  0.00     0.038 A 
ENDBRANCH  11  13
ENDBRANCH   7   8
ENDBRANCH   3   7
BRANCH   4  16
HETATM   16  C   UNL     1     -42.428 -52.747  12.938  1.00  0.00     0.152 A 
HETATM   17  N   UNL     1     -43.237 -53.002  11.936  1.00  0.00    -0.346 N 
HETATM   18  C   UNL     1     -44.539 -52.964  12.393  1.00  0.00     0.097 A 
ATOM     19  HN  UNL     1     -42.951 -53.197  10.976  1.00  0.00     0.167 HD
HETATM   20  C   UNL     1     -44.689 -52.727  13.744  1.00  0.00     0.070 A 
HETATM   21  S   UNL     1     -43.149 -52.467  14.456  1.00  0.00    -0.064 SA
ENDBRANCH   4  16
TORSDOF 4
ENDMDL
MODEL 4
REMARK VINA RESULT:      -5.2      2.672      4.186
REMARK  4 active torsions:
REMARK  status: ('A' for Active; 'I' for Inactive)
REMARK       I    between atoms: C_2  and  N_3 
REMARK       I    between atoms: C_2  and  N_13 
REMARK    1  A    between atoms: N_3  and  C_4 
REMARK    2  A    between atoms: C_4  and  C_5 
REMARK    3  A    between atoms: N_8  and  C_10 
REMARK    4  A    between atoms: N_13  and  C_14 
ROOT
HETATM    1  O   UNL     1     -38.746 -52.555  13.398  1.00  0.00    -0.247 OA
HETATM    2  C   UNL     1     -39.618 -51.877  12.860  1.00  0.00     0.322 C 
HETATM    3  N   UNL     1     -40.888 -52.324  12.652  1.00  0.00    -0.342 N 
HETATM    4  N   UNL     1     -39.341 -50.593  12.504  1.00  0.00    -0.289 N 
HETATM    5  H   UNL     1     -41.509 -51.709  12.131  1.00  0.00     0.164 HD
HETATM    6  H   UNL     1     -38.428 -50.255  12.762  1.00  0.00     0.172 HD
ENDROOT
BRANCH   3   7
HETATM    7  C   UNL     1     -41.388 -53.598  13.120  1.00  0.00     0.130 C 
BRANCH   7   8
HETATM    8  C   UNL     1     -42.753 -53.450  13.784  1.00  0.00     0.033 C 
HETATM    9  C   UNL     1     -43.351 -54.754  14.309  1.00  0.00     0.038 C 
HETATM   10  C   UNL     1     -44.851 -54.634  14.059  1.00  0.00     0.273 C 
HETATM   11  N   UNL     1     -45.099 -53.317  13.451  1.00  0.00     0.093 N 
HETATM   12  C   UNL     1     -43.820 -52.945  12.819  1.00  0.00     0.279 C 
BRANCH  11  13
HETATM   13  C   UNL     1     -45.573 -52.306  14.415  1.00  0.00     0.223 A 
HETATM   14  C   UNL     1     -46.915 -52.454  15.078  1.00  0.00     0.038 A 
HETATM   15  C   UNL     1     -46.730 -51.437  13.994  1.00  0.00     0.038 A 
ENDBRANCH  11  13
ENDBRANCH   7   8
ENDBRANCH   3   7
BRANCH   4  16
HETATM   16  C   UNL     1     -40.201 -49.733  11.890  1.00  0.00     0.152 A 
HETATM   17  N   UNL     1     -40.534 -49.689  10.621  1.00  0.00    -0.346 N 
HETATM   18  C   UNL     1     -41.438 -48.663  10.431  1.00  0.00     0.097 A 
ATOM     19  HN  UNL     1     -40.183 -50.313   9.893  1.00  0.00     0.167 HD
HETATM   20  C   UNL     1     -41.808 -47.978  11.570  1.00  0.00     0.070 A 
HETATM   21  S   UNL     1     -40.937 -48.589  12.917  1.00  0.00    -0.064 SA
ENDBRANCH   4  16
TORSDOF 4
ENDMDL
MODEL 5
REMARK VINA RESULT:      -5.2      2.917      4.526
REMARK  4 active torsions:
REMARK  status: ('A' for Active; 'I' for Inactive)
REMARK       I    between atoms: C_2  and  N_3 
REMARK       I    between atoms: C_2  and  N_13 
REMARK    1  A    between atoms: N_3  and  C_4 
REMARK    2  A    between atoms: C_4  and  C_5 
REMARK    3  A    between atoms: N_8  and  C_10 
REMARK    4  A    between atoms: N_13  and  C_14 
ROOT
HETATM    1  O   UNL     1     -39.654 -53.509  15.508  1.00  0.00    -0.247 OA
HETATM    2  C   UNL     1     -39.514 -52.847  14.482  1.00  0.00     0.322 C 
HETATM    3  N   UNL     1     -40.179 -53.114  13.324  1.00  0.00    -0.342 N 
HETATM    4  N   UNL     1     -38.707 -51.751  14.500  1.00  0.00    -0.289 N 
HETATM    5  H   UNL     1     -39.933 -52.551  12.514  1.00  0.00     0.164 HD
HETATM    6  H   UNL     1     -38.308 -51.516  15.395  1.00  0.00     0.172 HD
ENDROOT
BRANCH   3   7
HETATM    7  C   UNL     1     -41.193 -54.138  13.188  1.00  0.00     0.130 C 
BRANCH   7   8
HETATM    8  C   UNL     1     -42.571 -53.609  13.573  1.00  0.00     0.033 C 
HETATM    9  C   UNL     1     -43.349 -54.504  14.536  1.00  0.00     0.038 C 
HETATM   10  C   UNL     1     -44.806 -54.389  14.099  1.00  0.00     0.273 C 
HETATM   11  N   UNL     1     -44.859 -53.453  12.964  1.00  0.00     0.093 N 
HETATM   12  C   UNL     1     -43.507 -53.494  12.376  1.00  0.00     0.279 C 
BRANCH  11  13
HETATM   13  C   UNL     1     -45.272 -52.089  13.347  1.00  0.00     0.223 A 
HETATM   14  C   UNL     1     -46.532 -51.868  14.140  1.00  0.00     0.038 A 
HETATM   15  C   UNL     1     -46.501 -51.526  12.682  1.00  0.00     0.038 A 
ENDBRANCH  11  13
ENDBRANCH   7   8
ENDBRANCH   3   7
BRANCH   4  16
HETATM   16  C   UNL     1     -38.447 -50.935  13.440  1.00  0.00     0.152 A 
HETATM   17  N   UNL     1     -37.497 -51.052  12.542  1.00  0.00    -0.346 N 
HETATM   18  C   UNL     1     -37.600 -50.009  11.644  1.00  0.00     0.097 A 
ATOM     19  HN  UNL     1     -36.796 -51.793  12.512  1.00  0.00     0.167 HD
HETATM   20  C   UNL     1     -38.656 -49.146  11.852  1.00  0.00     0.070 A 
HETATM   21  S   UNL     1     -39.508 -49.612  13.268  1.00  0.00    -0.064 SA
ENDBRANCH   4  16
TORSDOF 4
ENDMDL
MODEL 6
REMARK VINA RESULT:      -5.1      5.116      7.644
REMARK  4 active torsions:
REMARK  status: ('A' for Active; 'I' for Inactive)
REMARK       I    between atoms: C_2  and  N_3 
REMARK       I    between atoms: C_2  and  N_13 
REMARK    1  A    between atoms: N_3  and  C_4 
REMARK    2  A    between atoms: C_4  and  C_5 
REMARK    3  A    between atoms: N_8  and  C_10 
REMARK    4  A    between atoms: N_13  and  C_14 
ROOT
HETATM    1  O   UNL     1     -41.001 -49.046  10.710  1.00  0.00    -0.247 OA
HETATM    2  C   UNL     1     -40.693 -50.083  11.293  1.00  0.00     0.322 C 
HETATM    3  N   UNL     1     -39.432 -50.345  11.735  1.00  0.00    -0.342 N 
HETATM    4  N   UNL     1     -41.657 -51.001  11.576  1.00  0.00    -0.289 N 
HETATM    5  H   UNL     1     -39.270 -51.265  12.138  1.00  0.00     0.164 HD
HETATM    6  H   UNL     1     -42.598 -50.737  11.330  1.00  0.00     0.172 HD
ENDROOT
BRANCH   3   7
HETATM    7  C   UNL     1     -38.334 -49.405  11.661  1.00  0.00     0.130 C 
BRANCH   7   8
HETATM    8  C   UNL     1     -37.603 -49.300  12.996  1.00  0.00     0.033 C 
HETATM    9  C   UNL     1     -37.452 -50.622  13.745  1.00  0.00     0.038 C 
HETATM   10  C   UNL     1     -37.599 -50.264  15.221  1.00  0.00     0.273 C 
HETATM   11  N   UNL     1     -37.793 -48.808  15.310  1.00  0.00     0.093 N 
HETATM   12  C   UNL     1     -38.341 -48.419  13.997  1.00  0.00     0.279 C 
BRANCH  11  13
HETATM   13  C   UNL     1     -36.563 -48.072  15.654  1.00  0.00     0.223 A 
HETATM   14  C   UNL     1     -35.566 -48.659  16.616  1.00  0.00     0.038 A 
HETATM   15  C   UNL     1     -36.449 -47.532  17.057  1.00  0.00     0.038 A 
ENDBRANCH  11  13
ENDBRANCH   7   8
ENDBRANCH   3   7
BRANCH   4  16
HETATM   16  C   UNL     1     -41.463 -52.196  12.201  1.00  0.00     0.152 A 
HETATM   17  N   UNL     1     -40.957 -53.299  11.699  1.00  0.00    -0.346 N 
HETATM   18  C   UNL     1     -40.938 -54.269  12.682  1.00  0.00     0.097 A 
ATOM     19  HN  UNL     1     -40.632 -53.420  10.740  1.00  0.00     0.167 HD
HETATM   20  C   UNL     1     -41.386 -53.867  13.923  1.00  0.00     0.070 A 
HETATM   21  S   UNL     1     -41.923 -52.238  13.841  1.00  0.00    -0.064 SA
ENDBRANCH   4  16
TORSDOF 4
ENDMDL
MODEL 7
REMARK VINA RESULT:      -5.0      1.767      2.205
REMARK  4 active torsions:
REMARK  status: ('A' for Active; 'I' for Inactive)
REMARK       I    between atoms: C_2  and  N_3 
REMARK       I    between atoms: C_2  and  N_13 
REMARK    1  A    between atoms: N_3  and  C_4 
REMARK    2  A    between atoms: C_4  and  C_5 
REMARK    3  A    between atoms: N_8  and  C_10 
REMARK    4  A    between atoms: N_13  and  C_14 
ROOT
HETATM    1  O   UNL     1     -45.352 -53.060  11.888  1.00  0.00    -0.247 OA
HETATM    2  C   UNL     1     -44.355 -53.388  12.528  1.00  0.00     0.322 C 
HETATM    3  N   UNL     1     -44.404 -54.205  13.616  1.00  0.00    -0.342 N 
HETATM    4  N   UNL     1     -43.128 -52.978  12.109  1.00  0.00    -0.289 N 
HETATM    5  H   UNL     1     -43.530 -54.353  14.117  1.00  0.00     0.164 HD
HETATM    6  H   UNL     1     -43.110 -52.461  11.244  1.00  0.00     0.172 HD
ENDROOT
BRANCH   3   7
HETATM    7  C   UNL     1     -45.606 -54.857  14.090  1.00  0.00     0.130 C 
BRANCH   7   8
HETATM    8  C   UNL     1     -46.185 -54.138  15.305  1.00  0.00     0.033 C 
HETATM    9  C   UNL     1     -47.053 -52.926  14.973  1.00  0.00     0.038 C 
HETATM   10  C   UNL     1     -46.763 -51.913  16.076  1.00  0.00     0.273 C 
HETATM   11  N   UNL     1     -45.803 -52.529  17.006  1.00  0.00     0.093 N 
HETATM   12  C   UNL     1     -45.104 -53.552  16.207  1.00  0.00     0.279 C 
BRANCH  11  13
HETATM   13  C   UNL     1     -46.433 -53.085  18.218  1.00  0.00     0.223 A 
HETATM   14  C   UNL     1     -47.461 -52.290  18.977  1.00  0.00     0.038 A 
HETATM   15  C   UNL     1     -46.080 -52.447  19.537  1.00  0.00     0.038 A 
ENDBRANCH  11  13
ENDBRANCH   7   8
ENDBRANCH   3   7
BRANCH   4  16
HETATM   16  C   UNL     1     -41.942 -53.252  12.723  1.00  0.00     0.152 A 
HETATM   17  N   UNL     1     -41.162 -54.294  12.548  1.00  0.00    -0.346 N 
HETATM   18  C   UNL     1     -40.059 -54.168  13.369  1.00  0.00     0.097 A 
ATOM     19  HN  UNL     1     -41.341 -55.069  11.910  1.00  0.00     0.167 HD
HETATM   20  C   UNL     1     -40.002 -53.010  14.115  1.00  0.00     0.070 A 
HETATM   21  S   UNL     1     -41.416 -52.077  13.839  1.00  0.00    -0.064 SA
ENDBRANCH   4  16
TORSDOF 4
ENDMDL
MODEL 8
REMARK VINA RESULT:      -4.9      3.674      4.949
REMARK  4 active torsions:
REMARK  status: ('A' for Active; 'I' for Inactive)
REMARK       I    between atoms: C_2  and  N_3 
REMARK       I    between atoms: C_2  and  N_13 
REMARK    1  A    between atoms: N_3  and  C_4 
REMARK    2  A    between atoms: C_4  and  C_5 
REMARK    3  A    between atoms: N_8  and  C_10 
REMARK    4  A    between atoms: N_13  and  C_14 
ROOT
HETATM    1  O   UNL     1     -40.218 -50.729  11.724  1.00  0.00    -0.247 OA
HETATM    2  C   UNL     1     -41.041 -49.823  11.606  1.00  0.00     0.322 C 
HETATM    3  N   UNL     1     -41.948 -49.510  12.571  1.00  0.00    -0.342 N 
HETATM    4  N   UNL     1     -41.019 -49.042  10.492  1.00  0.00    -0.289 N 
HETATM    5  H   UNL     1     -42.632 -48.792  12.341  1.00  0.00     0.164 HD
HETATM    6  H   UNL     1     -40.273 -49.229   9.841  1.00  0.00     0.172 HD
ENDROOT
BRANCH   3   7
HETATM    7  C   UNL     1     -41.994 -50.132  13.877  1.00  0.00     0.130 C 
BRANCH   7   8
HETATM    8  C   UNL     1     -43.176 -51.090  13.994  1.00  0.00     0.033 C 
HETATM    9  C   UNL     1     -44.143 -50.770  15.132  1.00  0.00     0.038 C 
HETATM   10  C   UNL     1     -44.600 -52.126  15.661  1.00  0.00     0.273 C 
HETATM   11  N   UNL     1     -43.950 -53.165  14.846  1.00  0.00     0.093 N 
HETATM   12  C   UNL     1     -42.742 -52.518  14.302  1.00  0.00     0.279 C 
BRANCH  11  13
HETATM   13  C   UNL     1     -44.824 -53.717  13.794  1.00  0.00     0.223 A 
HETATM   14  C   UNL     1     -46.265 -54.035  14.087  1.00  0.00     0.038 A 
HETATM   15  C   UNL     1     -45.272 -55.148  13.947  1.00  0.00     0.038 A 
ENDBRANCH  11  13
ENDBRANCH   7   8
ENDBRANCH   3   7
BRANCH   4  16
HETATM   16  C   UNL     1     -41.873 -48.016  10.220  1.00  0.00     0.152 A 
HETATM   17  N   UNL     1     -43.053 -48.075   9.646  1.00  0.00    -0.346 N 
HETATM   18  C   UNL     1     -43.577 -46.800   9.571  1.00  0.00     0.097 A 
ATOM     19  HN  UNL     1     -43.508 -48.924   9.310  1.00  0.00     0.167 HD
HETATM   20  C   UNL     1     -42.805 -45.805  10.133  1.00  0.00     0.070 A 
HETATM   21  S   UNL     1     -41.333 -46.476  10.709  1.00  0.00    -0.064 SA
ENDBRANCH   4  16
TORSDOF 4
ENDMDL
MODEL 9
REMARK VINA RESULT:      -4.9      3.476      6.834
REMARK  4 active torsions:
REMARK  status: ('A' for Active; 'I' for Inactive)
REMARK       I    between atoms: C_2  and  N_3 
REMARK       I    between atoms: C_2  and  N_13 
REMARK    1  A    between atoms: N_3  and  C_4 
REMARK    2  A    between atoms: C_4  and  C_5 
REMARK    3  A    between atoms: N_8  and  C_10 
REMARK    4  A    between atoms: N_13  and  C_14 
ROOT
HETATM    1  O   UNL     1     -40.664 -53.089  11.904  1.00  0.00    -0.247 OA
HETATM    2  C   UNL     1     -41.695 -52.457  12.123  1.00  0.00     0.322 C 
HETATM    3  N   UNL     1     -41.811 -51.119  11.898  1.00  0.00    -0.342 N 
HETATM    4  N   UNL     1     -42.804 -53.117  12.554  1.00  0.00    -0.289 N 
HETATM    5  H   UNL     1     -42.684 -50.681  12.184  1.00  0.00     0.164 HD
HETATM    6  H   UNL     1     -42.721 -54.120  12.614  1.00  0.00     0.172 HD
ENDROOT
BRANCH   3   7
HETATM    7  C   UNL     1     -40.782 -50.305  11.289  1.00  0.00     0.130 C 
BRANCH   7   8
HETATM    8  C   UNL     1     -40.902 -48.845  11.716  1.00  0.00     0.033 C 
HETATM    9  C   UNL     1     -41.683 -47.961  10.746  1.00  0.00     0.038 C 
HETATM   10  C   UNL     1     -40.974 -46.610  10.779  1.00  0.00     0.273 C 
HETATM   11  N   UNL     1     -39.867 -46.711  11.743  1.00  0.00     0.093 N 
HETATM   12  C   UNL     1     -39.549 -48.150  11.806  1.00  0.00     0.279 C 
BRANCH  11  13
HETATM   13  C   UNL     1     -40.185 -46.140  13.065  1.00  0.00     0.223 A 
HETATM   14  C   UNL     1     -40.767 -44.757  13.179  1.00  0.00     0.038 A 
HETATM   15  C   UNL     1     -39.334 -44.993  13.546  1.00  0.00     0.038 A 
ENDBRANCH  11  13
ENDBRANCH   7   8
ENDBRANCH   3   7
BRANCH   4  16
HETATM   16  C   UNL     1     -44.006 -52.548  12.849  1.00  0.00     0.152 A 
HETATM   17  N   UNL     1     -45.070 -52.460  12.084  1.00  0.00    -0.346 N 
HETATM   18  C   UNL     1     -46.069 -51.810  12.781  1.00  0.00     0.097 A 
ATOM     19  HN  UNL     1     -45.146 -52.814  11.130  1.00  0.00     0.167 HD
HETATM   20  C   UNL     1     -45.758 -51.460  14.079  1.00  0.00     0.070 A 
HETATM   21  S   UNL     1     -44.130 -51.891  14.416  1.00  0.00    -0.064 SA
ENDBRANCH   4  16
TORSDOF 4
ENDMDL
