MODEL 1
REMARK VINA RESULT:      -6.3      0.000      0.000
REMARK  6 active torsions:
REMARK  status: ('A' for Active; 'I' for Inactive)
REMARK    1  A    between atoms: C_2  and  C_3 
REMARK    2  A    between atoms: C_3  and  C_5 
REMARK    3  A    between atoms: C_3  and  N_20 
REMARK    4  A    between atoms: C_5  and  N_6 
REMARK       I    between atoms: N_6  and  C_7 
REMARK    5  A    between atoms: C_7  and  C_9 
REMARK    6  A    between atoms: C_9  and  C_10 
ROOT
HETATM    1  N   UNL     1     -43.180 -52.703  12.209  1.00  0.00    -0.358 N 
HETATM    2  C   UNL     1     -43.431 -53.672  13.144  1.00  0.00     0.222 C 
HETATM    3  O   UNL     1     -42.583 -54.119  13.910  1.00  0.00    -0.273 OA
HETATM    4  H   UNL     1     -43.970 -52.203  11.810  1.00  0.00     0.162 HD
ENDROOT
BRANCH   2   5
HETATM    5  C   UNL     1     -44.847 -54.199  13.099  1.00  0.00     0.149 C 
BRANCH   5   6
HETATM    6  C   UNL     1     -45.648 -53.343  14.011  1.00  0.00     0.041 A 
HETATM    7  C   UNL     1     -46.360 -52.252  13.671  1.00  0.00     0.018 A 
HETATM    8  C   UNL     1     -46.490 -51.765  12.247  1.00  0.00     0.069 C 
HETATM    9  N   UNL     1     -47.063 -51.497  14.581  1.00  0.00    -0.349 N 
HETATM   10  C   UNL     1     -47.047 -51.872  15.816  1.00  0.00     0.080 A 
ATOM     11  HN  UNL     1     -47.582 -50.669  14.289  1.00  0.00     0.167 HD
HETATM   12  C   UNL     1     -47.779 -51.087  16.860  1.00  0.00     0.089 C 
HETATM   13  N   UNL     1     -46.386 -52.975  16.266  1.00  0.00    -0.313 N 
HETATM   14  C   UNL     1     -45.698 -53.787  15.423  1.00  0.00     0.255 A 
HETATM   15  H   UNL     1     -46.435 -53.260  17.232  1.00  0.00     0.170 HD
HETATM   16  O   UNL     1     -45.163 -54.825  15.798  1.00  0.00    -0.268 OA
ENDBRANCH   5   6
ENDBRANCH   2   5
BRANCH   1  17
HETATM   17  C   UNL     1     -41.839 -52.235  11.928  1.00  0.00     0.164 C 
BRANCH  17  18
HETATM   18  C   UNL     1     -41.523 -50.799  12.499  1.00  0.00     0.171 C 
HETATM   19  C   UNL     1     -40.726 -50.993  13.810  1.00  0.00     0.051 C 
BRANCH  18  20
HETATM   20  C   UNL     1     -42.856 -50.013  12.806  1.00  0.00     0.038 C 
HETATM   21  C   UNL     1     -43.387 -49.881  14.231  1.00  0.00     0.007 C 
ENDBRANCH  18  20
BRANCH  18  22
HETATM   22  N   UNL     1     -40.769 -50.051  11.428  1.00  0.00     0.103 N 
HETATM   23  C   UNL     1     -39.312 -49.862  11.596  1.00  0.00     0.299 C 
HETATM   24  C   UNL     1     -38.908 -48.610  12.397  1.00  0.00     0.198 C 
HETATM   25  O   UNL     1     -39.519 -47.416  11.897  1.00  0.00    -0.388 OA
HETATM   26  C   UNL     1     -40.941 -47.554  11.783  1.00  0.00     0.198 C 
HETATM   27  C   UNL     1     -41.309 -48.770  10.923  1.00  0.00     0.299 C 
ENDBRANCH  18  22
ENDBRANCH  17  18
ENDBRANCH   1  17
TORSDOF 6
ENDMDL
MODEL 2
REMARK VINA RESULT:      -6.0      1.305      2.197
REMARK  6 active torsions:
REMARK  status: ('A' for Active; 'I' for Inactive)
REMARK    1  A    between atoms: C_2  and  C_3 
REMARK    2  A    between atoms: C_3  and  C_5 
REMARK    3  A    between atoms: C_3  and  N_20 
REMARK    4  A    between atoms: C_5  and  N_6 
REMARK       I    between atoms: N_6  and  C_7 
REMARK    5  A    between atoms: C_7  and  C_9 
REMARK    6  A    between atoms: C_9  and  C_10 
ROOT
HETATM    1  N   UNL     1     -43.181 -52.295  12.365  1.00  0.00    -0.358 N 
HETATM    2  C   UNL     1     -43.380 -53.500  12.986  1.00  0.00     0.222 C 
HETATM    3  O   UNL     1     -42.486 -54.150  13.519  1.00  0.00    -0.273 OA
HETATM    4  H   UNL     1     -43.989 -51.703  12.192  1.00  0.00     0.162 HD
ENDROOT
BRANCH   2   5
HETATM    5  C   UNL     1     -44.804 -53.997  12.894  1.00  0.00     0.149 C 
BRANCH   5   6
HETATM    6  C   UNL     1     -45.594 -53.210  13.876  1.00  0.00     0.041 A 
HETATM    7  C   UNL     1     -46.365 -52.138  13.612  1.00  0.00     0.018 A 
HETATM    8  C   UNL     1     -46.586 -51.605  12.216  1.00  0.00     0.069 C 
HETATM    9  N   UNL     1     -47.053 -51.448  14.583  1.00  0.00    -0.349 N 
HETATM   10  C   UNL     1     -46.960 -51.866  15.800  1.00  0.00     0.080 A 
ATOM     11  HN  UNL     1     -47.618 -50.633  14.349  1.00  0.00     0.167 HD
HETATM   12  C   UNL     1     -47.671 -51.153  16.908  1.00  0.00     0.089 C 
HETATM   13  N   UNL     1     -46.233 -52.956  16.176  1.00  0.00    -0.313 N 
HETATM   14  C   UNL     1     -45.555 -53.707  15.269  1.00  0.00     0.255 A 
HETATM   15  H   UNL     1     -46.223 -53.278  17.131  1.00  0.00     0.170 HD
HETATM   16  O   UNL     1     -44.961 -54.734  15.578  1.00  0.00    -0.268 OA
ENDBRANCH   5   6
ENDBRANCH   2   5
BRANCH   1  17
HETATM   17  C   UNL     1     -41.857 -51.758  12.135  1.00  0.00     0.164 C 
BRANCH  17  18
HETATM   18  C   UNL     1     -41.689 -50.248  12.558  1.00  0.00     0.171 C 
HETATM   19  C   UNL     1     -43.052 -49.775  13.114  1.00  0.00     0.051 C 
BRANCH  18  20
HETATM   20  C   UNL     1     -41.291 -49.360  11.317  1.00  0.00     0.038 C 
HETATM   21  C   UNL     1     -42.194 -48.230  10.829  1.00  0.00     0.007 C 
ENDBRANCH  18  20
BRANCH  18  22
HETATM   22  N   UNL     1     -40.563 -50.190  13.561  1.00  0.00     0.103 N 
HETATM   23  C   UNL     1     -39.245 -49.695  13.109  1.00  0.00     0.299 C 
HETATM   24  C   UNL     1     -38.318 -50.771  12.512  1.00  0.00     0.198 C 
HETATM   25  O   UNL     1     -38.166 -51.905  13.371  1.00  0.00    -0.388 OA
HETATM   26  C   UNL     1     -39.432 -52.440  13.773  1.00  0.00     0.198 C 
HETATM   27  C   UNL     1     -40.305 -51.361  14.426  1.00  0.00     0.299 C 
ENDBRANCH  18  22
ENDBRANCH  17  18
ENDBRANCH   1  17
TORSDOF 6
ENDMDL
MODEL 3
REMARK VINA RESULT:      -5.9      1.812      7.253
REMARK  6 active torsions:
REMARK  status: ('A' for Active; 'I' for Inactive)
REMARK    1  A    between atoms: C_2  and  C_3 
REMARK    2  A    between atoms: C_3  and  C_5 
REMARK    3  A    between atoms: C_3  and  N_20 
REMARK    4  A    between atoms: C_5  and  N_6 
REMARK       I    between atoms: N_6  and  C_7 
REMARK    5  A    between atoms: C_7  and  C_9 
REMARK    6  A    between atoms: C_9  and  C_10 
ROOT
HETATM    1  N   UNL     1     -43.694 -50.332  13.948  1.00  0.00    -0.358 N 
HETATM    2  C   UNL     1     -43.103 -49.139  13.624  1.00  0.00     0.222 C 
HETATM    3  O   UNL     1     -42.836 -48.264  14.441  1.00  0.00    -0.273 OA
HETATM    4  H   UNL     1     -43.635 -51.096  13.280  1.00  0.00     0.162 HD
ENDROOT
BRANCH   2   5
HETATM    5  C   UNL     1     -42.870 -48.966  12.141  1.00  0.00     0.149 C 
BRANCH   5   6
HETATM    6  C   UNL     1     -41.413 -49.150  11.915  1.00  0.00     0.041 A 
HETATM    7  C   UNL     1     -40.486 -48.179  11.815  1.00  0.00     0.018 A 
HETATM    8  C   UNL     1     -40.808 -46.713  11.983  1.00  0.00     0.069 C 
HETATM    9  N   UNL     1     -39.154 -48.430  11.585  1.00  0.00    -0.349 N 
HETATM   10  C   UNL     1     -38.781 -49.661  11.477  1.00  0.00     0.080 A 
ATOM     11  HN  UNL     1     -38.481 -47.668  11.502  1.00  0.00     0.167 HD
HETATM   12  C   UNL     1     -37.348 -50.004  11.211  1.00  0.00     0.089 C 
HETATM   13  N   UNL     1     -39.628 -50.723  11.591  1.00  0.00    -0.313 N 
HETATM   14  C   UNL     1     -40.950 -50.555  11.851  1.00  0.00     0.255 A 
HETATM   15  H   UNL     1     -39.291 -51.671  11.546  1.00  0.00     0.170 HD
HETATM   16  O   UNL     1     -41.711 -51.499  12.034  1.00  0.00    -0.268 OA
ENDBRANCH   5   6
ENDBRANCH   2   5
BRANCH   1  17
HETATM   17  C   UNL     1     -44.213 -50.598  15.273  1.00  0.00     0.164 C 
BRANCH  17  18
HETATM   18  C   UNL     1     -45.481 -51.537  15.294  1.00  0.00     0.171 C 
HETATM   19  C   UNL     1     -46.110 -51.487  13.883  1.00  0.00     0.051 C 
BRANCH  18  20
HETATM   20  C   UNL     1     -46.533 -51.032  16.356  1.00  0.00     0.038 C 
HETATM   21  C   UNL     1     -46.100 -50.223  17.576  1.00  0.00     0.007 C 
ENDBRANCH  18  20
BRANCH  18  22
HETATM   22  N   UNL     1     -45.011 -52.908  15.710  1.00  0.00     0.103 N 
HETATM   23  C   UNL     1     -43.944 -53.555  14.917  1.00  0.00     0.299 C 
HETATM   24  C   UNL     1     -44.438 -54.370  13.707  1.00  0.00     0.198 C 
HETATM   25  O   UNL     1     -45.453 -55.317  14.057  1.00  0.00    -0.388 OA
HETATM   26  C   UNL     1     -46.528 -54.700  14.774  1.00  0.00     0.198 C 
HETATM   27  C   UNL     1     -46.011 -53.955  16.011  1.00  0.00     0.299 C 
ENDBRANCH  18  22
ENDBRANCH  17  18
ENDBRANCH   1  17
TORSDOF 6
ENDMDL
MODEL 4
REMARK VINA RESULT:      -5.8      2.469      7.175
REMARK  6 active torsions:
REMARK  status: ('A' for Active; 'I' for Inactive)
REMARK    1  A    between atoms: C_2  and  C_3 
REMARK    2  A    between atoms: C_3  and  C_5 
REMARK    3  A    between atoms: C_3  and  N_20 
REMARK    4  A    between atoms: C_5  and  N_6 
REMARK       I    between atoms: N_6  and  C_7 
REMARK    5  A    between atoms: C_7  and  C_9 
REMARK    6  A    between atoms: C_9  and  C_10 
ROOT
HETATM    1  N   UNL     1     -43.451 -50.348  12.591  1.00  0.00    -0.358 N 
HETATM    2  C   UNL     1     -42.168 -49.899  12.767  1.00  0.00     0.222 C 
HETATM    3  O   UNL     1     -41.543 -50.008  13.817  1.00  0.00    -0.273 OA
HETATM    4  H   UNL     1     -43.794 -50.466  11.641  1.00  0.00     0.162 HD
ENDROOT
BRANCH   2   5
HETATM    5  C   UNL     1     -41.609 -49.186  11.557  1.00  0.00     0.149 C 
BRANCH   5   6
HETATM    6  C   UNL     1     -41.755 -47.730  11.817  1.00  0.00     0.041 A 
HETATM    7  C   UNL     1     -40.838 -46.917  12.375  1.00  0.00     0.018 A 
HETATM    8  C   UNL     1     -39.459 -47.383  12.775  1.00  0.00     0.069 C 
HETATM    9  N   UNL     1     -41.057 -45.578  12.600  1.00  0.00    -0.349 N 
HETATM   10  C   UNL     1     -42.194 -45.084  12.242  1.00  0.00     0.080 A 
ATOM     11  HN  UNL     1     -40.344 -44.995  13.037  1.00  0.00     0.167 HD
HETATM   12  C   UNL     1     -42.504 -43.637  12.473  1.00  0.00     0.089 C 
HETATM   13  N   UNL     1     -43.182 -45.807  11.643  1.00  0.00    -0.313 N 
HETATM   14  C   UNL     1     -43.026 -47.125  11.357  1.00  0.00     0.255 A 
HETATM   15  H   UNL     1     -44.038 -45.374  11.336  1.00  0.00     0.170 HD
HETATM   16  O   UNL     1     -43.872 -47.772  10.749  1.00  0.00    -0.268 OA
ENDBRANCH   5   6
ENDBRANCH   2   5
BRANCH   1  17
HETATM   17  C   UNL     1     -44.248 -50.846  13.691  1.00  0.00     0.164 C 
BRANCH  17  18
HETATM   18  C   UNL     1     -45.150 -52.088  13.326  1.00  0.00     0.171 C 
HETATM   19  C   UNL     1     -44.478 -52.807  12.135  1.00  0.00     0.051 C 
BRANCH  18  20
HETATM   20  C   UNL     1     -46.599 -51.623  12.909  1.00  0.00     0.038 C 
HETATM   21  C   UNL     1     -47.057 -51.667  11.454  1.00  0.00     0.007 C 
ENDBRANCH  18  20
BRANCH  18  22
HETATM   22  N   UNL     1     -45.265 -52.934  14.569  1.00  0.00     0.103 N 
HETATM   23  C   UNL     1     -44.021 -53.355  15.249  1.00  0.00     0.299 C 
HETATM   24  C   UNL     1     -43.406 -54.665  14.722  1.00  0.00     0.198 C 
HETATM   25  O   UNL     1     -44.350 -55.741  14.681  1.00  0.00    -0.388 OA
HETATM   26  C   UNL     1     -45.540 -55.375  13.973  1.00  0.00     0.198 C 
HETATM   27  C   UNL     1     -46.167 -54.106  14.566  1.00  0.00     0.299 C 
ENDBRANCH  18  22
ENDBRANCH  17  18
ENDBRANCH   1  17
TORSDOF 6
ENDMDL
MODEL 5
REMARK VINA RESULT:      -5.7      2.110      7.153
REMARK  6 active torsions:
REMARK  status: ('A' for Active; 'I' for Inactive)
REMARK    1  A    between atoms: C_2  and  C_3 
REMARK    2  A    between atoms: C_3  and  C_5 
REMARK    3  A    between atoms: C_3  and  N_20 
REMARK    4  A    between atoms: C_5  and  N_6 
REMARK       I    between atoms: N_6  and  C_7 
REMARK    5  A    between atoms: C_7  and  C_9 
REMARK    6  A    between atoms: C_9  and  C_10 
ROOT
HETATM    1  N   UNL     1     -42.308 -51.410  12.070  1.00  0.00    -0.358 N 
HETATM    2  C   UNL     1     -40.956 -51.334  11.856  1.00  0.00     0.222 C 
HETATM    3  O   UNL     1     -40.167 -52.226  12.151  1.00  0.00    -0.273 OA
HETATM    4  H   UNL     1     -42.912 -50.766  11.565  1.00  0.00     0.162 HD
ENDROOT
BRANCH   2   5
HETATM    5  C   UNL     1     -40.511 -50.009  11.283  1.00  0.00     0.149 C 
BRANCH   5   6
HETATM    6  C   UNL     1     -39.740 -49.321  12.352  1.00  0.00     0.041 A 
HETATM    7  C   UNL     1     -38.405 -49.342  12.520  1.00  0.00     0.018 A 
HETATM    8  C   UNL     1     -37.466 -50.050  11.573  1.00  0.00     0.069 C 
HETATM    9  N   UNL     1     -37.765 -48.692  13.550  1.00  0.00    -0.349 N 
HETATM   10  C   UNL     1     -38.488 -48.020  14.381  1.00  0.00     0.080 A 
ATOM     11  HN  UNL     1     -36.752 -48.740  13.654  1.00  0.00     0.167 HD
HETATM   12  C   UNL     1     -37.858 -47.301  15.534  1.00  0.00     0.089 C 
HETATM   13  N   UNL     1     -39.843 -47.906  14.289  1.00  0.00    -0.313 N 
HETATM   14  C   UNL     1     -40.540 -48.491  13.280  1.00  0.00     0.255 A 
HETATM   15  H   UNL     1     -40.368 -47.334  14.931  1.00  0.00     0.170 HD
HETATM   16  O   UNL     1     -41.748 -48.335  13.137  1.00  0.00    -0.268 OA
ENDBRANCH   5   6
ENDBRANCH   2   5
BRANCH   1  17
HETATM   17  C   UNL     1     -42.908 -52.491  12.822  1.00  0.00     0.164 C 
BRANCH  17  18
HETATM   18  C   UNL     1     -43.755 -52.020  14.067  1.00  0.00     0.171 C 
HETATM   19  C   UNL     1     -45.055 -51.386  13.522  1.00  0.00     0.051 C 
BRANCH  18  20
HETATM   20  C   UNL     1     -42.961 -50.949  14.910  1.00  0.00     0.038 C 
HETATM   21  C   UNL     1     -43.683 -49.805  15.618  1.00  0.00     0.007 C 
ENDBRANCH  18  20
BRANCH  18  22
HETATM   22  N   UNL     1     -43.980 -53.233  14.935  1.00  0.00     0.103 N 
HETATM   23  C   UNL     1     -43.975 -54.565  14.295  1.00  0.00     0.299 C 
HETATM   24  C   UNL     1     -45.338 -55.024  13.742  1.00  0.00     0.198 C 
HETATM   25  O   UNL     1     -46.386 -54.932  14.712  1.00  0.00    -0.388 OA
HETATM   26  C   UNL     1     -46.449 -53.629  15.304  1.00  0.00     0.198 C 
HETATM   27  C   UNL     1     -45.095 -53.231  15.906  1.00  0.00     0.299 C 
ENDBRANCH  18  22
ENDBRANCH  17  18
ENDBRANCH   1  17
TORSDOF 6
ENDMDL
MODEL 6
REMARK VINA RESULT:      -5.7      2.251      7.394
REMARK  6 active torsions:
REMARK  status: ('A' for Active; 'I' for Inactive)
REMARK    1  A    between atoms: C_2  and  C_3 
REMARK    2  A    between atoms: C_3  and  C_5 
REMARK    3  A    between atoms: C_3  and  N_20 
REMARK    4  A    between atoms: C_5  and  N_6 
REMARK       I    between atoms: N_6  and  C_7 
REMARK    5  A    between atoms: C_7  and  C_9 
REMARK    6  A    between atoms: C_9  and  C_10 
ROOT
HETATM    1  N   UNL     1     -42.900 -50.747  12.499  1.00  0.00    -0.358 N 
HETATM    2  C   UNL     1     -41.868 -49.858  12.652  1.00  0.00     0.222 C 
HETATM    3  O   UNL     1     -40.685 -50.153  12.516  1.00  0.00    -0.273 OA
HETATM    4  H   UNL     1     -43.837 -50.377  12.362  1.00  0.00     0.162 HD
ENDROOT
BRANCH   2   5
HETATM    5  C   UNL     1     -42.319 -48.479  13.077  1.00  0.00     0.149 C 
BRANCH   5   6
HETATM    6  C   UNL     1     -41.627 -47.512  12.187  1.00  0.00     0.041 A 
HETATM    7  C   UNL     1     -42.004 -47.148  10.947  1.00  0.00     0.018 A 
HETATM    8  C   UNL     1     -43.267 -47.653  10.289  1.00  0.00     0.069 C 
HETATM    9  N   UNL     1     -41.297 -46.256  10.175  1.00  0.00    -0.349 N 
HETATM   10  C   UNL     1     -40.229 -45.737  10.680  1.00  0.00     0.080 A 
ATOM     11  HN  UNL     1     -41.607 -46.013   9.235  1.00  0.00     0.167 HD
HETATM   12  C   UNL     1     -39.403 -44.771   9.888  1.00  0.00     0.089 C 
HETATM   13  N   UNL     1     -39.771 -46.010  11.934  1.00  0.00    -0.313 N 
HETATM   14  C   UNL     1     -40.434 -46.853  12.766  1.00  0.00     0.255 A 
HETATM   15  H   UNL     1     -38.957 -45.548  12.309  1.00  0.00     0.170 HD
HETATM   16  O   UNL     1     -40.080 -47.050  13.924  1.00  0.00    -0.268 OA
ENDBRANCH   5   6
ENDBRANCH   2   5
BRANCH   1  17
HETATM   17  C   UNL     1     -42.672 -52.165  12.326  1.00  0.00     0.164 C 
BRANCH  17  18
HETATM   18  C   UNL     1     -43.256 -53.060  13.488  1.00  0.00     0.171 C 
HETATM   19  C   UNL     1     -43.423 -52.149  14.726  1.00  0.00     0.051 C 
BRANCH  18  20
HETATM   20  C   UNL     1     -42.269 -54.241  13.834  1.00  0.00     0.038 C 
HETATM   21  C   UNL     1     -40.847 -54.273  13.278  1.00  0.00     0.007 C 
ENDBRANCH  18  20
BRANCH  18  22
HETATM   22  N   UNL     1     -44.547 -53.655  12.984  1.00  0.00     0.103 N 
HETATM   23  C   UNL     1     -45.647 -52.737  12.618  1.00  0.00     0.299 C 
HETATM   24  C   UNL     1     -46.578 -52.344  13.780  1.00  0.00     0.198 C 
HETATM   25  O   UNL     1     -47.081 -53.480  14.492  1.00  0.00    -0.388 OA
HETATM   26  C   UNL     1     -46.027 -54.354  14.910  1.00  0.00     0.198 C 
HETATM   27  C   UNL     1     -45.159 -54.782  13.720  1.00  0.00     0.299 C 
ENDBRANCH  18  22
ENDBRANCH  17  18
ENDBRANCH   1  17
TORSDOF 6
ENDMDL
MODEL 7
REMARK VINA RESULT:      -5.6      2.609      7.350
REMARK  6 active torsions:
REMARK  status: ('A' for Active; 'I' for Inactive)
REMARK    1  A    between atoms: C_2  and  C_3 
REMARK    2  A    between atoms: C_3  and  C_5 
REMARK    3  A    between atoms: C_3  and  N_20 
REMARK    4  A    between atoms: C_5  and  N_6 
REMARK       I    between atoms: N_6  and  C_7 
REMARK    5  A    between atoms: C_7  and  C_9 
REMARK    6  A    between atoms: C_9  and  C_10 
ROOT
HETATM    1  N   UNL     1     -40.567 -51.578  11.897  1.00  0.00    -0.358 N 
HETATM    2  C   UNL     1     -40.533 -50.214  11.769  1.00  0.00     0.222 C 
HETATM    3  O   UNL     1     -41.523 -49.494  11.852  1.00  0.00    -0.273 OA
HETATM    4  H   UNL     1     -39.695 -52.066  12.084  1.00  0.00     0.162 HD
ENDROOT
BRANCH   2   5
HETATM    5  C   UNL     1     -39.160 -49.674  11.442  1.00  0.00     0.149 C 
BRANCH   5   6
HETATM    6  C   UNL     1     -38.485 -49.412  12.740  1.00  0.00     0.041 A 
HETATM    7  C   UNL     1     -38.544 -48.277  13.461  1.00  0.00     0.018 A 
HETATM    8  C   UNL     1     -39.384 -47.088  13.060  1.00  0.00     0.069 C 
HETATM    9  N   UNL     1     -37.872 -48.105  14.649  1.00  0.00    -0.349 N 
HETATM   10  C   UNL     1     -37.168 -49.091  15.093  1.00  0.00     0.080 A 
ATOM     11  HN  UNL     1     -37.930 -47.226  15.163  1.00  0.00     0.167 HD
HETATM   12  C   UNL     1     -36.399 -48.965  16.372  1.00  0.00     0.089 C 
HETATM   13  N   UNL     1     -37.062 -50.293  14.460  1.00  0.00    -0.313 N 
HETATM   14  C   UNL     1     -37.722 -50.549  13.302  1.00  0.00     0.255 A 
HETATM   15  H   UNL     1     -36.538 -51.055  14.862  1.00  0.00     0.170 HD
HETATM   16  O   UNL     1     -37.701 -51.650  12.761  1.00  0.00    -0.268 OA
ENDBRANCH   5   6
ENDBRANCH   2   5
BRANCH   1  17
HETATM   17  C   UNL     1     -41.813 -52.311  11.976  1.00  0.00     0.164 C 
BRANCH  17  18
HETATM   18  C   UNL     1     -41.923 -53.264  13.229  1.00  0.00     0.171 C 
HETATM   19  C   UNL     1     -41.793 -52.378  14.489  1.00  0.00     0.051 C 
BRANCH  18  20
HETATM   20  C   UNL     1     -40.766 -54.336  13.219  1.00  0.00     0.038 C 
HETATM   21  C   UNL     1     -39.622 -54.277  14.227  1.00  0.00     0.007 C 
ENDBRANCH  18  20
BRANCH  18  22
HETATM   22  N   UNL     1     -43.241 -53.989  13.121  1.00  0.00     0.103 N 
HETATM   23  C   UNL     1     -44.369 -53.299  12.459  1.00  0.00     0.299 C 
HETATM   24  C   UNL     1     -45.223 -52.415  13.387  1.00  0.00     0.198 C 
HETATM   25  O   UNL     1     -45.670 -53.111  14.555  1.00  0.00    -0.388 OA
HETATM   26  C   UNL     1     -44.584 -53.737  15.247  1.00  0.00     0.198 C 
HETATM   27  C   UNL     1     -43.795 -54.664  14.314  1.00  0.00     0.299 C 
ENDBRANCH  18  22
ENDBRANCH  17  18
ENDBRANCH   1  17
TORSDOF 6
ENDMDL
MODEL 8
REMARK VINA RESULT:      -5.6      3.558      5.096
REMARK  6 active torsions:
REMARK  status: ('A' for Active; 'I' for Inactive)
REMARK    1  A    between atoms: C_2  and  C_3 
REMARK    2  A    between atoms: C_3  and  C_5 
REMARK    3  A    between atoms: C_3  and  N_20 
REMARK    4  A    between atoms: C_5  and  N_6 
REMARK       I    between atoms: N_6  and  C_7 
REMARK    5  A    between atoms: C_7  and  C_9 
REMARK    6  A    between atoms: C_9  and  C_10 
ROOT
HETATM    1  N   UNL     1     -40.597 -51.994  11.812  1.00  0.00    -0.358 N 
HETATM    2  C   UNL     1     -41.595 -52.671  12.463  1.00  0.00     0.222 C 
HETATM    3  O   UNL     1     -42.639 -52.152  12.842  1.00  0.00    -0.273 OA
HETATM    4  H   UNL     1     -39.903 -52.534  11.301  1.00  0.00     0.162 HD
ENDROOT
BRANCH   2   5
HETATM    5  C   UNL     1     -41.259 -54.119  12.739  1.00  0.00     0.149 C 
BRANCH   5   6
HETATM    6  C   UNL     1     -40.884 -54.203  14.174  1.00  0.00     0.041 A 
HETATM    7  C   UNL     1     -41.678 -54.586  15.191  1.00  0.00     0.018 A 
HETATM    8  C   UNL     1     -43.099 -55.058  14.994  1.00  0.00     0.069 C 
HETATM    9  N   UNL     1     -41.261 -54.619  16.502  1.00  0.00    -0.349 N 
HETATM   10  C   UNL     1     -40.043 -54.279  16.755  1.00  0.00     0.080 A 
ATOM     11  HN  UNL     1     -41.894 -54.903  17.248  1.00  0.00     0.167 HD
HETATM   12  C   UNL     1     -39.528 -54.277  18.162  1.00  0.00     0.089 C 
HETATM   13  N   UNL     1     -39.145 -53.903  15.802  1.00  0.00    -0.313 N 
HETATM   14  C   UNL     1     -39.473 -53.879  14.484  1.00  0.00     0.255 A 
HETATM   15  H   UNL     1     -38.188 -53.688  16.035  1.00  0.00     0.170 HD
HETATM   16  O   UNL     1     -38.657 -53.619  13.606  1.00  0.00    -0.268 OA
ENDBRANCH   5   6
ENDBRANCH   2   5
BRANCH   1  17
HETATM   17  C   UNL     1     -40.618 -50.555  11.661  1.00  0.00     0.164 C 
BRANCH  17  18
HETATM   18  C   UNL     1     -39.472 -49.807  12.447  1.00  0.00     0.171 C 
HETATM   19  C   UNL     1     -39.487 -48.332  11.983  1.00  0.00     0.051 C 
BRANCH  18  20
HETATM   20  C   UNL     1     -38.065 -50.444  12.126  1.00  0.00     0.038 C 
HETATM   21  C   UNL     1     -37.225 -49.956  10.949  1.00  0.00     0.007 C 
ENDBRANCH  18  20
BRANCH  18  22
HETATM   22  N   UNL     1     -39.749 -49.991  13.918  1.00  0.00     0.103 N 
HETATM   23  C   UNL     1     -40.769 -49.129  14.553  1.00  0.00     0.299 C 
HETATM   24  C   UNL     1     -40.242 -47.782  15.082  1.00  0.00     0.198 C 
HETATM   25  O   UNL     1     -39.103 -47.932  15.936  1.00  0.00    -0.388 OA
HETATM   26  C   UNL     1     -38.075 -48.714  15.316  1.00  0.00     0.198 C 
HETATM   27  C   UNL     1     -38.615 -50.076  14.863  1.00  0.00     0.299 C 
ENDBRANCH  18  22
ENDBRANCH  17  18
ENDBRANCH   1  17
TORSDOF 6
ENDMDL
MODEL 9
REMARK VINA RESULT:      -5.6      3.051      4.748
REMARK  6 active torsions:
REMARK  status: ('A' for Active; 'I' for Inactive)
REMARK    1  A    between atoms: C_2  and  C_3 
REMARK    2  A    between atoms: C_3  and  C_5 
REMARK    3  A    between atoms: C_3  and  N_20 
REMARK    4  A    between atoms: C_5  and  N_6 
REMARK       I    between atoms: N_6  and  C_7 
REMARK    5  A    between atoms: C_7  and  C_9 
REMARK    6  A    between atoms: C_9  and  C_10 
ROOT
HETATM    1  N   UNL     1     -42.689 -50.628  12.236  1.00  0.00    -0.358 N 
HETATM    2  C   UNL     1     -43.242 -51.593  13.037  1.00  0.00     0.222 C 
HETATM    3  O   UNL     1     -43.839 -51.355  14.082  1.00  0.00    -0.273 OA
HETATM    4  H   UNL     1     -42.457 -50.873  11.277  1.00  0.00     0.162 HD
ENDROOT
BRANCH   2   5
HETATM    5  C   UNL     1     -42.985 -53.000  12.548  1.00  0.00     0.149 C 
BRANCH   5   6
HETATM    6  C   UNL     1     -41.956 -53.582  13.450  1.00  0.00     0.041 A 
HETATM    7  C   UNL     1     -42.174 -54.408  14.490  1.00  0.00     0.018 A 
HETATM    8  C   UNL     1     -43.545 -54.921  14.862  1.00  0.00     0.069 C 
HETATM    9  N   UNL     1     -41.166 -54.891  15.292  1.00  0.00    -0.349 N 
HETATM   10  C   UNL     1     -39.955 -54.542  15.015  1.00  0.00     0.080 A 
ATOM     11  HN  UNL     1     -41.370 -55.505  16.080  1.00  0.00     0.167 HD
HETATM   12  C   UNL     1     -38.812 -55.020  15.857  1.00  0.00     0.089 C 
HETATM   13  N   UNL     1     -39.617 -53.736  13.969  1.00  0.00    -0.313 N 
HETATM   14  C   UNL     1     -40.553 -53.249  13.114  1.00  0.00     0.255 A 
HETATM   15  H   UNL     1     -38.655 -53.524  13.758  1.00  0.00     0.170 HD
HETATM   16  O   UNL     1     -40.260 -52.588  12.124  1.00  0.00    -0.268 OA
ENDBRANCH   5   6
ENDBRANCH   2   5
BRANCH   1  17
HETATM   17  C   UNL     1     -42.617 -49.241  12.643  1.00  0.00     0.164 C 
BRANCH  17  18
HETATM   18  C   UNL     1     -41.263 -48.526  12.262  1.00  0.00     0.171 C 
HETATM   19  C   UNL     1     -40.867 -49.018  10.852  1.00  0.00     0.051 C 
BRANCH  18  20
HETATM   20  C   UNL     1     -40.125 -48.901  13.288  1.00  0.00     0.038 C 
HETATM   21  C   UNL     1     -40.454 -49.530  14.640  1.00  0.00     0.007 C 
ENDBRANCH  18  20
BRANCH  18  22
HETATM   22  N   UNL     1     -41.507 -47.040  12.349  1.00  0.00     0.103 N 
HETATM   23  C   UNL     1     -42.626 -46.465  11.572  1.00  0.00     0.299 C 
HETATM   24  C   UNL     1     -42.274 -46.066  10.126  1.00  0.00     0.198 C 
HETATM   25  O   UNL     1     -41.120 -45.221  10.053  1.00  0.00    -0.388 OA
HETATM   26  C   UNL     1     -40.003 -45.787  10.749  1.00  0.00     0.198 C 
HETATM   27  C   UNL     1     -40.366 -46.110  12.204  1.00  0.00     0.299 C 
ENDBRANCH  18  22
ENDBRANCH  17  18
ENDBRANCH   1  17
TORSDOF 6
ENDMDL
