MODEL 1
REMARK VINA RESULT:      -5.9      0.000      0.000
REMARK  2 active torsions:
REMARK  status: ('A' for Active; 'I' for Inactive)
REMARK       I    between atoms: N_2  and  C_3 
REMARK    1  A    between atoms: C_3  and  C_5 
REMARK    2  A    between atoms: N_7  and  C_11 
ROOT
HETATM    1  C   UNL     1     -42.128 -46.581  10.570  1.00  0.00     0.103 A 
HETATM    2  C   UNL     1     -43.010 -47.407  11.269  1.00  0.00     0.050 A 
HETATM    3  C   UNL     1     -44.202 -47.835  10.681  1.00  0.00     0.028 A 
HETATM    4  C   UNL     1     -44.508 -47.426   9.394  1.00  0.00     0.060 A 
HETATM    5  C   UNL     1     -45.697 -47.864   8.736  1.00  0.00     0.101 C 
HETATM    6  N   UNL     1     -46.660 -48.234   8.206  1.00  0.00    -0.191 NA
HETATM    7  C   UNL     1     -43.605 -46.587   8.760  1.00  0.00     0.112 A 
HETATM    8  N   UNL     1     -42.435 -46.167   9.316  1.00  0.00    -0.351 N 
ATOM      9  HN  UNL     1     -41.804 -45.554   8.801  1.00  0.00     0.166 HD
ENDROOT
BRANCH   1  10
HETATM   10  N   UNL     1     -40.932 -46.187  11.109  1.00  0.00    -0.362 N 
HETATM   11  C   UNL     1     -39.978 -45.384  10.333  1.00  0.00     0.166 C 
HETATM   12  C   UNL     1     -39.638 -44.081  11.071  1.00  0.00     0.231 C 
HETATM   13  O   UNL     1     -39.130 -44.396  12.385  1.00  0.00    -0.373 OA
HETATM   14  C   UNL     1     -40.109 -45.106  13.163  1.00  0.00     0.189 C 
HETATM   15  C   UNL     1     -40.530 -46.429  12.500  1.00  0.00     0.150 C 
BRANCH  12  16
HETATM   16  C   UNL     1     -40.754 -43.003  11.080  1.00  0.00     0.247 C 
HETATM   17  N   UNL     1     -40.456 -41.800  11.692  1.00  0.00    -0.363 N 
HETATM   18  C   UNL     1     -41.446 -40.755  11.714  1.00  0.00     0.149 C 
HETATM   19  H   UNL     1     -39.490 -41.484  11.621  1.00  0.00     0.162 HD
HETATM   20  O   UNL     1     -41.877 -43.230  10.622  1.00  0.00    -0.271 OA
ENDBRANCH  12  16
ENDBRANCH   1  10
TORSDOF 2
ENDMDL
MODEL 2
REMARK VINA RESULT:      -5.7      3.064      5.582
REMARK  2 active torsions:
REMARK  status: ('A' for Active; 'I' for Inactive)
REMARK       I    between atoms: N_2  and  C_3 
REMARK    1  A    between atoms: C_3  and  C_5 
REMARK    2  A    between atoms: N_7  and  C_11 
ROOT
HETATM    1  C   UNL     1     -39.628 -47.283  12.302  1.00  0.00     0.103 A 
HETATM    2  C   UNL     1     -38.835 -47.588  13.410  1.00  0.00     0.050 A 
HETATM    3  C   UNL     1     -38.108 -48.780  13.459  1.00  0.00     0.028 A 
HETATM    4  C   UNL     1     -38.186 -49.664  12.397  1.00  0.00     0.060 A 
HETATM    5  C   UNL     1     -37.434 -50.879  12.382  1.00  0.00     0.101 C 
HETATM    6  N   UNL     1     -36.812 -51.857  12.375  1.00  0.00    -0.191 NA
HETATM    7  C   UNL     1     -39.007 -49.317  11.336  1.00  0.00     0.112 A 
HETATM    8  N   UNL     1     -39.717 -48.157  11.270  1.00  0.00    -0.351 N 
ATOM      9  HN  UNL     1     -40.303 -47.950  10.461  1.00  0.00     0.166 HD
ENDROOT
BRANCH   1  10
HETATM   10  N   UNL     1     -40.314 -46.101  12.213  1.00  0.00    -0.362 N 
HETATM   11  C   UNL     1     -40.449 -45.398  10.931  1.00  0.00     0.166 C 
HETATM   12  C   UNL     1     -41.929 -45.166  10.593  1.00  0.00     0.231 C 
HETATM   13  O   UNL     1     -42.557 -44.441  11.672  1.00  0.00    -0.373 OA
HETATM   14  C   UNL     1     -42.493 -45.182  12.902  1.00  0.00     0.189 C 
HETATM   15  C   UNL     1     -41.043 -45.480  13.325  1.00  0.00     0.150 C 
BRANCH  12  16
HETATM   16  C   UNL     1     -42.722 -46.424  10.149  1.00  0.00     0.247 C 
HETATM   17  N   UNL     1     -44.082 -46.270   9.956  1.00  0.00    -0.363 N 
HETATM   18  C   UNL     1     -44.866 -47.398   9.524  1.00  0.00     0.149 C 
HETATM   19  H   UNL     1     -44.388 -45.365   9.602  1.00  0.00     0.162 HD
HETATM   20  O   UNL     1     -42.178 -47.526  10.036  1.00  0.00    -0.271 OA
ENDBRANCH  12  16
ENDBRANCH   1  10
TORSDOF 2
ENDMDL
MODEL 3
REMARK VINA RESULT:      -5.5      4.269      5.622
REMARK  2 active torsions:
REMARK  status: ('A' for Active; 'I' for Inactive)
REMARK       I    between atoms: N_2  and  C_3 
REMARK    1  A    between atoms: C_3  and  C_5 
REMARK    2  A    between atoms: N_7  and  C_11 
ROOT
HETATM    1  C   UNL     1     -42.816 -50.338  12.743  1.00  0.00     0.103 A 
HETATM    2  C   UNL     1     -43.988 -50.389  13.500  1.00  0.00     0.050 A 
HETATM    3  C   UNL     1     -44.681 -51.592  13.659  1.00  0.00     0.028 A 
HETATM    4  C   UNL     1     -44.198 -52.737  13.050  1.00  0.00     0.060 A 
HETATM    5  C   UNL     1     -44.850 -53.997  13.210  1.00  0.00     0.101 C 
HETATM    6  N   UNL     1     -45.380 -55.018  13.355  1.00  0.00    -0.191 NA
HETATM    7  C   UNL     1     -43.044 -52.618  12.293  1.00  0.00     0.112 A 
HETATM    8  N   UNL     1     -42.352 -51.456  12.134  1.00  0.00    -0.351 N 
ATOM      9  HN  UNL     1     -41.504 -51.427  11.569  1.00  0.00     0.166 HD
ENDROOT
BRANCH   1  10
HETATM   10  N   UNL     1     -42.096 -49.180  12.612  1.00  0.00    -0.362 N 
HETATM   11  C   UNL     1     -41.182 -48.980  11.480  1.00  0.00     0.166 C 
HETATM   12  C   UNL     1     -41.544 -47.703  10.709  1.00  0.00     0.231 C 
HETATM   13  O   UNL     1     -41.531 -46.579  11.615  1.00  0.00    -0.373 OA
HETATM   14  C   UNL     1     -42.494 -46.750  12.669  1.00  0.00     0.189 C 
HETATM   15  C   UNL     1     -42.226 -48.018  13.499  1.00  0.00     0.150 C 
BRANCH  12  16
HETATM   16  C   UNL     1     -42.828 -47.783   9.841  1.00  0.00     0.247 C 
HETATM   17  N   UNL     1     -42.653 -47.944   8.480  1.00  0.00    -0.363 N 
HETATM   18  C   UNL     1     -43.809 -48.046   7.626  1.00  0.00     0.149 C 
HETATM   19  H   UNL     1     -41.848 -48.497   8.190  1.00  0.00     0.162 HD
HETATM   20  O   UNL     1     -43.951 -47.645  10.332  1.00  0.00    -0.271 OA
ENDBRANCH  12  16
ENDBRANCH   1  10
TORSDOF 2
ENDMDL
MODEL 4
REMARK VINA RESULT:      -5.4      7.760      9.944
REMARK  2 active torsions:
REMARK  status: ('A' for Active; 'I' for Inactive)
REMARK       I    between atoms: N_2  and  C_3 
REMARK    1  A    between atoms: C_3  and  C_5 
REMARK    2  A    between atoms: N_7  and  C_11 
ROOT
HETATM    1  C   UNL     1     -46.378 -51.973  15.746  1.00  0.00     0.103 A 
HETATM    2  C   UNL     1     -47.559 -51.581  16.379  1.00  0.00     0.050 A 
HETATM    3  C   UNL     1     -47.540 -50.609  17.382  1.00  0.00     0.028 A 
HETATM    4  C   UNL     1     -46.334 -50.039  17.750  1.00  0.00     0.060 A 
HETATM    5  C   UNL     1     -46.265 -49.017  18.744  1.00  0.00     0.101 C 
HETATM    6  N   UNL     1     -46.222 -48.179  19.545  1.00  0.00    -0.191 NA
HETATM    7  C   UNL     1     -45.193 -50.486  17.101  1.00  0.00     0.112 A 
HETATM    8  N   UNL     1     -45.195 -51.427  16.117  1.00  0.00    -0.351 N 
ATOM      9  HN  UNL     1     -44.325 -51.714  15.670  1.00  0.00     0.166 HD
ENDROOT
BRANCH   1  10
HETATM   10  N   UNL     1     -46.378 -52.891  14.729  1.00  0.00    -0.362 N 
HETATM   11  C   UNL     1     -46.463 -52.468  13.325  1.00  0.00     0.166 C 
HETATM   12  C   UNL     1     -45.274 -53.014  12.521  1.00  0.00     0.231 C 
HETATM   13  O   UNL     1     -45.233 -54.451  12.647  1.00  0.00    -0.373 OA
HETATM   14  C   UNL     1     -45.063 -54.848  14.018  1.00  0.00     0.189 C 
HETATM   15  C   UNL     1     -46.203 -54.336  14.917  1.00  0.00     0.150 C 
BRANCH  12  16
HETATM   16  C   UNL     1     -43.907 -52.330  12.793  1.00  0.00     0.247 C 
HETATM   17  N   UNL     1     -42.834 -52.755  12.033  1.00  0.00    -0.363 N 
HETATM   18  C   UNL     1     -41.545 -52.142  12.227  1.00  0.00     0.149 C 
HETATM   19  H   UNL     1     -43.042 -53.039  11.077  1.00  0.00     0.162 HD
HETATM   20  O   UNL     1     -43.769 -51.494  13.690  1.00  0.00    -0.271 OA
ENDBRANCH  12  16
ENDBRANCH   1  10
TORSDOF 2
ENDMDL
MODEL 5
REMARK VINA RESULT:      -5.4      5.012      7.094
REMARK  2 active torsions:
REMARK  status: ('A' for Active; 'I' for Inactive)
REMARK       I    between atoms: N_2  and  C_3 
REMARK    1  A    between atoms: C_3  and  C_5 
REMARK    2  A    between atoms: N_7  and  C_11 
ROOT
HETATM    1  C   UNL     1     -42.081 -49.551  12.012  1.00  0.00     0.103 A 
HETATM    2  C   UNL     1     -43.099 -48.710  12.463  1.00  0.00     0.050 A 
HETATM    3  C   UNL     1     -43.484 -47.594  11.717  1.00  0.00     0.028 A 
HETATM    4  C   UNL     1     -42.838 -47.322  10.523  1.00  0.00     0.060 A 
HETATM    5  C   UNL     1     -43.217 -46.214   9.706  1.00  0.00     0.101 C 
HETATM    6  N   UNL     1     -43.540 -45.318   9.045  1.00  0.00    -0.191 NA
HETATM    7  C   UNL     1     -41.820 -48.180  10.139  1.00  0.00     0.112 A 
HETATM    8  N   UNL     1     -41.438 -49.276  10.851  1.00  0.00    -0.351 N 
ATOM      9  HN  UNL     1     -40.684 -49.877  10.517  1.00  0.00     0.166 HD
ENDROOT
BRANCH   1  10
HETATM   10  N   UNL     1     -41.718 -50.677  12.704  1.00  0.00    -0.362 N 
HETATM   11  C   UNL     1     -42.405 -51.058  13.944  1.00  0.00     0.166 C 
HETATM   12  C   UNL     1     -42.974 -52.481  13.834  1.00  0.00     0.231 C 
HETATM   13  O   UNL     1     -41.907 -53.397  13.508  1.00  0.00    -0.373 OA
HETATM   14  C   UNL     1     -41.302 -53.061  12.248  1.00  0.00     0.189 C 
HETATM   15  C   UNL     1     -40.710 -51.641  12.248  1.00  0.00     0.150 C 
BRANCH  12  16
HETATM   16  C   UNL     1     -44.223 -52.637  12.927  1.00  0.00     0.247 C 
HETATM   17  N   UNL     1     -45.162 -51.623  12.977  1.00  0.00    -0.363 N 
HETATM   18  C   UNL     1     -46.333 -51.704  12.142  1.00  0.00     0.149 C 
HETATM   19  H   UNL     1     -44.804 -50.683  13.136  1.00  0.00     0.162 HD
HETATM   20  O   UNL     1     -44.404 -53.647  12.243  1.00  0.00    -0.271 OA
ENDBRANCH  12  16
ENDBRANCH   1  10
TORSDOF 2
ENDMDL
MODEL 6
REMARK VINA RESULT:      -5.4      2.855      4.606
REMARK  2 active torsions:
REMARK  status: ('A' for Active; 'I' for Inactive)
REMARK       I    between atoms: N_2  and  C_3 
REMARK    1  A    between atoms: C_3  and  C_5 
REMARK    2  A    between atoms: N_7  and  C_11 
ROOT
HETATM    1  C   UNL     1     -40.490 -47.306  11.175  1.00  0.00     0.103 A 
HETATM    2  C   UNL     1     -39.664 -47.431  12.294  1.00  0.00     0.050 A 
HETATM    3  C   UNL     1     -39.353 -48.690  12.812  1.00  0.00     0.028 A 
HETATM    4  C   UNL     1     -39.880 -49.820  12.209  1.00  0.00     0.060 A 
HETATM    5  C   UNL     1     -39.565 -51.131  12.679  1.00  0.00     0.101 C 
HETATM    6  N   UNL     1     -39.295 -52.191  13.061  1.00  0.00    -0.191 NA
HETATM    7  C   UNL     1     -40.712 -49.630  11.117  1.00  0.00     0.112 A 
HETATM    8  N   UNL     1     -41.019 -48.410  10.595  1.00  0.00    -0.351 N 
ATOM      9  HN  UNL     1     -41.633 -48.330   9.785  1.00  0.00     0.166 HD
ENDROOT
BRANCH   1  10
HETATM   10  N   UNL     1     -40.771 -46.084  10.622  1.00  0.00    -0.362 N 
HETATM   11  C   UNL     1     -42.154 -45.678  10.343  1.00  0.00     0.166 C 
HETATM   12  C   UNL     1     -42.484 -44.355  11.049  1.00  0.00     0.231 C 
HETATM   13  O   UNL     1     -41.535 -43.346  10.640  1.00  0.00    -0.373 OA
HETATM   14  C   UNL     1     -40.194 -43.719  10.998  1.00  0.00     0.189 C 
HETATM   15  C   UNL     1     -39.767 -45.048  10.349  1.00  0.00     0.150 C 
BRANCH  12  16
HETATM   16  C   UNL     1     -42.670 -44.442  12.587  1.00  0.00     0.247 C 
HETATM   17  N   UNL     1     -43.104 -45.651  13.096  1.00  0.00    -0.363 N 
HETATM   18  C   UNL     1     -43.274 -45.797  14.519  1.00  0.00     0.149 C 
HETATM   19  H   UNL     1     -42.787 -46.487  12.607  1.00  0.00     0.162 HD
HETATM   20  O   UNL     1     -42.503 -43.460  13.316  1.00  0.00    -0.271 OA
ENDBRANCH  12  16
ENDBRANCH   1  10
TORSDOF 2
ENDMDL
MODEL 7
REMARK VINA RESULT:      -5.3      4.315      6.377
REMARK  2 active torsions:
REMARK  status: ('A' for Active; 'I' for Inactive)
REMARK       I    between atoms: N_2  and  C_3 
REMARK    1  A    between atoms: C_3  and  C_5 
REMARK    2  A    between atoms: N_7  and  C_11 
ROOT
HETATM    1  C   UNL     1     -39.905 -48.131  11.663  1.00  0.00     0.103 A 
HETATM    2  C   UNL     1     -39.921 -46.735  11.659  1.00  0.00     0.050 A 
HETATM    3  C   UNL     1     -40.903 -46.036  10.953  1.00  0.00     0.028 A 
HETATM    4  C   UNL     1     -41.862 -46.742  10.248  1.00  0.00     0.060 A 
HETATM    5  C   UNL     1     -42.907 -46.076   9.539  1.00  0.00     0.101 C 
HETATM    6  N   UNL     1     -43.758 -45.525   8.976  1.00  0.00    -0.191 NA
HETATM    7  C   UNL     1     -41.781 -48.126  10.271  1.00  0.00     0.112 A 
HETATM    8  N   UNL     1     -40.835 -48.822  10.960  1.00  0.00    -0.351 N 
ATOM      9  HN  UNL     1     -40.826 -49.842  10.946  1.00  0.00     0.166 HD
ENDROOT
BRANCH   1  10
HETATM   10  N   UNL     1     -38.980 -48.837  12.386  1.00  0.00    -0.362 N 
HETATM   11  C   UNL     1     -39.234 -49.212  13.783  1.00  0.00     0.166 C 
HETATM   12  C   UNL     1     -39.113 -50.732  13.967  1.00  0.00     0.231 C 
HETATM   13  O   UNL     1     -37.808 -51.164  13.523  1.00  0.00    -0.373 OA
HETATM   14  C   UNL     1     -37.609 -50.867  12.131  1.00  0.00     0.189 C 
HETATM   15  C   UNL     1     -37.725 -49.361  11.835  1.00  0.00     0.150 C 
BRANCH  12  16
HETATM   16  C   UNL     1     -40.276 -51.575  13.380  1.00  0.00     0.247 C 
HETATM   17  N   UNL     1     -40.124 -52.949  13.400  1.00  0.00    -0.363 N 
HETATM   18  C   UNL     1     -41.180 -53.784  12.888  1.00  0.00     0.149 C 
HETATM   19  H   UNL     1     -39.607 -53.335  14.189  1.00  0.00     0.162 HD
HETATM   20  O   UNL     1     -41.261 -51.045  12.861  1.00  0.00    -0.271 OA
ENDBRANCH  12  16
ENDBRANCH   1  10
TORSDOF 2
ENDMDL
MODEL 8
REMARK VINA RESULT:      -5.3      4.187      5.981
REMARK  2 active torsions:
REMARK  status: ('A' for Active; 'I' for Inactive)
REMARK       I    between atoms: N_2  and  C_3 
REMARK    1  A    between atoms: C_3  and  C_5 
REMARK    2  A    between atoms: N_7  and  C_11 
ROOT
HETATM    1  C   UNL     1     -40.438 -48.872  11.420  1.00  0.00     0.103 A 
HETATM    2  C   UNL     1     -41.828 -48.844  11.287  1.00  0.00     0.050 A 
HETATM    3  C   UNL     1     -42.491 -47.649  11.003  1.00  0.00     0.028 A 
HETATM    4  C   UNL     1     -41.758 -46.483  10.862  1.00  0.00     0.060 A 
HETATM    5  C   UNL     1     -42.385 -45.242  10.538  1.00  0.00     0.101 C 
HETATM    6  N   UNL     1     -42.903 -44.242  10.264  1.00  0.00    -0.191 NA
HETATM    7  C   UNL     1     -40.384 -46.571  11.028  1.00  0.00     0.112 A 
HETATM    8  N   UNL     1     -39.721 -47.729  11.297  1.00  0.00    -0.351 N 
ATOM      9  HN  UNL     1     -38.707 -47.736  11.404  1.00  0.00     0.166 HD
ENDROOT
BRANCH   1  10
HETATM   10  N   UNL     1     -39.762 -50.041  11.652  1.00  0.00    -0.362 N 
HETATM   11  C   UNL     1     -38.303 -50.115  11.503  1.00  0.00     0.166 C 
HETATM   12  C   UNL     1     -37.649 -50.607  12.802  1.00  0.00     0.231 C 
HETATM   13  O   UNL     1     -38.217 -51.883  13.169  1.00  0.00    -0.373 OA
HETATM   14  C   UNL     1     -39.632 -51.775  13.396  1.00  0.00     0.189 C 
HETATM   15  C   UNL     1     -40.384 -51.273  12.150  1.00  0.00     0.150 C 
BRANCH  12  16
HETATM   16  C   UNL     1     -37.620 -49.585  13.969  1.00  0.00     0.247 C 
HETATM   17  N   UNL     1     -37.174 -50.046  15.193  1.00  0.00    -0.363 N 
HETATM   18  C   UNL     1     -37.106 -49.137  16.308  1.00  0.00     0.149 C 
HETATM   19  H   UNL     1     -36.449 -50.761  15.170  1.00  0.00     0.162 HD
HETATM   20  O   UNL     1     -38.037 -48.432  13.830  1.00  0.00    -0.271 OA
ENDBRANCH  12  16
ENDBRANCH   1  10
TORSDOF 2
ENDMDL
MODEL 9
REMARK VINA RESULT:      -5.3      5.129      6.332
REMARK  2 active torsions:
REMARK  status: ('A' for Active; 'I' for Inactive)
REMARK       I    between atoms: N_2  and  C_3 
REMARK    1  A    between atoms: C_3  and  C_5 
REMARK    2  A    between atoms: N_7  and  C_11 
ROOT
HETATM    1  C   UNL     1     -40.425 -51.829  13.374  1.00  0.00     0.103 A 
HETATM    2  C   UNL     1     -40.410 -53.219  13.243  1.00  0.00     0.050 A 
HETATM    3  C   UNL     1     -41.600 -53.932  13.086  1.00  0.00     0.028 A 
HETATM    4  C   UNL     1     -42.803 -53.248  13.071  1.00  0.00     0.060 A 
HETATM    5  C   UNL     1     -44.044 -53.927  12.878  1.00  0.00     0.101 C 
HETATM    6  N   UNL     1     -45.046 -54.486  12.711  1.00  0.00    -0.191 NA
HETATM    7  C   UNL     1     -42.755 -51.872  13.229  1.00  0.00     0.112 A 
HETATM    8  N   UNL     1     -41.603 -51.161  13.375  1.00  0.00    -0.351 N 
ATOM      9  HN  UNL     1     -41.627 -50.147  13.482  1.00  0.00     0.166 HD
ENDROOT
BRANCH   1  10
HETATM   10  N   UNL     1     -39.267 -51.105  13.482  1.00  0.00    -0.362 N 
HETATM   11  C   UNL     1     -38.486 -50.741  12.293  1.00  0.00     0.166 C 
HETATM   12  C   UNL     1     -38.292 -49.220  12.215  1.00  0.00     0.231 C 
HETATM   13  O   UNL     1     -37.666 -48.756  13.431  1.00  0.00    -0.373 OA
HETATM   14  C   UNL     1     -38.484 -49.042  14.578  1.00  0.00     0.189 C 
HETATM   15  C   UNL     1     -38.752 -50.549  14.739  1.00  0.00     0.150 C 
BRANCH  12  16
HETATM   16  C   UNL     1     -39.548 -48.402  11.815  1.00  0.00     0.247 C 
HETATM   17  N   UNL     1     -40.436 -49.006  10.945  1.00  0.00    -0.363 N 
HETATM   18  C   UNL     1     -41.630 -48.302  10.554  1.00  0.00     0.149 C 
HETATM   19  H   UNL     1     -40.533 -50.017  11.028  1.00  0.00     0.162 HD
HETATM   20  O   UNL     1     -39.715 -47.242  12.201  1.00  0.00    -0.271 OA
ENDBRANCH  12  16
ENDBRANCH   1  10
TORSDOF 2
ENDMDL
