MODEL 1
REMARK VINA RESULT:      -6.0      0.000      0.000
REMARK  5 active torsions:
REMARK  status: ('A' for Active; 'I' for Inactive)
REMARK    1  A    between atoms: N_7  and  C_8 
REMARK    2  A    between atoms: C_8  and  C_9 
REMARK    3  A    between atoms: C_9  and  N_10 
REMARK       I    between atoms: N_10  and  C_11 
REMARK    4  A    between atoms: C_11  and  C_13 
REMARK    5  A    between atoms: C_13  and  N_14 
ROOT
HETATM    1  N   UNL     1     -42.169 -50.521  12.328  1.00  0.00    -0.358 N 
HETATM    2  C   UNL     1     -41.331 -49.629  11.690  1.00  0.00     0.237 C 
HETATM    3  O   UNL     1     -40.355 -49.990  11.033  1.00  0.00    -0.272 OA
HETATM    4  H   UNL     1     -43.106 -50.196  12.578  1.00  0.00     0.162 HD
ENDROOT
BRANCH   1   5
HETATM    5  C   UNL     1     -41.968 -51.949  12.178  1.00  0.00     0.152 C 
BRANCH   5   6
HETATM    6  C   UNL     1     -43.091 -52.799  12.801  1.00  0.00     0.292 C 
BRANCH   6   7
HETATM    7  N   UNL     1     -44.243 -52.033  13.320  1.00  0.00     0.094 N 
HETATM    8  C   UNL     1     -44.291 -52.030  14.803  1.00  0.00     0.219 C 
HETATM    9  C   UNL     1     -44.357 -53.417  15.464  1.00  0.00     0.043 C 
HETATM   10  C   UNL     1     -45.450 -51.142  15.296  1.00  0.00     0.035 C 
HETATM   11  C   UNL     1     -46.790 -51.548  14.694  1.00  0.00     0.004 C 
HETATM   12  C   UNL     1     -46.687 -51.595  13.178  1.00  0.00     0.030 C 
HETATM   13  C   UNL     1     -45.513 -52.462  12.716  1.00  0.00     0.273 C 
ENDBRANCH   6   7
ENDBRANCH   5   6
ENDBRANCH   1   5
BRANCH   2  14
HETATM   14  C   UNL     1     -41.619 -48.166  11.934  1.00  0.00     0.251 C 
BRANCH  14  15
HETATM   15  N   UNL     1     -42.233 -47.532  10.786  1.00  0.00    -0.288 N 
HETATM   16  N   UNL     1     -42.564 -48.303   9.727  1.00  0.00    -0.303 N 
HETATM   17  C   UNL     1     -43.112 -47.451   8.856  1.00  0.00     0.024 A 
ATOM     18  HN  UNL     1     -42.428 -49.308   9.618  1.00  0.00     0.186 HD
HETATM   19  C   UNL     1     -43.610 -47.926   7.544  1.00  0.00     0.070 C 
HETATM   20  C   UNL     1     -43.133 -46.134   9.363  1.00  0.00     0.052 A 
HETATM   21  C   UNL     1     -42.569 -46.213  10.619  1.00  0.00     0.027 A 
HETATM   22  C   UNL     1     -42.329 -45.158  11.634  1.00  0.00     0.070 C 
ENDBRANCH  14  15
ENDBRANCH   2  14
TORSDOF 5
ENDMDL
MODEL 2
REMARK VINA RESULT:      -5.8      3.483      6.846
REMARK  5 active torsions:
REMARK  status: ('A' for Active; 'I' for Inactive)
REMARK    1  A    between atoms: N_7  and  C_8 
REMARK    2  A    between atoms: C_8  and  C_9 
REMARK    3  A    between atoms: C_9  and  N_10 
REMARK       I    between atoms: N_10  and  C_11 
REMARK    4  A    between atoms: C_11  and  C_13 
REMARK    5  A    between atoms: C_13  and  N_14 
ROOT
HETATM    1  N   UNL     1     -42.392 -52.590  11.686  1.00  0.00    -0.358 N 
HETATM    2  C   UNL     1     -42.986 -53.195  12.775  1.00  0.00     0.237 C 
HETATM    3  O   UNL     1     -42.352 -53.524  13.778  1.00  0.00    -0.272 OA
HETATM    4  H   UNL     1     -42.996 -52.070  11.045  1.00  0.00     0.162 HD
ENDROOT
BRANCH   1   5
HETATM    5  C   UNL     1     -40.985 -52.243  11.719  1.00  0.00     0.152 C 
BRANCH   5   6
HETATM    6  C   UNL     1     -40.726 -50.731  11.863  1.00  0.00     0.292 C 
BRANCH   6   7
HETATM    7  N   UNL     1     -39.841 -50.350  12.983  1.00  0.00     0.094 N 
HETATM    8  C   UNL     1     -38.757 -49.433  12.553  1.00  0.00     0.219 C 
HETATM    9  C   UNL     1     -37.843 -49.968  11.438  1.00  0.00     0.043 C 
HETATM   10  C   UNL     1     -37.921 -48.989  13.769  1.00  0.00     0.035 C 
HETATM   11  C   UNL     1     -37.372 -50.172  14.559  1.00  0.00     0.004 C 
HETATM   12  C   UNL     1     -38.502 -51.118  14.933  1.00  0.00     0.030 C 
HETATM   13  C   UNL     1     -39.331 -51.521  13.712  1.00  0.00     0.273 C 
ENDBRANCH   6   7
ENDBRANCH   5   6
ENDBRANCH   1   5
BRANCH   2  14
HETATM   14  C   UNL     1     -44.450 -53.533  12.624  1.00  0.00     0.251 C 
BRANCH  14  15
HETATM   15  N   UNL     1     -45.293 -52.689  13.445  1.00  0.00    -0.288 N 
HETATM   16  N   UNL     1     -44.990 -52.561  14.755  1.00  0.00    -0.303 N 
HETATM   17  C   UNL     1     -45.920 -51.726  15.229  1.00  0.00     0.024 A 
ATOM     18  HN  UNL     1     -44.226 -53.001  15.267  1.00  0.00     0.186 HD
HETATM   19  C   UNL     1     -45.926 -51.333  16.657  1.00  0.00     0.070 C 
HETATM   20  C   UNL     1     -46.814 -51.317  14.216  1.00  0.00     0.052 A 
HETATM   21  C   UNL     1     -46.381 -51.945  13.067  1.00  0.00     0.027 A 
HETATM   22  C   UNL     1     -46.915 -51.894  11.684  1.00  0.00     0.070 C 
ENDBRANCH  14  15
ENDBRANCH   2  14
TORSDOF 5
ENDMDL
MODEL 3
REMARK VINA RESULT:      -5.7      1.407      2.217
REMARK  5 active torsions:
REMARK  status: ('A' for Active; 'I' for Inactive)
REMARK    1  A    between atoms: N_7  and  C_8 
REMARK    2  A    between atoms: C_8  and  C_9 
REMARK    3  A    between atoms: C_9  and  N_10 
REMARK       I    between atoms: N_10  and  C_11 
REMARK    4  A    between atoms: C_11  and  C_13 
REMARK    5  A    between atoms: C_13  and  N_14 
ROOT
HETATM    1  N   UNL     1     -41.907 -50.893  11.795  1.00  0.00    -0.358 N 
HETATM    2  C   UNL     1     -41.464 -49.586  11.823  1.00  0.00     0.237 C 
HETATM    3  O   UNL     1     -41.354 -48.947  12.870  1.00  0.00    -0.272 OA
HETATM    4  H   UNL     1     -41.681 -51.452  10.969  1.00  0.00     0.162 HD
ENDROOT
BRANCH   1   5
HETATM    5  C   UNL     1     -42.190 -51.597  13.030  1.00  0.00     0.152 C 
BRANCH   5   6
HETATM    6  C   UNL     1     -43.377 -52.573  12.926  1.00  0.00     0.292 C 
BRANCH   6   7
HETATM    7  N   UNL     1     -44.452 -52.360  13.917  1.00  0.00     0.094 N 
HETATM    8  C   UNL     1     -44.808 -53.610  14.633  1.00  0.00     0.219 C 
HETATM    9  C   UNL     1     -45.263 -54.776  13.739  1.00  0.00     0.043 C 
HETATM   10  C   UNL     1     -45.862 -53.320  15.720  1.00  0.00     0.035 C 
HETATM   11  C   UNL     1     -47.098 -52.625  15.159  1.00  0.00     0.004 C 
HETATM   12  C   UNL     1     -46.690 -51.382  14.385  1.00  0.00     0.030 C 
HETATM   13  C   UNL     1     -45.625 -51.693  13.332  1.00  0.00     0.273 C 
ENDBRANCH   6   7
ENDBRANCH   5   6
ENDBRANCH   1   5
BRANCH   2  14
HETATM   14  C   UNL     1     -41.222 -48.943  10.479  1.00  0.00     0.251 C 
BRANCH  14  15
HETATM   15  N   UNL     1     -41.442 -47.512  10.511  1.00  0.00    -0.288 N 
HETATM   16  N   UNL     1     -40.371 -46.700  10.648  1.00  0.00    -0.303 N 
HETATM   17  C   UNL     1     -40.885 -45.467  10.628  1.00  0.00     0.024 A 
ATOM     18  HN  UNL     1     -39.392 -46.968  10.745  1.00  0.00     0.186 HD
HETATM   19  C   UNL     1     -40.009 -44.280  10.756  1.00  0.00     0.070 C 
HETATM   20  C   UNL     1     -42.288 -45.493  10.472  1.00  0.00     0.052 A 
HETATM   21  C   UNL     1     -42.625 -46.828  10.387  1.00  0.00     0.027 A 
HETATM   22  C   UNL     1     -43.947 -47.477  10.210  1.00  0.00     0.070 C 
ENDBRANCH  14  15
ENDBRANCH   2  14
TORSDOF 5
ENDMDL
MODEL 4
REMARK VINA RESULT:      -5.7      1.950      2.892
REMARK  5 active torsions:
REMARK  status: ('A' for Active; 'I' for Inactive)
REMARK    1  A    between atoms: N_7  and  C_8 
REMARK    2  A    between atoms: C_8  and  C_9 
REMARK    3  A    between atoms: C_9  and  N_10 
REMARK       I    between atoms: N_10  and  C_11 
REMARK    4  A    between atoms: C_11  and  C_13 
REMARK    5  A    between atoms: C_13  and  N_14 
ROOT
HETATM    1  N   UNL     1     -41.494 -53.521  13.047  1.00  0.00    -0.358 N 
HETATM    2  C   UNL     1     -41.124 -52.198  13.181  1.00  0.00     0.237 C 
HETATM    3  O   UNL     1     -41.487 -51.502  14.129  1.00  0.00    -0.272 OA
HETATM    4  H   UNL     1     -40.924 -54.113  12.438  1.00  0.00     0.162 HD
ENDROOT
BRANCH   1   5
HETATM    5  C   UNL     1     -42.276 -54.171  14.080  1.00  0.00     0.152 C 
BRANCH   5   6
HETATM    6  C   UNL     1     -43.773 -54.288  13.739  1.00  0.00     0.292 C 
BRANCH   6   7
HETATM    7  N   UNL     1     -44.554 -53.044  13.906  1.00  0.00     0.094 N 
HETATM    8  C   UNL     1     -44.938 -52.811  15.320  1.00  0.00     0.219 C 
HETATM    9  C   UNL     1     -45.762 -53.934  15.974  1.00  0.00     0.043 C 
HETATM   10  C   UNL     1     -45.665 -51.459  15.458  1.00  0.00     0.035 C 
HETATM   11  C   UNL     1     -46.867 -51.348  14.526  1.00  0.00     0.004 C 
HETATM   12  C   UNL     1     -46.446 -51.649  13.096  1.00  0.00     0.030 C 
HETATM   13  C   UNL     1     -45.704 -52.983  12.992  1.00  0.00     0.273 C 
ENDBRANCH   6   7
ENDBRANCH   5   6
ENDBRANCH   1   5
BRANCH   2  14
HETATM   14  C   UNL     1     -40.330 -51.616  12.035  1.00  0.00     0.251 C 
BRANCH  14  15
HETATM   15  N   UNL     1     -40.675 -50.234  11.779  1.00  0.00    -0.288 N 
HETATM   16  N   UNL     1     -41.978 -49.915  11.621  1.00  0.00    -0.303 N 
HETATM   17  C   UNL     1     -41.974 -48.595  11.419  1.00  0.00     0.024 A 
ATOM     18  HN  UNL     1     -42.783 -50.541  11.649  1.00  0.00     0.186 HD
HETATM   19  C   UNL     1     -43.241 -47.859  11.199  1.00  0.00     0.070 C 
HETATM   20  C   UNL     1     -40.664 -48.069  11.454  1.00  0.00     0.052 A 
HETATM   21  C   UNL     1     -39.841 -49.148  11.700  1.00  0.00     0.027 A 
HETATM   22  C   UNL     1     -38.367 -49.218  11.852  1.00  0.00     0.070 C 
ENDBRANCH  14  15
ENDBRANCH   2  14
TORSDOF 5
ENDMDL
MODEL 5
REMARK VINA RESULT:      -5.6      2.857      7.459
REMARK  5 active torsions:
REMARK  status: ('A' for Active; 'I' for Inactive)
REMARK    1  A    between atoms: N_7  and  C_8 
REMARK    2  A    between atoms: C_8  and  C_9 
REMARK    3  A    between atoms: C_9  and  N_10 
REMARK       I    between atoms: N_10  and  C_11 
REMARK    4  A    between atoms: C_11  and  C_13 
REMARK    5  A    between atoms: C_13  and  N_14 
ROOT
HETATM    1  N   UNL     1     -40.519 -50.801  11.325  1.00  0.00    -0.358 N 
HETATM    2  C   UNL     1     -41.455 -51.545  12.014  1.00  0.00     0.237 C 
HETATM    3  O   UNL     1     -42.391 -51.029  12.626  1.00  0.00    -0.272 OA
HETATM    4  H   UNL     1     -39.976 -51.277  10.600  1.00  0.00     0.162 HD
ENDROOT
BRANCH   1   5
HETATM    5  C   UNL     1     -40.654 -49.361  11.231  1.00  0.00     0.152 C 
BRANCH   5   6
HETATM    6  C   UNL     1     -39.902 -48.597  12.337  1.00  0.00     0.292 C 
BRANCH   6   7
HETATM    7  N   UNL     1     -39.591 -47.187  12.026  1.00  0.00     0.094 N 
HETATM    8  C   UNL     1     -39.678 -46.317  13.224  1.00  0.00     0.219 C 
HETATM    9  C   UNL     1     -41.040 -46.315  13.940  1.00  0.00     0.043 C 
HETATM   10  C   UNL     1     -39.253 -44.878  12.870  1.00  0.00     0.035 C 
HETATM   11  C   UNL     1     -40.052 -44.307  11.705  1.00  0.00     0.004 C 
HETATM   12  C   UNL     1     -39.986 -45.252  10.515  1.00  0.00     0.030 C 
HETATM   13  C   UNL     1     -40.387 -46.677  10.900  1.00  0.00     0.273 C 
ENDBRANCH   6   7
ENDBRANCH   5   6
ENDBRANCH   1   5
BRANCH   2  14
HETATM   14  C   UNL     1     -41.205 -53.033  12.067  1.00  0.00     0.251 C 
BRANCH  14  15
HETATM   15  N   UNL     1     -42.092 -53.703  12.995  1.00  0.00    -0.288 N 
HETATM   16  N   UNL     1     -43.393 -53.837  12.658  1.00  0.00    -0.303 N 
HETATM   17  C   UNL     1     -43.936 -54.495  13.686  1.00  0.00     0.024 A 
ATOM     18  HN  UNL     1     -43.856 -53.510  11.810  1.00  0.00     0.186 HD
HETATM   19  C   UNL     1     -45.377 -54.836  13.689  1.00  0.00     0.070 C 
HETATM   20  C   UNL     1     -42.976 -54.786  14.680  1.00  0.00     0.052 A 
HETATM   21  C   UNL     1     -41.787 -54.273  14.205  1.00  0.00     0.027 A 
HETATM   22  C   UNL     1     -40.430 -54.280  14.803  1.00  0.00     0.070 C 
ENDBRANCH  14  15
ENDBRANCH   2  14
TORSDOF 5
ENDMDL
MODEL 6
REMARK VINA RESULT:      -5.6      1.411      2.150
REMARK  5 active torsions:
REMARK  status: ('A' for Active; 'I' for Inactive)
REMARK    1  A    between atoms: N_7  and  C_8 
REMARK    2  A    between atoms: C_8  and  C_9 
REMARK    3  A    between atoms: C_9  and  N_10 
REMARK       I    between atoms: N_10  and  C_11 
REMARK    4  A    between atoms: C_11  and  C_13 
REMARK    5  A    between atoms: C_13  and  N_14 
ROOT
HETATM    1  N   UNL     1     -41.298 -51.572  11.689  1.00  0.00    -0.358 N 
HETATM    2  C   UNL     1     -41.281 -50.244  12.066  1.00  0.00     0.237 C 
HETATM    3  O   UNL     1     -41.822 -49.840  13.095  1.00  0.00    -0.272 OA
HETATM    4  H   UNL     1     -40.588 -51.885  11.023  1.00  0.00     0.162 HD
ENDROOT
BRANCH   1   5
HETATM    5  C   UNL     1     -41.901 -52.569  12.551  1.00  0.00     0.152 C 
BRANCH   5   6
HETATM    6  C   UNL     1     -43.385 -52.839  12.239  1.00  0.00     0.292 C 
BRANCH   6   7
HETATM    7  N   UNL     1     -44.145 -53.496  13.323  1.00  0.00     0.094 N 
HETATM    8  C   UNL     1     -45.556 -53.041  13.372  1.00  0.00     0.219 C 
HETATM    9  C   UNL     1     -45.756 -51.527  13.555  1.00  0.00     0.043 C 
HETATM   10  C   UNL     1     -46.330 -53.822  14.452  1.00  0.00     0.035 C 
HETATM   11  C   UNL     1     -45.666 -53.733  15.821  1.00  0.00     0.004 C 
HETATM   12  C   UNL     1     -44.208 -54.152  15.720  1.00  0.00     0.030 C 
HETATM   13  C   UNL     1     -43.471 -53.380  14.624  1.00  0.00     0.273 C 
ENDBRANCH   6   7
ENDBRANCH   5   6
ENDBRANCH   1   5
BRANCH   2  14
HETATM   14  C   UNL     1     -40.647 -49.289  11.082  1.00  0.00     0.251 C 
BRANCH  14  15
HETATM   15  N   UNL     1     -41.551 -48.226  10.695  1.00  0.00    -0.288 N 
HETATM   16  N   UNL     1     -42.819 -48.551  10.360  1.00  0.00    -0.303 N 
HETATM   17  C   UNL     1     -43.396 -47.380  10.073  1.00  0.00     0.024 A 
ATOM     18  HN  UNL     1     -43.240 -49.479  10.333  1.00  0.00     0.186 HD
HETATM   19  C   UNL     1     -44.815 -47.319   9.654  1.00  0.00     0.070 C 
HETATM   20  C   UNL     1     -42.494 -46.305  10.231  1.00  0.00     0.052 A 
HETATM   21  C   UNL     1     -41.309 -46.876  10.645  1.00  0.00     0.027 A 
HETATM   22  C   UNL     1     -40.005 -46.252  10.978  1.00  0.00     0.070 C 
ENDBRANCH  14  15
ENDBRANCH   2  14
TORSDOF 5
ENDMDL
MODEL 7
REMARK VINA RESULT:      -5.5      1.807      2.939
REMARK  5 active torsions:
REMARK  status: ('A' for Active; 'I' for Inactive)
REMARK    1  A    between atoms: N_7  and  C_8 
REMARK    2  A    between atoms: C_8  and  C_9 
REMARK    3  A    between atoms: C_9  and  N_10 
REMARK       I    between atoms: N_10  and  C_11 
REMARK    4  A    between atoms: C_11  and  C_13 
REMARK    5  A    between atoms: C_13  and  N_14 
ROOT
HETATM    1  N   UNL     1     -41.939 -50.449  11.765  1.00  0.00    -0.358 N 
HETATM    2  C   UNL     1     -41.295 -49.316  11.310  1.00  0.00     0.237 C 
HETATM    3  O   UNL     1     -40.071 -49.191  11.345  1.00  0.00    -0.272 OA
HETATM    4  H   UNL     1     -42.889 -50.621  11.428  1.00  0.00     0.162 HD
ENDROOT
BRANCH   1   5
HETATM    5  C   UNL     1     -41.174 -51.586  12.237  1.00  0.00     0.152 C 
BRANCH   5   6
HETATM    6  C   UNL     1     -41.616 -52.095  13.622  1.00  0.00     0.292 C 
BRANCH   6   7
HETATM    7  N   UNL     1     -42.494 -53.283  13.603  1.00  0.00     0.094 N 
HETATM    8  C   UNL     1     -43.835 -52.980  13.047  1.00  0.00     0.219 C 
HETATM    9  C   UNL     1     -44.616 -51.872  13.775  1.00  0.00     0.043 C 
HETATM   10  C   UNL     1     -44.679 -54.266  12.959  1.00  0.00     0.035 C 
HETATM   11  C   UNL     1     -44.780 -54.988  14.298  1.00  0.00     0.004 C 
HETATM   12  C   UNL     1     -43.389 -55.231  14.864  1.00  0.00     0.030 C 
HETATM   13  C   UNL     1     -42.565 -53.943  14.916  1.00  0.00     0.273 C 
ENDBRANCH   6   7
ENDBRANCH   5   6
ENDBRANCH   1   5
BRANCH   2  14
HETATM   14  C   UNL     1     -42.189 -48.184  10.863  1.00  0.00     0.251 C 
BRANCH  14  15
HETATM   15  N   UNL     1     -41.559 -46.892  11.030  1.00  0.00    -0.288 N 
HETATM   16  N   UNL     1     -40.632 -46.507  10.125  1.00  0.00    -0.303 N 
HETATM   17  C   UNL     1     -40.255 -45.292  10.534  1.00  0.00     0.024 A 
ATOM     18  HN  UNL     1     -40.297 -47.027   9.315  1.00  0.00     0.186 HD
HETATM   19  C   UNL     1     -39.232 -44.527   9.785  1.00  0.00     0.070 C 
HETATM   20  C   UNL     1     -40.948 -44.899  11.700  1.00  0.00     0.052 A 
HETATM   21  C   UNL     1     -41.795 -45.947  11.996  1.00  0.00     0.027 A 
HETATM   22  C   UNL     1     -42.773 -46.110  13.099  1.00  0.00     0.070 C 
ENDBRANCH  14  15
ENDBRANCH   2  14
TORSDOF 5
ENDMDL
MODEL 8
REMARK VINA RESULT:      -5.4      2.495      3.081
REMARK  5 active torsions:
REMARK  status: ('A' for Active; 'I' for Inactive)
REMARK    1  A    between atoms: N_7  and  C_8 
REMARK    2  A    between atoms: C_8  and  C_9 
REMARK    3  A    between atoms: C_9  and  N_10 
REMARK       I    between atoms: N_10  and  C_11 
REMARK    4  A    between atoms: C_11  and  C_13 
REMARK    5  A    between atoms: C_13  and  N_14 
ROOT
HETATM    1  N   UNL     1     -41.335 -50.164  11.720  1.00  0.00    -0.358 N 
HETATM    2  C   UNL     1     -42.372 -49.496  12.339  1.00  0.00     0.237 C 
HETATM    3  O   UNL     1     -43.316 -50.083  12.868  1.00  0.00    -0.272 OA
HETATM    4  H   UNL     1     -40.457 -49.657  11.588  1.00  0.00     0.162 HD
ENDROOT
BRANCH   1   5
HETATM    5  C   UNL     1     -41.281 -51.612  11.741  1.00  0.00     0.152 C 
BRANCH   5   6
HETATM    6  C   UNL     1     -40.476 -52.182  12.923  1.00  0.00     0.292 C 
BRANCH   6   7
HETATM    7  N   UNL     1     -41.273 -52.909  13.933  1.00  0.00     0.094 N 
HETATM    8  C   UNL     1     -40.418 -53.631  14.907  1.00  0.00     0.219 C 
HETATM    9  C   UNL     1     -39.446 -54.656  14.299  1.00  0.00     0.043 C 
HETATM   10  C   UNL     1     -41.289 -54.292  15.993  1.00  0.00     0.035 C 
HETATM   11  C   UNL     1     -42.358 -55.205  15.404  1.00  0.00     0.004 C 
HETATM   12  C   UNL     1     -43.177 -54.448  14.370  1.00  0.00     0.030 C 
HETATM   13  C   UNL     1     -42.287 -53.780  13.320  1.00  0.00     0.273 C 
ENDBRANCH   6   7
ENDBRANCH   5   6
ENDBRANCH   1   5
BRANCH   2  14
HETATM   14  C   UNL     1     -42.340 -47.989  12.236  1.00  0.00     0.251 C 
BRANCH  14  15
HETATM   15  N   UNL     1     -42.988 -47.510  11.033  1.00  0.00    -0.288 N 
HETATM   16  N   UNL     1     -44.155 -48.080  10.661  1.00  0.00    -0.303 N 
HETATM   17  C   UNL     1     -44.502 -47.428   9.548  1.00  0.00     0.024 A 
ATOM     18  HN  UNL     1     -44.657 -48.837  11.125  1.00  0.00     0.186 HD
HETATM   19  C   UNL     1     -45.749 -47.773   8.827  1.00  0.00     0.070 C 
HETATM   20  C   UNL     1     -43.555 -46.435   9.213  1.00  0.00     0.052 A 
HETATM   21  C   UNL     1     -42.590 -46.500  10.195  1.00  0.00     0.027 A 
HETATM   22  C   UNL     1     -41.354 -45.701  10.383  1.00  0.00     0.070 C 
ENDBRANCH  14  15
ENDBRANCH   2  14
TORSDOF 5
ENDMDL
MODEL 9
REMARK VINA RESULT:      -5.3      1.638      2.244
REMARK  5 active torsions:
REMARK  status: ('A' for Active; 'I' for Inactive)
REMARK    1  A    between atoms: N_7  and  C_8 
REMARK    2  A    between atoms: C_8  and  C_9 
REMARK    3  A    between atoms: C_9  and  N_10 
REMARK       I    between atoms: N_10  and  C_11 
REMARK    4  A    between atoms: C_11  and  C_13 
REMARK    5  A    between atoms: C_13  and  N_14 
ROOT
HETATM    1  N   UNL     1     -42.683 -49.315  14.085  1.00  0.00    -0.358 N 
HETATM    2  C   UNL     1     -42.211 -49.179  12.795  1.00  0.00     0.237 C 
HETATM    3  O   UNL     1     -42.015 -50.144  12.056  1.00  0.00    -0.272 OA
HETATM    4  H   UNL     1     -43.115 -48.496  14.521  1.00  0.00     0.162 HD
ENDROOT
BRANCH   1   5
HETATM    5  C   UNL     1     -43.046 -50.622  14.597  1.00  0.00     0.152 C 
BRANCH   5   6
HETATM    6  C   UNL     1     -44.488 -51.040  14.253  1.00  0.00     0.292 C 
BRANCH   6   7
HETATM    7  N   UNL     1     -44.816 -52.453  14.536  1.00  0.00     0.094 N 
HETATM    8  C   UNL     1     -43.898 -53.390  13.842  1.00  0.00     0.219 C 
HETATM    9  C   UNL     1     -43.848 -53.251  12.311  1.00  0.00     0.043 C 
HETATM   10  C   UNL     1     -44.218 -54.843  14.242  1.00  0.00     0.035 C 
HETATM   11  C   UNL     1     -45.678 -55.206  13.995  1.00  0.00     0.004 C 
HETATM   12  C   UNL     1     -46.588 -54.193  14.673  1.00  0.00     0.030 C 
HETATM   13  C   UNL     1     -46.231 -52.758  14.279  1.00  0.00     0.273 C 
ENDBRANCH   6   7
ENDBRANCH   5   6
ENDBRANCH   1   5
BRANCH   2  14
HETATM   14  C   UNL     1     -41.842 -47.776  12.374  1.00  0.00     0.251 C 
BRANCH  14  15
HETATM   15  N   UNL     1     -42.580 -47.346  11.204  1.00  0.00    -0.288 N 
HETATM   16  N   UNL     1     -43.746 -47.966  10.917  1.00  0.00    -0.303 N 
HETATM   17  C   UNL     1     -44.186 -47.349   9.816  1.00  0.00     0.024 A 
ATOM     18  HN  UNL     1     -44.190 -48.730  11.425  1.00  0.00     0.186 HD
HETATM   19  C   UNL     1     -45.461 -47.754   9.181  1.00  0.00     0.070 C 
HETATM   20  C   UNL     1     -43.300 -46.330   9.404  1.00  0.00     0.052 A 
HETATM   21  C   UNL     1     -42.273 -46.339  10.325  1.00  0.00     0.027 A 
HETATM   22  C   UNL     1     -41.059 -45.493  10.420  1.00  0.00     0.070 C 
ENDBRANCH  14  15
ENDBRANCH   2  14
TORSDOF 5
ENDMDL
