MODEL 1
REMARK VINA RESULT:      -6.2      0.000      0.000
REMARK  6 active torsions:
REMARK  status: ('A' for Active; 'I' for Inactive)
REMARK    1  A    between atoms: C_2  and  O_3 
REMARK    2  A    between atoms: C_2  and  C_9 
REMARK    3  A    between atoms: O_3  and  C_4 
REMARK    4  A    between atoms: C_4  and  C_5 
REMARK       I    between atoms: C_9  and  N_11 
REMARK    5  A    between atoms: N_11  and  C_12 
REMARK    6  A    between atoms: C_15  and  N_19 
ROOT
HETATM    1  C   UNL     1     -43.092 -51.506  13.236  1.00  0.00     0.050 A 
HETATM    2  C   UNL     1     -43.518 -50.218  13.509  1.00  0.00     0.035 A 
HETATM    3  C   UNL     1     -43.001 -49.155  12.785  1.00  0.00     0.051 A 
HETATM    4  C   UNL     1     -42.047 -49.367  11.797  1.00  0.00     0.103 A 
HETATM    5  N   UNL     1     -41.520 -50.601  11.616  1.00  0.00    -0.350 N 
ATOM      6  HN  UNL     1     -40.748 -50.752  10.967  1.00  0.00     0.166 HD
HETATM    7  C   UNL     1     -42.048 -51.634  12.325  1.00  0.00     0.119 A 
ENDROOT
BRANCH   1   8
HETATM    8  N   UNL     1     -43.698 -52.635  13.833  1.00  0.00    -0.324 N 
HETATM    9  C   UNL     1     -44.707 -53.369  13.210  1.00  0.00     0.250 C 
HETATM   10  O   UNL     1     -45.146 -53.146  12.085  1.00  0.00    -0.270 OA
HETATM   11  H   UNL     1     -43.231 -53.038  14.637  1.00  0.00     0.169 HD
BRANCH   9  12
HETATM   12  C   UNL     1     -45.206 -54.581  14.025  1.00  0.00     0.209 C 
HETATM   13  C   UNL     1     -43.975 -55.250  14.641  1.00  0.00     0.050 C 
BRANCH  12  14
HETATM   14  O   UNL     1     -46.090 -54.257  15.099  1.00  0.00    -0.368 OA
BRANCH  14  15
HETATM   15  C   UNL     1     -47.119 -53.320  14.758  1.00  0.00     0.286 C 
BRANCH  15  16
HETATM   16  C   UNL     1     -46.940 -51.935  15.389  1.00  0.00     0.408 C 
HETATM   17  F   UNL     1     -45.812 -51.819  16.115  1.00  0.00    -0.169 F 
HETATM   18  F   UNL     1     -46.912 -50.980  14.429  1.00  0.00    -0.169 F 
HETATM   19  F   UNL     1     -47.986 -51.648  16.202  1.00  0.00    -0.169 F 
ENDBRANCH  15  16
ENDBRANCH  14  15
ENDBRANCH  12  14
ENDBRANCH   9  12
ENDBRANCH   1   8
BRANCH   4  20
HETATM   20  N   UNL     1     -41.660 -48.319  10.989  1.00  0.00    -0.367 N 
HETATM   21  C   UNL     1     -40.440 -47.571  11.278  1.00  0.00     0.124 C 
HETATM   22  C   UNL     1     -40.758 -46.094  11.492  1.00  0.00     0.020 C 
HETATM   23  C   UNL     1     -41.569 -45.532  10.331  1.00  0.00     0.003 C 
HETATM   24  C   UNL     1     -42.843 -46.350  10.123  1.00  0.00     0.020 C 
HETATM   25  C   UNL     1     -42.536 -47.833   9.936  1.00  0.00     0.124 C 
ENDBRANCH   4  20
TORSDOF 6
ENDMDL
MODEL 2
REMARK VINA RESULT:      -6.1      1.835      2.451
REMARK  6 active torsions:
REMARK  status: ('A' for Active; 'I' for Inactive)
REMARK    1  A    between atoms: C_2  and  O_3 
REMARK    2  A    between atoms: C_2  and  C_9 
REMARK    3  A    between atoms: O_3  and  C_4 
REMARK    4  A    between atoms: C_4  and  C_5 
REMARK       I    between atoms: C_9  and  N_11 
REMARK    5  A    between atoms: N_11  and  C_12 
REMARK    6  A    between atoms: C_15  and  N_19 
ROOT
HETATM    1  C   UNL     1     -41.958 -50.438  12.249  1.00  0.00     0.050 A 
HETATM    2  C   UNL     1     -42.475 -49.305  12.854  1.00  0.00     0.035 A 
HETATM    3  C   UNL     1     -41.768 -48.114  12.803  1.00  0.00     0.051 A 
HETATM    4  C   UNL     1     -40.537 -48.048  12.163  1.00  0.00     0.103 A 
HETATM    5  N   UNL     1     -39.955 -49.176  11.691  1.00  0.00    -0.350 N 
ATOM      6  HN  UNL     1     -39.008 -49.159  11.312  1.00  0.00     0.166 HD
HETATM    7  C   UNL     1     -40.668 -50.332  11.738  1.00  0.00     0.119 A 
ENDROOT
BRANCH   1   8
HETATM    8  N   UNL     1     -42.705 -51.631  12.137  1.00  0.00    -0.324 N 
HETATM    9  C   UNL     1     -42.738 -52.599  13.142  1.00  0.00     0.250 C 
HETATM   10  O   UNL     1     -42.166 -52.508  14.225  1.00  0.00    -0.270 OA
HETATM   11  H   UNL     1     -43.398 -51.675  11.400  1.00  0.00     0.169 HD
BRANCH   9  12
HETATM   12  C   UNL     1     -43.641 -53.810  12.828  1.00  0.00     0.209 C 
HETATM   13  C   UNL     1     -43.887 -54.547  14.147  1.00  0.00     0.050 C 
BRANCH  12  14
HETATM   14  O   UNL     1     -44.921 -53.478  12.288  1.00  0.00    -0.368 OA
BRANCH  14  15
HETATM   15  C   UNL     1     -45.883 -53.053  13.260  1.00  0.00     0.286 C 
BRANCH  15  16
HETATM   16  C   UNL     1     -46.425 -51.637  13.031  1.00  0.00     0.408 C 
HETATM   17  F   UNL     1     -45.457 -50.712  12.888  1.00  0.00    -0.169 F 
HETATM   18  F   UNL     1     -47.196 -51.603  11.918  1.00  0.00    -0.169 F 
HETATM   19  F   UNL     1     -47.209 -51.259  14.069  1.00  0.00    -0.169 F 
ENDBRANCH  15  16
ENDBRANCH  14  15
ENDBRANCH  12  14
ENDBRANCH   9  12
ENDBRANCH   1   8
BRANCH   4  20
HETATM   20  N   UNL     1     -39.923 -46.824  11.993  1.00  0.00    -0.367 N 
HETATM   21  C   UNL     1     -39.251 -46.170  13.112  1.00  0.00     0.124 C 
HETATM   22  C   UNL     1     -39.869 -44.799  13.377  1.00  0.00     0.020 C 
HETATM   23  C   UNL     1     -39.915 -43.961  12.105  1.00  0.00     0.003 C 
HETATM   24  C   UNL     1     -40.666 -44.705  11.002  1.00  0.00     0.020 C 
HETATM   25  C   UNL     1     -40.072 -46.088  10.749  1.00  0.00     0.124 C 
ENDBRANCH   4  20
TORSDOF 6
ENDMDL
MODEL 3
REMARK VINA RESULT:      -5.8      2.543      3.688
REMARK  6 active torsions:
REMARK  status: ('A' for Active; 'I' for Inactive)
REMARK    1  A    between atoms: C_2  and  O_3 
REMARK    2  A    between atoms: C_2  and  C_9 
REMARK    3  A    between atoms: O_3  and  C_4 
REMARK    4  A    between atoms: C_4  and  C_5 
REMARK       I    between atoms: C_9  and  N_11 
REMARK    5  A    between atoms: N_11  and  C_12 
REMARK    6  A    between atoms: C_15  and  N_19 
ROOT
HETATM    1  C   UNL     1     -42.130 -48.989  11.715  1.00  0.00     0.050 A 
HETATM    2  C   UNL     1     -42.702 -48.036  12.539  1.00  0.00     0.035 A 
HETATM    3  C   UNL     1     -42.444 -46.692  12.319  1.00  0.00     0.051 A 
HETATM    4  C   UNL     1     -41.602 -46.291  11.288  1.00  0.00     0.103 A 
HETATM    5  N   UNL     1     -40.926 -47.215  10.566  1.00  0.00    -0.350 N 
ATOM      6  HN  UNL     1     -40.229 -46.935   9.876  1.00  0.00     0.166 HD
HETATM    7  C   UNL     1     -41.202 -48.529  10.786  1.00  0.00     0.119 A 
ENDROOT
BRANCH   1   8
HETATM    8  N   UNL     1     -42.482 -50.355  11.796  1.00  0.00    -0.324 N 
HETATM    9  C   UNL     1     -41.785 -51.269  12.588  1.00  0.00     0.250 C 
HETATM   10  O   UNL     1     -40.834 -50.989  13.313  1.00  0.00    -0.270 OA
HETATM   11  H   UNL     1     -43.392 -50.620  11.438  1.00  0.00     0.169 HD
BRANCH   9  12
HETATM   12  C   UNL     1     -42.356 -52.702  12.555  1.00  0.00     0.209 C 
HETATM   13  C   UNL     1     -41.238 -53.646  13.003  1.00  0.00     0.050 C 
BRANCH  12  14
HETATM   14  O   UNL     1     -43.467 -52.923  13.426  1.00  0.00    -0.368 OA
BRANCH  14  15
HETATM   15  C   UNL     1     -44.386 -53.924  12.973  1.00  0.00     0.286 C 
BRANCH  15  16
HETATM   16  C   UNL     1     -44.841 -54.899  14.065  1.00  0.00     0.408 C 
HETATM   17  F   UNL     1     -45.680 -55.851  13.616  1.00  0.00    -0.169 F 
HETATM   18  F   UNL     1     -43.771 -55.519  14.617  1.00  0.00    -0.169 F 
HETATM   19  F   UNL     1     -45.469 -54.230  15.062  1.00  0.00    -0.169 F 
ENDBRANCH  15  16
ENDBRANCH  14  15
ENDBRANCH  12  14
ENDBRANCH   9  12
ENDBRANCH   1   8
BRANCH   4  20
HETATM   20  N   UNL     1     -41.479 -44.950  10.994  1.00  0.00    -0.367 N 
HETATM   21  C   UNL     1     -40.161 -44.328  10.903  1.00  0.00     0.124 C 
HETATM   22  C   UNL     1     -40.041 -43.185  11.907  1.00  0.00     0.020 C 
HETATM   23  C   UNL     1     -41.200 -42.205  11.766  1.00  0.00     0.003 C 
HETATM   24  C   UNL     1     -42.535 -42.933  11.911  1.00  0.00     0.020 C 
HETATM   25  C   UNL     1     -42.653 -44.095  10.929  1.00  0.00     0.124 C 
ENDBRANCH   4  20
TORSDOF 6
ENDMDL
MODEL 4
REMARK VINA RESULT:      -5.7      1.951      2.967
REMARK  6 active torsions:
REMARK  status: ('A' for Active; 'I' for Inactive)
REMARK    1  A    between atoms: C_2  and  O_3 
REMARK    2  A    between atoms: C_2  and  C_9 
REMARK    3  A    between atoms: O_3  and  C_4 
REMARK    4  A    between atoms: C_4  and  C_5 
REMARK       I    between atoms: C_9  and  N_11 
REMARK    5  A    between atoms: N_11  and  C_12 
REMARK    6  A    between atoms: C_15  and  N_19 
ROOT
HETATM    1  C   UNL     1     -41.753 -49.736  12.191  1.00  0.00     0.050 A 
HETATM    2  C   UNL     1     -41.389 -49.083  13.356  1.00  0.00     0.035 A 
HETATM    3  C   UNL     1     -40.698 -47.883  13.285  1.00  0.00     0.051 A 
HETATM    4  C   UNL     1     -40.352 -47.336  12.055  1.00  0.00     0.103 A 
HETATM    5  N   UNL     1     -40.576 -48.032  10.915  1.00  0.00    -0.350 N 
ATOM      6  HN  UNL     1     -40.236 -47.690  10.016  1.00  0.00     0.166 HD
HETATM    7  C   UNL     1     -41.267 -49.200  11.002  1.00  0.00     0.119 A 
ENDROOT
BRANCH   1   8
HETATM    8  N   UNL     1     -42.589 -50.875  12.204  1.00  0.00    -0.324 N 
HETATM    9  C   UNL     1     -42.113 -52.159  12.469  1.00  0.00     0.250 C 
HETATM   10  O   UNL     1     -40.950 -52.433  12.751  1.00  0.00    -0.270 OA
HETATM   11  H   UNL     1     -43.589 -50.713  12.233  1.00  0.00     0.169 HD
BRANCH   9  12
HETATM   12  C   UNL     1     -43.201 -53.253  12.464  1.00  0.00     0.209 C 
HETATM   13  C   UNL     1     -43.239 -53.861  13.868  1.00  0.00     0.050 C 
BRANCH  12  14
HETATM   14  O   UNL     1     -44.519 -52.785  12.173  1.00  0.00    -0.368 OA
BRANCH  14  15
HETATM   15  C   UNL     1     -45.463 -52.974  13.234  1.00  0.00     0.286 C 
BRANCH  15  16
HETATM   16  C   UNL     1     -46.251 -51.713  13.605  1.00  0.00     0.408 C 
HETATM   17  F   UNL     1     -46.963 -51.207  12.579  1.00  0.00    -0.169 F 
HETATM   18  F   UNL     1     -47.114 -51.977  14.614  1.00  0.00    -0.169 F 
HETATM   19  F   UNL     1     -45.412 -50.744  14.043  1.00  0.00    -0.169 F 
ENDBRANCH  15  16
ENDBRANCH  14  15
ENDBRANCH  12  14
ENDBRANCH   9  12
ENDBRANCH   1   8
BRANCH   4  20
HETATM   20  N   UNL     1     -39.801 -46.073  12.004  1.00  0.00    -0.367 N 
HETATM   21  C   UNL     1     -39.293 -45.436  13.215  1.00  0.00     0.124 C 
HETATM   22  C   UNL     1     -40.019 -44.117  13.466  1.00  0.00     0.020 C 
HETATM   23  C   UNL     1     -39.980 -43.223  12.232  1.00  0.00     0.003 C 
HETATM   24  C   UNL     1     -40.561 -43.955  11.024  1.00  0.00     0.020 C 
HETATM   25  C   UNL     1     -39.860 -45.289  10.781  1.00  0.00     0.124 C 
ENDBRANCH   4  20
TORSDOF 6
ENDMDL
MODEL 5
REMARK VINA RESULT:      -5.6      3.364      4.160
REMARK  6 active torsions:
REMARK  status: ('A' for Active; 'I' for Inactive)
REMARK    1  A    between atoms: C_2  and  O_3 
REMARK    2  A    between atoms: C_2  and  C_9 
REMARK    3  A    between atoms: O_3  and  C_4 
REMARK    4  A    between atoms: C_4  and  C_5 
REMARK       I    between atoms: C_9  and  N_11 
REMARK    5  A    between atoms: N_11  and  C_12 
REMARK    6  A    between atoms: C_15  and  N_19 
ROOT
HETATM    1  C   UNL     1     -41.214 -52.403  14.085  1.00  0.00     0.050 A 
HETATM    2  C   UNL     1     -39.958 -52.905  13.793  1.00  0.00     0.035 A 
HETATM    3  C   UNL     1     -38.842 -52.099  13.948  1.00  0.00     0.051 A 
HETATM    4  C   UNL     1     -38.971 -50.784  14.381  1.00  0.00     0.103 A 
HETATM    5  N   UNL     1     -40.200 -50.238  14.534  1.00  0.00    -0.350 N 
ATOM      6  HN  UNL     1     -40.311 -49.247  14.752  1.00  0.00     0.166 HD
HETATM    7  C   UNL     1     -41.284 -51.047  14.391  1.00  0.00     0.119 A 
ENDROOT
BRANCH   1   8
HETATM    8  N   UNL     1     -42.363 -53.224  14.094  1.00  0.00    -0.324 N 
HETATM    9  C   UNL     1     -43.239 -53.310  13.012  1.00  0.00     0.250 C 
HETATM   10  O   UNL     1     -43.094 -52.725  11.942  1.00  0.00    -0.270 OA
HETATM   11  H   UNL     1     -42.424 -53.925  14.824  1.00  0.00     0.169 HD
BRANCH   9  12
HETATM   12  C   UNL     1     -44.412 -54.290  13.220  1.00  0.00     0.209 C 
HETATM   13  C   UNL     1     -44.406 -54.697  14.696  1.00  0.00     0.050 C 
BRANCH  12  14
HETATM   14  O   UNL     1     -45.703 -53.747  12.940  1.00  0.00    -0.368 OA
BRANCH  14  15
HETATM   15  C   UNL     1     -46.312 -53.065  14.043  1.00  0.00     0.286 C 
BRANCH  15  16
HETATM   16  C   UNL     1     -46.456 -51.552  13.842  1.00  0.00     0.408 C 
HETATM   17  F   UNL     1     -45.291 -50.885  13.953  1.00  0.00    -0.169 F 
HETATM   18  F   UNL     1     -46.968 -51.286  12.617  1.00  0.00    -0.169 F 
HETATM   19  F   UNL     1     -47.316 -51.035  14.753  1.00  0.00    -0.169 F 
ENDBRANCH  15  16
ENDBRANCH  14  15
ENDBRANCH  12  14
ENDBRANCH   9  12
ENDBRANCH   1   8
BRANCH   4  20
HETATM   20  N   UNL     1     -37.840 -50.050  14.672  1.00  0.00    -0.367 N 
HETATM   21  C   UNL     1     -37.066 -50.328  15.878  1.00  0.00     0.124 C 
HETATM   22  C   UNL     1     -36.993 -49.085  16.761  1.00  0.00     0.020 C 
HETATM   23  C   UNL     1     -36.500 -47.877  15.972  1.00  0.00     0.003 C 
HETATM   24  C   UNL     1     -37.387 -47.639  14.751  1.00  0.00     0.020 C 
HETATM   25  C   UNL     1     -37.489 -48.885  13.876  1.00  0.00     0.124 C 
ENDBRANCH   4  20
TORSDOF 6
ENDMDL
MODEL 6
REMARK VINA RESULT:      -5.6      2.471      3.374
REMARK  6 active torsions:
REMARK  status: ('A' for Active; 'I' for Inactive)
REMARK    1  A    between atoms: C_2  and  O_3 
REMARK    2  A    between atoms: C_2  and  C_9 
REMARK    3  A    between atoms: O_3  and  C_4 
REMARK    4  A    between atoms: C_4  and  C_5 
REMARK       I    between atoms: C_9  and  N_11 
REMARK    5  A    between atoms: N_11  and  C_12 
REMARK    6  A    between atoms: C_15  and  N_19 
ROOT
HETATM    1  C   UNL     1     -43.039 -49.652  12.701  1.00  0.00     0.050 A 
HETATM    2  C   UNL     1     -43.317 -48.326  12.418  1.00  0.00     0.035 A 
HETATM    3  C   UNL     1     -42.298 -47.388  12.446  1.00  0.00     0.051 A 
HETATM    4  C   UNL     1     -40.999 -47.761  12.771  1.00  0.00     0.103 A 
HETATM    5  N   UNL     1     -40.739 -49.023  13.186  1.00  0.00    -0.350 N 
ATOM      6  HN  UNL     1     -39.813 -49.284  13.524  1.00  0.00     0.166 HD
HETATM    7  C   UNL     1     -41.748 -49.934  13.139  1.00  0.00     0.119 A 
ENDROOT
BRANCH   1   8
HETATM    8  N   UNL     1     -44.004 -50.670  12.535  1.00  0.00    -0.324 N 
HETATM    9  C   UNL     1     -44.766 -51.168  13.593  1.00  0.00     0.250 C 
HETATM   10  O   UNL     1     -44.711 -50.763  14.751  1.00  0.00    -0.270 OA
HETATM   11  H   UNL     1     -44.293 -50.882  11.588  1.00  0.00     0.169 HD
BRANCH   9  12
HETATM   12  C   UNL     1     -45.784 -52.254  13.185  1.00  0.00     0.209 C 
HETATM   13  C   UNL     1     -46.794 -51.597  12.241  1.00  0.00     0.050 C 
BRANCH  12  14
HETATM   14  O   UNL     1     -45.223 -53.369  12.491  1.00  0.00    -0.368 OA
BRANCH  14  15
HETATM   15  C   UNL     1     -44.169 -54.037  13.195  1.00  0.00     0.286 C 
BRANCH  15  16
HETATM   16  C   UNL     1     -44.653 -55.014  14.271  1.00  0.00     0.408 C 
HETATM   17  F   UNL     1     -45.191 -54.404  15.345  1.00  0.00    -0.169 F 
HETATM   18  F   UNL     1     -45.589 -55.850  13.761  1.00  0.00    -0.169 F 
HETATM   19  F   UNL     1     -43.627 -55.785  14.704  1.00  0.00    -0.169 F 
ENDBRANCH  15  16
ENDBRANCH  14  15
ENDBRANCH  12  14
ENDBRANCH   9  12
ENDBRANCH   1   8
BRANCH   4  20
HETATM   20  N   UNL     1     -39.976 -46.844  12.645  1.00  0.00    -0.367 N 
HETATM   21  C   UNL     1     -39.084 -46.571  13.768  1.00  0.00     0.124 C 
HETATM   22  C   UNL     1     -39.138 -45.092  14.143  1.00  0.00     0.020 C 
HETATM   23  C   UNL     1     -38.895 -44.207  12.927  1.00  0.00     0.003 C 
HETATM   24  C   UNL     1     -39.893 -44.535  11.818  1.00  0.00     0.020 C 
HETATM   25  C   UNL     1     -39.866 -46.017  11.455  1.00  0.00     0.124 C 
ENDBRANCH   4  20
TORSDOF 6
ENDMDL
MODEL 7
REMARK VINA RESULT:      -5.4      4.611      8.139
REMARK  6 active torsions:
REMARK  status: ('A' for Active; 'I' for Inactive)
REMARK    1  A    between atoms: C_2  and  O_3 
REMARK    2  A    between atoms: C_2  and  C_9 
REMARK    3  A    between atoms: O_3  and  C_4 
REMARK    4  A    between atoms: C_4  and  C_5 
REMARK       I    between atoms: C_9  and  N_11 
REMARK    5  A    between atoms: N_11  and  C_12 
REMARK    6  A    between atoms: C_15  and  N_19 
ROOT
HETATM    1  C   UNL     1     -42.238 -48.789  12.940  1.00  0.00     0.050 A 
HETATM    2  C   UNL     1     -43.261 -49.281  13.731  1.00  0.00     0.035 A 
HETATM    3  C   UNL     1     -43.588 -50.627  13.676  1.00  0.00     0.051 A 
HETATM    4  C   UNL     1     -42.908 -51.487  12.821  1.00  0.00     0.103 A 
HETATM    5  N   UNL     1     -42.003 -50.995  11.942  1.00  0.00    -0.350 N 
ATOM      6  HN  UNL     1     -41.572 -51.597  11.240  1.00  0.00     0.166 HD
HETATM    7  C   UNL     1     -41.685 -49.675  12.020  1.00  0.00     0.119 A 
ENDROOT
BRANCH   1   8
HETATM    8  N   UNL     1     -41.763 -47.465  13.072  1.00  0.00    -0.324 N 
HETATM    9  C   UNL     1     -40.756 -47.110  13.969  1.00  0.00     0.250 C 
HETATM   10  O   UNL     1     -40.157 -47.894  14.702  1.00  0.00    -0.270 OA
HETATM   11  H   UNL     1     -42.015 -46.810  12.342  1.00  0.00     0.169 HD
BRANCH   9  12
HETATM   12  C   UNL     1     -40.367 -45.617  13.929  1.00  0.00     0.209 C 
HETATM   13  C   UNL     1     -38.838 -45.547  13.935  1.00  0.00     0.050 C 
BRANCH  12  14
HETATM   14  O   UNL     1     -40.815 -44.914  12.770  1.00  0.00    -0.368 OA
BRANCH  14  15
HETATM   15  C   UNL     1     -39.793 -44.657  11.799  1.00  0.00     0.286 C 
BRANCH  15  16
HETATM   16  C   UNL     1     -39.881 -45.537  10.547  1.00  0.00     0.408 C 
HETATM   17  F   UNL     1     -39.602 -46.833  10.783  1.00  0.00    -0.169 F 
HETATM   18  F   UNL     1     -41.125 -45.474  10.014  1.00  0.00    -0.169 F 
HETATM   19  F   UNL     1     -39.021 -45.095   9.598  1.00  0.00    -0.169 F 
ENDBRANCH  15  16
ENDBRANCH  14  15
ENDBRANCH  12  14
ENDBRANCH   9  12
ENDBRANCH   1   8
BRANCH   4  20
HETATM   20  N   UNL     1     -43.145 -52.843  12.891  1.00  0.00    -0.367 N 
HETATM   21  C   UNL     1     -44.430 -53.394  12.470  1.00  0.00     0.124 C 
HETATM   22  C   UNL     1     -45.093 -54.142  13.624  1.00  0.00     0.020 C 
HETATM   23  C   UNL     1     -44.145 -55.171  14.229  1.00  0.00     0.003 C 
HETATM   24  C   UNL     1     -42.845 -54.503  14.674  1.00  0.00     0.020 C 
HETATM   25  C   UNL     1     -42.189 -53.730  13.534  1.00  0.00     0.124 C 
ENDBRANCH   4  20
TORSDOF 6
ENDMDL
MODEL 8
REMARK VINA RESULT:      -5.4      4.369      8.036
REMARK  6 active torsions:
REMARK  status: ('A' for Active; 'I' for Inactive)
REMARK    1  A    between atoms: C_2  and  O_3 
REMARK    2  A    between atoms: C_2  and  C_9 
REMARK    3  A    between atoms: O_3  and  C_4 
REMARK    4  A    between atoms: C_4  and  C_5 
REMARK       I    between atoms: C_9  and  N_11 
REMARK    5  A    between atoms: N_11  and  C_12 
REMARK    6  A    between atoms: C_15  and  N_19 
ROOT
HETATM    1  C   UNL     1     -41.518 -49.388  11.827  1.00  0.00     0.050 A 
HETATM    2  C   UNL     1     -42.644 -49.671  12.581  1.00  0.00     0.035 A 
HETATM    3  C   UNL     1     -42.948 -50.986  12.897  1.00  0.00     0.051 A 
HETATM    4  C   UNL     1     -42.143 -52.027  12.450  1.00  0.00     0.103 A 
HETATM    5  N   UNL     1     -41.122 -51.777  11.596  1.00  0.00    -0.350 N 
ATOM      6  HN  UNL     1     -40.587 -52.540  11.180  1.00  0.00     0.166 HD
HETATM    7  C   UNL     1     -40.829 -50.480  11.309  1.00  0.00     0.119 A 
ENDROOT
BRANCH   1   8
HETATM    8  N   UNL     1     -41.078 -48.063  11.611  1.00  0.00    -0.324 N 
HETATM    9  C   UNL     1     -41.549 -47.273  10.562  1.00  0.00     0.250 C 
HETATM   10  O   UNL     1     -42.405 -47.617   9.752  1.00  0.00    -0.270 OA
HETATM   11  H   UNL     1     -40.572 -47.616  12.366  1.00  0.00     0.169 HD
BRANCH   9  12
HETATM   12  C   UNL     1     -40.960 -45.847  10.528  1.00  0.00     0.209 C 
HETATM   13  C   UNL     1     -42.004 -44.911  11.143  1.00  0.00     0.050 C 
BRANCH  12  14
HETATM   14  O   UNL     1     -39.755 -45.679  11.275  1.00  0.00    -0.368 OA
BRANCH  14  15
HETATM   15  C   UNL     1     -39.809 -44.645  12.265  1.00  0.00     0.286 C 
BRANCH  15  16
HETATM   16  C   UNL     1     -39.505 -45.123  13.689  1.00  0.00     0.408 C 
HETATM   17  F   UNL     1     -40.266 -46.164  14.078  1.00  0.00    -0.169 F 
HETATM   18  F   UNL     1     -38.208 -45.500  13.793  1.00  0.00    -0.169 F 
HETATM   19  F   UNL     1     -39.697 -44.117  14.576  1.00  0.00    -0.169 F 
ENDBRANCH  15  16
ENDBRANCH  14  15
ENDBRANCH  12  14
ENDBRANCH   9  12
ENDBRANCH   1   8
BRANCH   4  20
HETATM   20  N   UNL     1     -42.377 -53.310  12.899  1.00  0.00    -0.367 N 
HETATM   21  C   UNL     1     -43.729 -53.862  12.894  1.00  0.00     0.124 C 
HETATM   22  C   UNL     1     -44.143 -54.268  14.306  1.00  0.00     0.020 C 
HETATM   23  C   UNL     1     -43.102 -55.181  14.943  1.00  0.00     0.003 C 
HETATM   24  C   UNL     1     -41.729 -54.511  14.938  1.00  0.00     0.020 C 
HETATM   25  C   UNL     1     -41.318 -54.076  13.535  1.00  0.00     0.124 C 
ENDBRANCH   4  20
TORSDOF 6
ENDMDL
MODEL 9
REMARK VINA RESULT:      -5.4      3.758      7.585
REMARK  6 active torsions:
REMARK  status: ('A' for Active; 'I' for Inactive)
REMARK    1  A    between atoms: C_2  and  O_3 
REMARK    2  A    between atoms: C_2  and  C_9 
REMARK    3  A    between atoms: O_3  and  C_4 
REMARK    4  A    between atoms: C_4  and  C_5 
REMARK       I    between atoms: C_9  and  N_11 
REMARK    5  A    between atoms: N_11  and  C_12 
REMARK    6  A    between atoms: C_15  and  N_19 
ROOT
HETATM    1  C   UNL     1     -41.573 -51.309  12.147  1.00  0.00     0.050 A 
HETATM    2  C   UNL     1     -42.660 -52.095  12.492  1.00  0.00     0.035 A 
HETATM    3  C   UNL     1     -42.482 -53.186  13.328  1.00  0.00     0.051 A 
HETATM    4  C   UNL     1     -41.221 -53.510  13.813  1.00  0.00     0.103 A 
HETATM    5  N   UNL     1     -40.131 -52.837  13.373  1.00  0.00    -0.350 N 
ATOM      6  HN  UNL     1     -39.191 -53.129  13.641  1.00  0.00     0.166 HD
HETATM    7  C   UNL     1     -40.325 -51.762  12.564  1.00  0.00     0.119 A 
ENDROOT
BRANCH   1   8
HETATM    8  N   UNL     1     -41.723 -50.102  11.429  1.00  0.00    -0.324 N 
HETATM    9  C   UNL     1     -41.979 -48.880  12.051  1.00  0.00     0.250 C 
HETATM   10  O   UNL     1     -42.063 -48.713  13.265  1.00  0.00    -0.270 OA
HETATM   11  H   UNL     1     -41.422 -50.100  10.462  1.00  0.00     0.169 HD
BRANCH   9  12
HETATM   12  C   UNL     1     -42.075 -47.683  11.083  1.00  0.00     0.209 C 
HETATM   13  C   UNL     1     -40.687 -47.041  11.016  1.00  0.00     0.050 C 
BRANCH  12  14
HETATM   14  O   UNL     1     -42.446 -48.022   9.746  1.00  0.00    -0.368 OA
BRANCH  14  15
HETATM   15  C   UNL     1     -43.229 -47.027   9.076  1.00  0.00     0.286 C 
BRANCH  15  16
HETATM   16  C   UNL     1     -44.723 -47.358   8.990  1.00  0.00     0.408 C 
HETATM   17  F   UNL     1     -45.215 -47.906  10.117  1.00  0.00    -0.169 F 
HETATM   18  F   UNL     1     -45.439 -46.238   8.729  1.00  0.00    -0.169 F 
HETATM   19  F   UNL     1     -44.956 -48.223   7.974  1.00  0.00    -0.169 F 
ENDBRANCH  15  16
ENDBRANCH  14  15
ENDBRANCH  12  14
ENDBRANCH   9  12
ENDBRANCH   1   8
BRANCH   4  20
HETATM   20  N   UNL     1     -41.091 -54.504  14.760  1.00  0.00    -0.367 N 
HETATM   21  C   UNL     1     -42.273 -55.134  15.341  1.00  0.00     0.124 C 
HETATM   22  C   UNL     1     -42.282 -54.952  16.857  1.00  0.00     0.020 C 
HETATM   23  C   UNL     1     -40.966 -55.412  17.474  1.00  0.00     0.003 C 
HETATM   24  C   UNL     1     -39.790 -54.678  16.834  1.00  0.00     0.020 C 
HETATM   25  C   UNL     1     -39.788 -54.831  15.315  1.00  0.00     0.124 C 
ENDBRANCH   4  20
TORSDOF 6
ENDMDL
