MODEL 1
REMARK VINA RESULT:      -6.0      0.000      0.000
REMARK  7 active torsions:
REMARK  status: ('A' for Active; 'I' for Inactive)
REMARK    1  A    between atoms: C_4  and  C_5 
REMARK       I    between atoms: C_5  and  N_7 
REMARK    2  A    between atoms: N_7  and  C_8 
REMARK    3  A    between atoms: C_8  and  C_9 
REMARK    4  A    between atoms: C_9  and  C_10 
REMARK       I    between atoms: C_10  and  N_12 
REMARK    5  A    between atoms: N_12  and  C_13 
REMARK    6  A    between atoms: C_13  and  C_14 
REMARK    7  A    between atoms: C_14  and  C_15 
ROOT
HETATM    1  C   UNL     1     -40.775 -51.677  12.542  1.00  0.00     0.219 C 
HETATM    2  O   UNL     1     -40.533 -51.079  13.587  1.00  0.00    -0.274 OA
HETATM    3  N   UNL     1     -40.779 -51.062  11.309  1.00  0.00    -0.361 N 
HETATM    4  H   UNL     1     -40.919 -51.623  10.477  1.00  0.00     0.162 HD
ENDROOT
BRANCH   1   5
HETATM    5  C   UNL     1     -41.059 -53.161  12.492  1.00  0.00     0.122 C 
BRANCH   5   6
HETATM    6  C   UNL     1     -42.174 -53.519  13.471  1.00  0.00     0.132 C 
BRANCH   6   7
HETATM    7  N   UNL     1     -43.213 -52.506  13.540  1.00  0.00    -0.360 N 
HETATM    8  C   UNL     1     -44.413 -52.661  12.891  1.00  0.00     0.222 C 
HETATM    9  O   UNL     1     -44.736 -53.671  12.277  1.00  0.00    -0.273 OA
HETATM   10  H   UNL     1     -42.987 -51.611  13.953  1.00  0.00     0.162 HD
BRANCH   8  11
HETATM   11  C   UNL     1     -45.331 -51.495  13.006  1.00  0.00     0.082 A 
HETATM   12  C   UNL     1     -46.506 -51.503  13.962  1.00  0.00    -0.005 A 
HETATM   13  C   UNL     1     -46.810 -52.677  14.833  1.00  0.00     0.011 C 
HETATM   14  C   UNL     1     -46.746 -51.581  12.480  1.00  0.00     0.019 A 
ENDBRANCH   8  11
ENDBRANCH   6   7
ENDBRANCH   5   6
ENDBRANCH   1   5
BRANCH   3  15
HETATM   15  C   UNL     1     -40.504 -49.638  11.181  1.00  0.00     0.128 C 
BRANCH  15  16
HETATM   16  C   UNL     1     -41.781 -48.807  11.102  1.00  0.00     0.076 C 
BRANCH  16  17
HETATM   17  C   UNL     1     -41.501 -47.326  11.105  1.00  0.00     0.010 A 
HETATM   18  C   UNL     1     -42.453 -46.423  11.578  1.00  0.00     0.025 A 
HETATM   19  C   UNL     1     -42.175 -45.059  11.518  1.00  0.00     0.003 A 
HETATM   20  C   UNL     1     -40.960 -44.634  10.999  1.00  0.00     0.017 A 
HETATM   21  C   UNL     1     -40.062 -45.596  10.568  1.00  0.00     0.088 A 
HETATM   22  N   UNL     1     -40.306 -46.926  10.611  1.00  0.00    -0.369 N 
ATOM     23  HN  UNL     1     -39.616 -47.601  10.284  1.00  0.00     0.165 HD
ENDBRANCH  16  17
ENDBRANCH  15  16
ENDBRANCH   3  15
TORSDOF 7
ENDMDL
MODEL 2
REMARK VINA RESULT:      -6.0      2.373      6.757
REMARK  7 active torsions:
REMARK  status: ('A' for Active; 'I' for Inactive)
REMARK    1  A    between atoms: C_4  and  C_5 
REMARK       I    between atoms: C_5  and  N_7 
REMARK    2  A    between atoms: N_7  and  C_8 
REMARK    3  A    between atoms: C_8  and  C_9 
REMARK    4  A    between atoms: C_9  and  C_10 
REMARK       I    between atoms: C_10  and  N_12 
REMARK    5  A    between atoms: N_12  and  C_13 
REMARK    6  A    between atoms: C_13  and  C_14 
REMARK    7  A    between atoms: C_14  and  C_15 
ROOT
HETATM    1  C   UNL     1     -41.598 -50.987  12.176  1.00  0.00     0.219 C 
HETATM    2  O   UNL     1     -41.871 -50.498  13.268  1.00  0.00    -0.274 OA
HETATM    3  N   UNL     1     -42.030 -52.235  11.783  1.00  0.00    -0.361 N 
HETATM    4  H   UNL     1     -41.829 -52.555  10.843  1.00  0.00     0.162 HD
ENDROOT
BRANCH   1   5
HETATM    5  C   UNL     1     -40.788 -50.257  11.127  1.00  0.00     0.122 C 
BRANCH   5   6
HETATM    6  C   UNL     1     -41.055 -48.757  11.204  1.00  0.00     0.132 C 
BRANCH   6   7
HETATM    7  N   UNL     1     -41.754 -48.247  10.037  1.00  0.00    -0.360 N 
HETATM    8  C   UNL     1     -42.409 -47.040  10.060  1.00  0.00     0.222 C 
HETATM    9  O   UNL     1     -42.398 -46.272  11.015  1.00  0.00    -0.273 OA
HETATM   10  H   UNL     1     -41.881 -48.861   9.244  1.00  0.00     0.162 HD
BRANCH   8  11
HETATM   11  C   UNL     1     -43.134 -46.707   8.804  1.00  0.00     0.082 A 
HETATM   12  C   UNL     1     -44.600 -47.040   8.623  1.00  0.00    -0.005 A 
HETATM   13  C   UNL     1     -45.394 -47.721   9.689  1.00  0.00     0.011 C 
HETATM   14  C   UNL     1     -43.560 -47.804   7.854  1.00  0.00     0.019 A 
ENDBRANCH   8  11
ENDBRANCH   6   7
ENDBRANCH   5   6
ENDBRANCH   1   5
BRANCH   3  15
HETATM   15  C   UNL     1     -42.837 -53.061  12.669  1.00  0.00     0.128 C 
BRANCH  15  16
HETATM   16  C   UNL     1     -44.273 -53.210  12.173  1.00  0.00     0.076 C 
BRANCH  16  17
HETATM   17  C   UNL     1     -45.284 -52.854  13.232  1.00  0.00     0.010 A 
HETATM   18  C   UNL     1     -45.433 -51.535  13.659  1.00  0.00     0.025 A 
HETATM   19  C   UNL     1     -46.344 -51.255  14.675  1.00  0.00     0.003 A 
HETATM   20  C   UNL     1     -47.086 -52.289  15.229  1.00  0.00     0.017 A 
HETATM   21  C   UNL     1     -46.892 -53.568  14.734  1.00  0.00     0.088 A 
HETATM   22  N   UNL     1     -46.013 -53.870  13.752  1.00  0.00    -0.369 N 
ATOM     23  HN  UNL     1     -45.902 -54.826  13.417  1.00  0.00     0.165 HD
ENDBRANCH  16  17
ENDBRANCH  15  16
ENDBRANCH   3  15
TORSDOF 7
ENDMDL
MODEL 3
REMARK VINA RESULT:      -5.9      1.965      2.903
REMARK  7 active torsions:
REMARK  status: ('A' for Active; 'I' for Inactive)
REMARK    1  A    between atoms: C_4  and  C_5 
REMARK       I    between atoms: C_5  and  N_7 
REMARK    2  A    between atoms: N_7  and  C_8 
REMARK    3  A    between atoms: C_8  and  C_9 
REMARK    4  A    between atoms: C_9  and  C_10 
REMARK       I    between atoms: C_10  and  N_12 
REMARK    5  A    between atoms: N_12  and  C_13 
REMARK    6  A    between atoms: C_13  and  C_14 
REMARK    7  A    between atoms: C_14  and  C_15 
ROOT
HETATM    1  C   UNL     1     -42.467 -53.793  13.336  1.00  0.00     0.219 C 
HETATM    2  O   UNL     1     -43.502 -53.766  12.676  1.00  0.00    -0.274 OA
HETATM    3  N   UNL     1     -41.339 -53.080  12.992  1.00  0.00    -0.361 N 
HETATM    4  H   UNL     1     -40.539 -53.090  13.613  1.00  0.00     0.162 HD
ENDROOT
BRANCH   1   5
HETATM    5  C   UNL     1     -42.330 -54.582  14.618  1.00  0.00     0.122 C 
BRANCH   5   6
HETATM    6  C   UNL     1     -43.708 -54.926  15.177  1.00  0.00     0.132 C 
BRANCH   6   7
HETATM    7  N   UNL     1     -44.511 -53.749  15.463  1.00  0.00    -0.360 N 
HETATM    8  C   UNL     1     -45.876 -53.756  15.318  1.00  0.00     0.222 C 
HETATM    9  O   UNL     1     -46.529 -54.749  15.015  1.00  0.00    -0.273 OA
HETATM   10  H   UNL     1     -44.037 -52.872  15.632  1.00  0.00     0.162 HD
BRANCH   8  11
HETATM   11  C   UNL     1     -46.531 -52.446  15.581  1.00  0.00     0.082 A 
HETATM   12  C   UNL     1     -46.770 -51.442  14.473  1.00  0.00    -0.005 A 
HETATM   13  C   UNL     1     -46.358 -51.708  13.062  1.00  0.00     0.011 C 
HETATM   14  C   UNL     1     -45.730 -51.165  15.522  1.00  0.00     0.019 A 
ENDBRANCH   8  11
ENDBRANCH   6   7
ENDBRANCH   5   6
ENDBRANCH   1   5
BRANCH   3  15
HETATM   15  C   UNL     1     -41.312 -52.252  11.795  1.00  0.00     0.128 C 
BRANCH  15  16
HETATM   16  C   UNL     1     -40.545 -50.950  12.007  1.00  0.00     0.076 C 
BRANCH  16  17
HETATM   17  C   UNL     1     -41.380 -49.736  11.695  1.00  0.00     0.010 A 
HETATM   18  C   UNL     1     -42.375 -49.310  12.573  1.00  0.00     0.025 A 
HETATM   19  C   UNL     1     -43.158 -48.213  12.223  1.00  0.00     0.003 A 
HETATM   20  C   UNL     1     -42.924 -47.565  11.018  1.00  0.00     0.017 A 
HETATM   21  C   UNL     1     -41.903 -48.039  10.211  1.00  0.00     0.088 A 
HETATM   22  N   UNL     1     -41.130 -49.104  10.523  1.00  0.00    -0.369 N 
ATOM     23  HN  UNL     1     -40.388 -49.420   9.899  1.00  0.00     0.165 HD
ENDBRANCH  16  17
ENDBRANCH  15  16
ENDBRANCH   3  15
TORSDOF 7
ENDMDL
MODEL 4
REMARK VINA RESULT:      -5.6      2.256      6.382
REMARK  7 active torsions:
REMARK  status: ('A' for Active; 'I' for Inactive)
REMARK    1  A    between atoms: C_4  and  C_5 
REMARK       I    between atoms: C_5  and  N_7 
REMARK    2  A    between atoms: N_7  and  C_8 
REMARK    3  A    between atoms: C_8  and  C_9 
REMARK    4  A    between atoms: C_9  and  C_10 
REMARK       I    between atoms: C_10  and  N_12 
REMARK    5  A    between atoms: N_12  and  C_13 
REMARK    6  A    between atoms: C_13  and  C_14 
REMARK    7  A    between atoms: C_14  and  C_15 
ROOT
HETATM    1  C   UNL     1     -41.804 -53.204  14.154  1.00  0.00     0.219 C 
HETATM    2  O   UNL     1     -42.257 -52.419  14.982  1.00  0.00    -0.274 OA
HETATM    3  N   UNL     1     -42.320 -54.466  13.955  1.00  0.00    -0.361 N 
HETATM    4  H   UNL     1     -41.947 -55.042  13.210  1.00  0.00     0.162 HD
ENDROOT
BRANCH   1   5
HETATM    5  C   UNL     1     -40.654 -52.857  13.236  1.00  0.00     0.122 C 
BRANCH   5   6
HETATM    6  C   UNL     1     -41.181 -52.358  11.894  1.00  0.00     0.132 C 
BRANCH   6   7
HETATM    7  N   UNL     1     -42.188 -51.320  12.033  1.00  0.00    -0.360 N 
HETATM    8  C   UNL     1     -41.846 -50.015  12.292  1.00  0.00     0.222 C 
HETATM    9  O   UNL     1     -40.692 -49.607  12.351  1.00  0.00    -0.273 OA
HETATM   10  H   UNL     1     -43.160 -51.594  12.084  1.00  0.00     0.162 HD
BRANCH   8  11
HETATM   11  C   UNL     1     -43.005 -49.100  12.478  1.00  0.00     0.082 A 
HETATM   12  C   UNL     1     -43.351 -48.040  11.452  1.00  0.00    -0.005 A 
HETATM   13  C   UNL     1     -42.549 -47.854  10.206  1.00  0.00     0.011 C 
HETATM   14  C   UNL     1     -42.781 -47.635  12.782  1.00  0.00     0.019 A 
ENDBRANCH   8  11
ENDBRANCH   6   7
ENDBRANCH   5   6
ENDBRANCH   1   5
BRANCH   3  15
HETATM   15  C   UNL     1     -43.444 -54.949  14.745  1.00  0.00     0.128 C 
BRANCH  15  16
HETATM   16  C   UNL     1     -44.750 -54.946  13.956  1.00  0.00     0.076 C 
BRANCH  16  17
HETATM   17  C   UNL     1     -45.519 -53.661  14.125  1.00  0.00     0.010 A 
HETATM   18  C   UNL     1     -45.390 -52.627  13.199  1.00  0.00     0.025 A 
HETATM   19  C   UNL     1     -46.080 -51.437  13.418  1.00  0.00     0.003 A 
HETATM   20  C   UNL     1     -46.883 -51.312  14.543  1.00  0.00     0.017 A 
HETATM   21  C   UNL     1     -46.972 -52.393  15.403  1.00  0.00     0.088 A 
HETATM   22  N   UNL     1     -46.311 -53.559  15.219  1.00  0.00    -0.369 N 
ATOM     23  HN  UNL     1     -46.406 -54.331  15.878  1.00  0.00     0.165 HD
ENDBRANCH  16  17
ENDBRANCH  15  16
ENDBRANCH   3  15
TORSDOF 7
ENDMDL
MODEL 5
REMARK VINA RESULT:      -5.4      2.250      6.645
REMARK  7 active torsions:
REMARK  status: ('A' for Active; 'I' for Inactive)
REMARK    1  A    between atoms: C_4  and  C_5 
REMARK       I    between atoms: C_5  and  N_7 
REMARK    2  A    between atoms: N_7  and  C_8 
REMARK    3  A    between atoms: C_8  and  C_9 
REMARK    4  A    between atoms: C_9  and  C_10 
REMARK       I    between atoms: C_10  and  N_12 
REMARK    5  A    between atoms: N_12  and  C_13 
REMARK    6  A    between atoms: C_13  and  C_14 
REMARK    7  A    between atoms: C_14  and  C_15 
ROOT
HETATM    1  C   UNL     1     -42.243 -54.121  13.395  1.00  0.00     0.219 C 
HETATM    2  O   UNL     1     -42.627 -54.587  14.464  1.00  0.00    -0.274 OA
HETATM    3  N   UNL     1     -43.104 -53.689  12.411  1.00  0.00    -0.361 N 
HETATM    4  H   UNL     1     -42.726 -53.251  11.580  1.00  0.00     0.162 HD
ENDROOT
BRANCH   1   5
HETATM    5  C   UNL     1     -40.780 -53.938  13.059  1.00  0.00     0.122 C 
BRANCH   5   6
HETATM    6  C   UNL     1     -40.249 -52.655  13.693  1.00  0.00     0.132 C 
BRANCH   6   7
HETATM    7  N   UNL     1     -39.956 -51.621  12.715  1.00  0.00    -0.360 N 
HETATM    8  C   UNL     1     -40.921 -50.747  12.282  1.00  0.00     0.222 C 
HETATM    9  O   UNL     1     -42.064 -50.712  12.723  1.00  0.00    -0.273 OA
HETATM   10  H   UNL     1     -39.062 -51.643  12.243  1.00  0.00     0.162 HD
BRANCH   8  11
HETATM   11  C   UNL     1     -40.468 -49.802  11.225  1.00  0.00     0.082 A 
HETATM   12  C   UNL     1     -39.943 -48.423  11.567  1.00  0.00    -0.005 A 
HETATM   13  C   UNL     1     -39.857 -47.936  12.976  1.00  0.00     0.011 C 
HETATM   14  C   UNL     1     -41.281 -48.569  10.900  1.00  0.00     0.019 A 
ENDBRANCH   8  11
ENDBRANCH   6   7
ENDBRANCH   5   6
ENDBRANCH   1   5
BRANCH   3  15
HETATM   15  C   UNL     1     -44.547 -53.777  12.587  1.00  0.00     0.128 C 
BRANCH  15  16
HETATM   16  C   UNL     1     -45.178 -52.421  12.890  1.00  0.00     0.076 C 
BRANCH  16  17
HETATM   17  C   UNL     1     -45.771 -52.362  14.273  1.00  0.00     0.010 A 
HETATM   18  C   UNL     1     -46.757 -51.427  14.586  1.00  0.00     0.025 A 
HETATM   19  C   UNL     1     -47.243 -51.372  15.890  1.00  0.00     0.003 A 
HETATM   20  C   UNL     1     -46.745 -52.251  16.841  1.00  0.00     0.017 A 
HETATM   21  C   UNL     1     -45.781 -53.162  16.444  1.00  0.00     0.088 A 
HETATM   22  N   UNL     1     -45.287 -53.236  15.187  1.00  0.00    -0.369 N 
ATOM     23  HN  UNL     1     -44.577 -53.924  14.937  1.00  0.00     0.165 HD
ENDBRANCH  16  17
ENDBRANCH  15  16
ENDBRANCH   3  15
TORSDOF 7
ENDMDL
MODEL 6
REMARK VINA RESULT:      -5.4      2.988      3.914
REMARK  7 active torsions:
REMARK  status: ('A' for Active; 'I' for Inactive)
REMARK    1  A    between atoms: C_4  and  C_5 
REMARK       I    between atoms: C_5  and  N_7 
REMARK    2  A    between atoms: N_7  and  C_8 
REMARK    3  A    between atoms: C_8  and  C_9 
REMARK    4  A    between atoms: C_9  and  C_10 
REMARK       I    between atoms: C_10  and  N_12 
REMARK    5  A    between atoms: N_12  and  C_13 
REMARK    6  A    between atoms: C_13  and  C_14 
REMARK    7  A    between atoms: C_14  and  C_15 
ROOT
HETATM    1  C   UNL     1     -41.285 -54.191  14.671  1.00  0.00     0.219 C 
HETATM    2  O   UNL     1     -40.153 -53.879  15.026  1.00  0.00    -0.274 OA
HETATM    3  N   UNL     1     -41.735 -54.042  13.377  1.00  0.00    -0.361 N 
HETATM    4  H   UNL     1     -42.657 -54.382  13.132  1.00  0.00     0.162 HD
ENDROOT
BRANCH   1   5
HETATM    5  C   UNL     1     -42.298 -54.811  15.608  1.00  0.00     0.122 C 
BRANCH   5   6
HETATM    6  C   UNL     1     -43.672 -54.856  14.946  1.00  0.00     0.132 C 
BRANCH   6   7
HETATM    7  N   UNL     1     -44.525 -53.748  15.339  1.00  0.00    -0.360 N 
HETATM    8  C   UNL     1     -45.892 -53.816  15.228  1.00  0.00     0.222 C 
HETATM    9  O   UNL     1     -46.502 -54.817  14.869  1.00  0.00    -0.273 OA
HETATM   10  H   UNL     1     -44.093 -52.861  15.561  1.00  0.00     0.162 HD
BRANCH   8  11
HETATM   11  C   UNL     1     -46.605 -52.566  15.604  1.00  0.00     0.082 A 
HETATM   12  C   UNL     1     -46.882 -51.475  14.590  1.00  0.00    -0.005 A 
HETATM   13  C   UNL     1     -46.453 -51.593  13.165  1.00  0.00     0.011 C 
HETATM   14  C   UNL     1     -45.861 -51.251  15.669  1.00  0.00     0.019 A 
ENDBRANCH   8  11
ENDBRANCH   6   7
ENDBRANCH   5   6
ENDBRANCH   1   5
BRANCH   3  15
HETATM   15  C   UNL     1     -40.875 -53.479  12.346  1.00  0.00     0.128 C 
BRANCH  15  16
HETATM   16  C   UNL     1     -41.194 -52.014  12.062  1.00  0.00     0.076 C 
BRANCH  16  17
HETATM   17  C   UNL     1     -40.017 -51.110  12.322  1.00  0.00     0.010 A 
HETATM   18  C   UNL     1     -39.865 -49.917  11.617  1.00  0.00     0.025 A 
HETATM   19  C   UNL     1     -38.737 -49.135  11.852  1.00  0.00     0.003 A 
HETATM   20  C   UNL     1     -37.799 -49.555  12.785  1.00  0.00     0.017 A 
HETATM   21  C   UNL     1     -38.034 -50.742  13.456  1.00  0.00     0.088 A 
HETATM   22  N   UNL     1     -39.118 -51.524  13.246  1.00  0.00    -0.369 N 
ATOM     23  HN  UNL     1     -39.252 -52.392  13.764  1.00  0.00     0.165 HD
ENDBRANCH  16  17
ENDBRANCH  15  16
ENDBRANCH   3  15
TORSDOF 7
ENDMDL
MODEL 7
REMARK VINA RESULT:      -5.4      2.705      6.800
REMARK  7 active torsions:
REMARK  status: ('A' for Active; 'I' for Inactive)
REMARK    1  A    between atoms: C_4  and  C_5 
REMARK       I    between atoms: C_5  and  N_7 
REMARK    2  A    between atoms: N_7  and  C_8 
REMARK    3  A    between atoms: C_8  and  C_9 
REMARK    4  A    between atoms: C_9  and  C_10 
REMARK       I    between atoms: C_10  and  N_12 
REMARK    5  A    between atoms: N_12  and  C_13 
REMARK    6  A    between atoms: C_13  and  C_14 
REMARK    7  A    between atoms: C_14  and  C_15 
ROOT
HETATM    1  C   UNL     1     -41.160 -54.111  13.823  1.00  0.00     0.219 C 
HETATM    2  O   UNL     1     -41.769 -53.686  12.846  1.00  0.00    -0.274 OA
HETATM    3  N   UNL     1     -41.783 -54.722  14.889  1.00  0.00    -0.361 N 
HETATM    4  H   UNL     1     -41.219 -55.113  15.635  1.00  0.00     0.162 HD
ENDROOT
BRANCH   1   5
HETATM    5  C   UNL     1     -39.654 -54.043  13.946  1.00  0.00     0.122 C 
BRANCH   5   6
HETATM    6  C   UNL     1     -39.222 -52.649  14.391  1.00  0.00     0.132 C 
BRANCH   6   7
HETATM    7  N   UNL     1     -39.583 -51.615  13.437  1.00  0.00    -0.360 N 
HETATM    8  C   UNL     1     -38.649 -51.040  12.610  1.00  0.00     0.222 C 
HETATM    9  O   UNL     1     -37.476 -51.392  12.551  1.00  0.00    -0.273 OA
HETATM   10  H   UNL     1     -40.509 -51.213  13.489  1.00  0.00     0.162 HD
BRANCH   8  11
HETATM   11  C   UNL     1     -39.177 -49.946  11.751  1.00  0.00     0.082 A 
HETATM   12  C   UNL     1     -39.136 -48.499  12.196  1.00  0.00    -0.005 A 
HETATM   13  C   UNL     1     -38.572 -48.093  13.518  1.00  0.00     0.011 C 
HETATM   14  C   UNL     1     -40.451 -49.224  12.127  1.00  0.00     0.019 A 
ENDBRANCH   8  11
ENDBRANCH   6   7
ENDBRANCH   5   6
ENDBRANCH   1   5
BRANCH   3  15
HETATM   15  C   UNL     1     -43.229 -54.885  14.918  1.00  0.00     0.128 C 
BRANCH  15  16
HETATM   16  C   UNL     1     -43.930 -53.719  15.609  1.00  0.00     0.076 C 
BRANCH  16  17
HETATM   17  C   UNL     1     -44.849 -52.970  14.679  1.00  0.00     0.010 A 
HETATM   18  C   UNL     1     -45.757 -52.034  15.175  1.00  0.00     0.025 A 
HETATM   19  C   UNL     1     -46.623 -51.401  14.288  1.00  0.00     0.003 A 
HETATM   20  C   UNL     1     -46.557 -51.707  12.935  1.00  0.00     0.017 A 
HETATM   21  C   UNL     1     -45.614 -52.633  12.522  1.00  0.00     0.088 A 
HETATM   22  N   UNL     1     -44.763 -53.267  13.361  1.00  0.00    -0.369 N 
ATOM     23  HN  UNL     1     -44.083 -53.942  13.013  1.00  0.00     0.165 HD
ENDBRANCH  16  17
ENDBRANCH  15  16
ENDBRANCH   3  15
TORSDOF 7
ENDMDL
MODEL 8
REMARK VINA RESULT:      -5.3      2.880      7.109
REMARK  7 active torsions:
REMARK  status: ('A' for Active; 'I' for Inactive)
REMARK    1  A    between atoms: C_4  and  C_5 
REMARK       I    between atoms: C_5  and  N_7 
REMARK    2  A    between atoms: N_7  and  C_8 
REMARK    3  A    between atoms: C_8  and  C_9 
REMARK    4  A    between atoms: C_9  and  C_10 
REMARK       I    between atoms: C_10  and  N_12 
REMARK    5  A    between atoms: N_12  and  C_13 
REMARK    6  A    between atoms: C_13  and  C_14 
REMARK    7  A    between atoms: C_14  and  C_15 
ROOT
HETATM    1  C   UNL     1     -42.244 -53.890  13.303  1.00  0.00     0.219 C 
HETATM    2  O   UNL     1     -42.464 -53.892  14.511  1.00  0.00    -0.274 OA
HETATM    3  N   UNL     1     -43.243 -53.953  12.357  1.00  0.00    -0.361 N 
HETATM    4  H   UNL     1     -43.002 -53.879  11.376  1.00  0.00     0.162 HD
ENDROOT
BRANCH   1   5
HETATM    5  C   UNL     1     -40.852 -53.781  12.722  1.00  0.00     0.122 C 
BRANCH   5   6
HETATM    6  C   UNL     1     -39.843 -53.470  13.824  1.00  0.00     0.132 C 
BRANCH   6   7
HETATM    7  N   UNL     1     -39.733 -52.049  14.105  1.00  0.00    -0.360 N 
HETATM    8  C   UNL     1     -38.683 -51.300  13.634  1.00  0.00     0.222 C 
HETATM    9  O   UNL     1     -37.810 -51.734  12.892  1.00  0.00    -0.273 OA
HETATM   10  H   UNL     1     -40.366 -51.641  14.781  1.00  0.00     0.162 HD
BRANCH   8  11
HETATM   11  C   UNL     1     -38.689 -49.880  14.080  1.00  0.00     0.082 A 
HETATM   12  C   UNL     1     -39.255 -48.778  13.208  1.00  0.00    -0.005 A 
HETATM   13  C   UNL     1     -39.830 -49.054  11.858  1.00  0.00     0.011 C 
HETATM   14  C   UNL     1     -37.771 -48.870  13.429  1.00  0.00     0.019 A 
ENDBRANCH   8  11
ENDBRANCH   6   7
ENDBRANCH   5   6
ENDBRANCH   1   5
BRANCH   3  15
HETATM   15  C   UNL     1     -44.642 -54.042  12.750  1.00  0.00     0.128 C 
BRANCH  15  16
HETATM   16  C   UNL     1     -45.283 -52.669  12.927  1.00  0.00     0.076 C 
BRANCH  16  17
HETATM   17  C   UNL     1     -45.853 -52.476  14.309  1.00  0.00     0.010 A 
HETATM   18  C   UNL     1     -46.747 -51.439  14.572  1.00  0.00     0.025 A 
HETATM   19  C   UNL     1     -47.212 -51.265  15.873  1.00  0.00     0.003 A 
HETATM   20  C   UNL     1     -46.785 -52.130  16.871  1.00  0.00     0.017 A 
HETATM   21  C   UNL     1     -45.912 -53.146  16.522  1.00  0.00     0.088 A 
HETATM   22  N   UNL     1     -45.440 -53.337  15.269  1.00  0.00    -0.369 N 
ATOM     23  HN  UNL     1     -44.798 -54.100  15.055  1.00  0.00     0.165 HD
ENDBRANCH  16  17
ENDBRANCH  15  16
ENDBRANCH   3  15
TORSDOF 7
ENDMDL
MODEL 9
REMARK VINA RESULT:      -5.1      1.684      2.209
REMARK  7 active torsions:
REMARK  status: ('A' for Active; 'I' for Inactive)
REMARK    1  A    between atoms: C_4  and  C_5 
REMARK       I    between atoms: C_5  and  N_7 
REMARK    2  A    between atoms: N_7  and  C_8 
REMARK    3  A    between atoms: C_8  and  C_9 
REMARK    4  A    between atoms: C_9  and  C_10 
REMARK       I    between atoms: C_10  and  N_12 
REMARK    5  A    between atoms: N_12  and  C_13 
REMARK    6  A    between atoms: C_13  and  C_14 
REMARK    7  A    between atoms: C_14  and  C_15 
ROOT
HETATM    1  C   UNL     1     -40.811 -53.193  13.716  1.00  0.00     0.219 C 
HETATM    2  O   UNL     1     -40.968 -53.131  12.500  1.00  0.00    -0.274 OA
HETATM    3  N   UNL     1     -40.162 -52.217  14.440  1.00  0.00    -0.361 N 
HETATM    4  H   UNL     1     -40.125 -52.293  15.450  1.00  0.00     0.162 HD
ENDROOT
BRANCH   1   5
HETATM    5  C   UNL     1     -41.346 -54.331  14.555  1.00  0.00     0.122 C 
BRANCH   5   6
HETATM    6  C   UNL     1     -42.830 -54.546  14.269  1.00  0.00     0.132 C 
BRANCH   6   7
HETATM    7  N   UNL     1     -43.563 -53.301  14.120  1.00  0.00    -0.360 N 
HETATM    8  C   UNL     1     -44.633 -53.193  13.267  1.00  0.00     0.222 C 
HETATM    9  O   UNL     1     -45.100 -54.131  12.630  1.00  0.00    -0.273 OA
HETATM   10  H   UNL     1     -43.185 -52.465  14.544  1.00  0.00     0.162 HD
BRANCH   8  11
HETATM   11  C   UNL     1     -45.219 -51.828  13.182  1.00  0.00     0.082 A 
HETATM   12  C   UNL     1     -46.396 -51.416  14.042  1.00  0.00    -0.005 A 
HETATM   13  C   UNL     1     -47.033 -52.354  15.013  1.00  0.00     0.011 C 
HETATM   14  C   UNL     1     -46.584 -51.618  12.564  1.00  0.00     0.019 A 
ENDBRANCH   8  11
ENDBRANCH   6   7
ENDBRANCH   5   6
ENDBRANCH   1   5
BRANCH   3  15
HETATM   15  C   UNL     1     -39.604 -51.043  13.784  1.00  0.00     0.128 C 
BRANCH  15  16
HETATM   16  C   UNL     1     -40.337 -49.761  14.168  1.00  0.00     0.076 C 
BRANCH  16  17
HETATM   17  C   UNL     1     -40.747 -48.953  12.965  1.00  0.00     0.010 A 
HETATM   18  C   UNL     1     -41.922 -49.249  12.275  1.00  0.00     0.025 A 
HETATM   19  C   UNL     1     -42.240 -48.510  11.138  1.00  0.00     0.003 A 
HETATM   20  C   UNL     1     -41.388 -47.494  10.726  1.00  0.00     0.017 A 
HETATM   21  C   UNL     1     -40.251 -47.251  11.478  1.00  0.00     0.088 A 
HETATM   22  N   UNL     1     -39.915 -47.955  12.583  1.00  0.00    -0.369 N 
ATOM     23  HN  UNL     1     -39.068 -47.742  13.109  1.00  0.00     0.165 HD
ENDBRANCH  16  17
ENDBRANCH  15  16
ENDBRANCH   3  15
TORSDOF 7
ENDMDL
