MODEL 1
REMARK VINA RESULT:      -6.3      0.000      0.000
REMARK  5 active torsions:
REMARK  status: ('A' for Active; 'I' for Inactive)
REMARK    1  A    between atoms: N_4  and  C_5 
REMARK    2  A    between atoms: C_5  and  O_6 
REMARK    3  A    between atoms: O_6  and  C_7 
REMARK    4  A    between atoms: C_7  and  C_8 
REMARK    5  A    between atoms: C_9  and  C_10 
ROOT
HETATM    1  C   UNL     1     -40.851 -48.727  11.881  1.00  0.00     0.303 C 
ENDROOT
BRANCH   1   2
HETATM    2  N   UNL     1     -41.630 -47.824  11.047  1.00  0.00    -0.287 N 
HETATM    3  C   UNL     1     -42.937 -48.094  10.694  1.00  0.00     0.110 A 
HETATM    4  C   UNL     1     -43.679 -47.243   9.976  1.00  0.00     0.022 A 
HETATM    5  C   UNL     1     -45.102 -47.485   9.597  1.00  0.00     0.056 C 
HETATM    6  C   UNL     1     -43.051 -45.976   9.537  1.00  0.00     0.256 A 
HETATM    7  N   UNL     1     -41.738 -45.813   9.870  1.00  0.00    -0.275 N 
HETATM    8  O   UNL     1     -43.676 -45.123   8.915  1.00  0.00    -0.267 OA
HETATM    9  C   UNL     1     -40.989 -46.665  10.636  1.00  0.00     0.331 A 
HETATM   10  H   UNL     1     -41.297 -44.954   9.583  1.00  0.00     0.173 HD
HETATM   11  O   UNL     1     -39.828 -46.384  10.928  1.00  0.00    -0.246 OA
ENDBRANCH   1   2
BRANCH   1  12
HETATM   12  O   UNL     1     -40.738 -50.014  11.283  1.00  0.00    -0.368 OA
BRANCH  12  13
HETATM   13  C   UNL     1     -40.806 -51.045  12.258  1.00  0.00     0.197 C 
BRANCH  13  14
HETATM   14  C   UNL     1     -42.084 -50.859  13.010  1.00  0.00     0.000 C 
HETATM   15  C   UNL     1     -43.122 -51.709  12.952  1.00  0.00     0.009 C 
BRANCH  15  16
HETATM   16  C   UNL     1     -44.363 -51.561  13.727  1.00  0.00    -0.036 A 
HETATM   17  C   UNL     1     -44.371 -51.278  15.099  1.00  0.00     0.011 A 
HETATM   18  C   UNL     1     -45.579 -51.149  15.793  1.00  0.00     0.001 A 
HETATM   19  C   UNL     1     -46.790 -51.289  15.119  1.00  0.00     0.000 A 
HETATM   20  C   UNL     1     -46.796 -51.544  13.750  1.00  0.00     0.001 A 
HETATM   21  C   UNL     1     -45.589 -51.672  13.057  1.00  0.00     0.011 A 
ENDBRANCH  15  16
ENDBRANCH  13  14
ENDBRANCH  12  13
ENDBRANCH   1  12
TORSDOF 5
ENDMDL
MODEL 2
REMARK VINA RESULT:      -6.3      1.880      2.252
REMARK  5 active torsions:
REMARK  status: ('A' for Active; 'I' for Inactive)
REMARK    1  A    between atoms: N_4  and  C_5 
REMARK    2  A    between atoms: C_5  and  O_6 
REMARK    3  A    between atoms: O_6  and  C_7 
REMARK    4  A    between atoms: C_7  and  C_8 
REMARK    5  A    between atoms: C_9  and  C_10 
ROOT
HETATM    1  C   UNL     1     -40.992 -48.696  11.905  1.00  0.00     0.303 C 
ENDROOT
BRANCH   1   2
HETATM    2  N   UNL     1     -41.738 -47.787  11.048  1.00  0.00    -0.287 N 
HETATM    3  C   UNL     1     -43.042 -48.037  10.671  1.00  0.00     0.110 A 
HETATM    4  C   UNL     1     -43.755 -47.179   9.931  1.00  0.00     0.022 A 
HETATM    5  C   UNL     1     -45.174 -47.400   9.525  1.00  0.00     0.056 C 
HETATM    6  C   UNL     1     -43.097 -45.926   9.496  1.00  0.00     0.256 A 
HETATM    7  N   UNL     1     -41.788 -45.783   9.855  1.00  0.00    -0.275 N 
HETATM    8  O   UNL     1     -43.694 -45.068   8.855  1.00  0.00    -0.267 OA
HETATM    9  C   UNL     1     -41.070 -46.641  10.643  1.00  0.00     0.331 A 
HETATM   10  H   UNL     1     -41.327 -44.933   9.572  1.00  0.00     0.173 HD
HETATM   11  O   UNL     1     -39.910 -46.378  10.957  1.00  0.00    -0.246 OA
ENDBRANCH   1   2
BRANCH   1  12
HETATM   12  O   UNL     1     -40.656 -49.895  11.216  1.00  0.00    -0.368 OA
BRANCH  12  13
HETATM   13  C   UNL     1     -39.928 -50.786  12.051  1.00  0.00     0.197 C 
BRANCH  13  14
HETATM   14  C   UNL     1     -40.928 -51.626  12.778  1.00  0.00     0.000 C 
HETATM   15  C   UNL     1     -41.833 -52.411  12.173  1.00  0.00     0.009 C 
BRANCH  15  16
HETATM   16  C   UNL     1     -42.786 -53.280  12.879  1.00  0.00    -0.036 A 
HETATM   17  C   UNL     1     -44.124 -53.416  12.487  1.00  0.00     0.011 A 
HETATM   18  C   UNL     1     -44.991 -54.255  13.195  1.00  0.00     0.001 A 
HETATM   19  C   UNL     1     -44.527 -54.975  14.293  1.00  0.00     0.000 A 
HETATM   20  C   UNL     1     -43.192 -54.870  14.677  1.00  0.00     0.001 A 
HETATM   21  C   UNL     1     -42.325 -54.031  13.969  1.00  0.00     0.011 A 
ENDBRANCH  15  16
ENDBRANCH  13  14
ENDBRANCH  12  13
ENDBRANCH   1  12
TORSDOF 5
ENDMDL
MODEL 3
REMARK VINA RESULT:      -6.2      5.397      7.371
REMARK  5 active torsions:
REMARK  status: ('A' for Active; 'I' for Inactive)
REMARK    1  A    between atoms: N_4  and  C_5 
REMARK    2  A    between atoms: C_5  and  O_6 
REMARK    3  A    between atoms: O_6  and  C_7 
REMARK    4  A    between atoms: C_7  and  C_8 
REMARK    5  A    between atoms: C_9  and  C_10 
ROOT
HETATM    1  C   UNL     1     -44.308 -53.841  12.525  1.00  0.00     0.303 C 
ENDROOT
BRANCH   1   2
HETATM    2  N   UNL     1     -43.285 -54.199  13.497  1.00  0.00    -0.287 N 
HETATM    3  C   UNL     1     -41.951 -53.903  13.300  1.00  0.00     0.110 A 
HETATM    4  C   UNL     1     -41.011 -54.177  14.213  1.00  0.00     0.022 A 
HETATM    5  C   UNL     1     -39.564 -53.851  14.051  1.00  0.00     0.056 C 
HETATM    6  C   UNL     1     -41.436 -54.837  15.469  1.00  0.00     0.256 A 
HETATM    7  N   UNL     1     -42.760 -55.154  15.559  1.00  0.00    -0.275 N 
HETATM    8  O   UNL     1     -40.645 -55.080  16.374  1.00  0.00    -0.267 OA
HETATM    9  C   UNL     1     -43.727 -54.841  14.643  1.00  0.00     0.331 A 
HETATM   10  H   UNL     1     -43.066 -55.598  16.410  1.00  0.00     0.173 HD
HETATM   11  O   UNL     1     -44.906 -55.121  14.859  1.00  0.00    -0.246 OA
ENDBRANCH   1   2
BRANCH   1  12
HETATM   12  O   UNL     1     -44.675 -52.471  12.642  1.00  0.00    -0.368 OA
BRANCH  12  13
HETATM   13  C   UNL     1     -46.086 -52.312  12.651  1.00  0.00     0.197 C 
BRANCH  13  14
HETATM   14  C   UNL     1     -46.432 -51.490  13.851  1.00  0.00     0.000 C 
HETATM   15  C   UNL     1     -46.444 -51.962  15.108  1.00  0.00     0.009 C 
BRANCH  15  16
HETATM   16  C   UNL     1     -46.731 -51.149  16.298  1.00  0.00    -0.036 A 
HETATM   17  C   UNL     1     -47.996 -51.106  16.901  1.00  0.00     0.011 A 
HETATM   18  C   UNL     1     -48.219 -50.314  18.032  1.00  0.00     0.001 A 
HETATM   19  C   UNL     1     -47.178 -49.568  18.580  1.00  0.00     0.000 A 
HETATM   20  C   UNL     1     -45.910 -49.624  18.008  1.00  0.00     0.001 A 
HETATM   21  C   UNL     1     -45.686 -50.415  16.877  1.00  0.00     0.011 A 
ENDBRANCH  15  16
ENDBRANCH  13  14
ENDBRANCH  12  13
ENDBRANCH   1  12
TORSDOF 5
ENDMDL
MODEL 4
REMARK VINA RESULT:      -6.0      2.651      3.520
REMARK  5 active torsions:
REMARK  status: ('A' for Active; 'I' for Inactive)
REMARK    1  A    between atoms: N_4  and  C_5 
REMARK    2  A    between atoms: C_5  and  O_6 
REMARK    3  A    between atoms: O_6  and  C_7 
REMARK    4  A    between atoms: C_7  and  C_8 
REMARK    5  A    between atoms: C_9  and  C_10 
ROOT
HETATM    1  C   UNL     1     -40.917 -48.850  12.827  1.00  0.00     0.303 C 
ENDROOT
BRANCH   1   2
HETATM    2  N   UNL     1     -40.661 -47.593  12.139  1.00  0.00    -0.287 N 
HETATM    3  C   UNL     1     -40.020 -46.537  12.754  1.00  0.00     0.110 A 
HETATM    4  C   UNL     1     -39.729 -45.399  12.111  1.00  0.00     0.022 A 
HETATM    5  C   UNL     1     -39.014 -44.245  12.731  1.00  0.00     0.056 C 
HETATM    6  C   UNL     1     -40.134 -45.281  10.692  1.00  0.00     0.256 A 
HETATM    7  N   UNL     1     -40.821 -46.342  10.176  1.00  0.00    -0.275 N 
HETATM    8  O   UNL     1     -39.865 -44.291  10.020  1.00  0.00    -0.267 OA
HETATM    9  C   UNL     1     -41.086 -47.520  10.820  1.00  0.00     0.331 A 
HETATM   10  H   UNL     1     -41.099 -46.280   9.210  1.00  0.00     0.173 HD
HETATM   11  O   UNL     1     -41.658 -48.437  10.234  1.00  0.00    -0.246 OA
ENDBRANCH   1   2
BRANCH   1  12
HETATM   12  O   UNL     1     -39.732 -49.630  12.936  1.00  0.00    -0.368 OA
BRANCH  12  13
HETATM   13  C   UNL     1     -39.827 -50.824  12.172  1.00  0.00     0.197 C 
BRANCH  13  14
HETATM   14  C   UNL     1     -41.077 -51.523  12.598  1.00  0.00     0.000 C 
HETATM   15  C   UNL     1     -41.188 -52.855  12.727  1.00  0.00     0.009 C 
BRANCH  15  16
HETATM   16  C   UNL     1     -42.398 -53.548  13.194  1.00  0.00    -0.036 A 
HETATM   17  C   UNL     1     -43.641 -53.415  12.561  1.00  0.00     0.011 A 
HETATM   18  C   UNL     1     -44.763 -54.094  13.047  1.00  0.00     0.001 A 
HETATM   19  C   UNL     1     -44.652 -54.923  14.161  1.00  0.00     0.000 A 
HETATM   20  C   UNL     1     -43.416 -55.085  14.783  1.00  0.00     0.001 A 
HETATM   21  C   UNL     1     -42.294 -54.406  14.298  1.00  0.00     0.011 A 
ENDBRANCH  15  16
ENDBRANCH  13  14
ENDBRANCH  12  13
ENDBRANCH   1  12
TORSDOF 5
ENDMDL
MODEL 5
REMARK VINA RESULT:      -5.9      4.873      6.763
REMARK  5 active torsions:
REMARK  status: ('A' for Active; 'I' for Inactive)
REMARK    1  A    between atoms: N_4  and  C_5 
REMARK    2  A    between atoms: C_5  and  O_6 
REMARK    3  A    between atoms: O_6  and  C_7 
REMARK    4  A    between atoms: C_7  and  C_8 
REMARK    5  A    between atoms: C_9  and  C_10 
ROOT
HETATM    1  C   UNL     1     -44.239 -53.618  12.224  1.00  0.00     0.303 C 
ENDROOT
BRANCH   1   2
HETATM    2  N   UNL     1     -43.160 -53.776  13.188  1.00  0.00    -0.287 N 
HETATM    3  C   UNL     1     -43.274 -54.602  14.288  1.00  0.00     0.110 A 
HETATM    4  C   UNL     1     -42.267 -54.797  15.148  1.00  0.00     0.022 A 
HETATM    5  C   UNL     1     -42.340 -55.702  16.333  1.00  0.00     0.056 C 
HETATM    6  C   UNL     1     -40.995 -54.079  14.903  1.00  0.00     0.256 A 
HETATM    7  N   UNL     1     -40.985 -53.232  13.832  1.00  0.00    -0.275 N 
HETATM    8  O   UNL     1     -40.011 -54.238  15.616  1.00  0.00    -0.267 OA
HETATM    9  C   UNL     1     -42.000 -53.060  12.931  1.00  0.00     0.331 A 
HETATM   10  H   UNL     1     -40.126 -52.739  13.648  1.00  0.00     0.173 HD
HETATM   11  O   UNL     1     -41.856 -52.315  11.963  1.00  0.00    -0.246 OA
ENDBRANCH   1   2
BRANCH   1  12
HETATM   12  O   UNL     1     -45.500 -53.507  12.874  1.00  0.00    -0.368 OA
BRANCH  12  13
HETATM   13  C   UNL     1     -46.192 -52.335  12.464  1.00  0.00     0.197 C 
BRANCH  13  14
HETATM   14  C   UNL     1     -46.562 -51.584  13.701  1.00  0.00     0.000 C 
HETATM   15  C   UNL     1     -46.163 -51.925  14.937  1.00  0.00     0.009 C 
BRANCH  15  16
HETATM   16  C   UNL     1     -46.479 -51.163  16.154  1.00  0.00    -0.036 A 
HETATM   17  C   UNL     1     -45.536 -50.366  16.816  1.00  0.00     0.011 A 
HETATM   18  C   UNL     1     -45.887 -49.662  17.973  1.00  0.00     0.001 A 
HETATM   19  C   UNL     1     -47.186 -49.736  18.471  1.00  0.00     0.000 A 
HETATM   20  C   UNL     1     -48.139 -50.503  17.806  1.00  0.00     0.001 A 
HETATM   21  C   UNL     1     -47.789 -51.207  16.650  1.00  0.00     0.011 A 
ENDBRANCH  15  16
ENDBRANCH  13  14
ENDBRANCH  12  13
ENDBRANCH   1  12
TORSDOF 5
ENDMDL
MODEL 6
REMARK VINA RESULT:      -5.9      1.856      2.607
REMARK  5 active torsions:
REMARK  status: ('A' for Active; 'I' for Inactive)
REMARK    1  A    between atoms: N_4  and  C_5 
REMARK    2  A    between atoms: C_5  and  O_6 
REMARK    3  A    between atoms: O_6  and  C_7 
REMARK    4  A    between atoms: C_7  and  C_8 
REMARK    5  A    between atoms: C_9  and  C_10 
ROOT
HETATM    1  C   UNL     1     -40.122 -51.298  12.918  1.00  0.00     0.303 C 
ENDROOT
BRANCH   1   2
HETATM    2  N   UNL     1     -40.443 -50.052  12.237  1.00  0.00    -0.287 N 
HETATM    3  C   UNL     1     -41.745 -49.636  12.044  1.00  0.00     0.110 A 
HETATM    4  C   UNL     1     -42.048 -48.465  11.470  1.00  0.00     0.022 A 
HETATM    5  C   UNL     1     -43.440 -47.966  11.267  1.00  0.00     0.056 C 
HETATM    6  C   UNL     1     -40.931 -47.605  11.017  1.00  0.00     0.256 A 
HETATM    7  N   UNL     1     -39.677 -48.116  11.185  1.00  0.00    -0.275 N 
HETATM    8  O   UNL     1     -41.122 -46.498  10.524  1.00  0.00    -0.267 OA
HETATM    9  C   UNL     1     -39.364 -49.296  11.805  1.00  0.00     0.331 A 
HETATM   10  H   UNL     1     -38.905 -47.542  10.887  1.00  0.00     0.173 HD
HETATM   11  O   UNL     1     -38.189 -49.628  11.958  1.00  0.00    -0.246 OA
ENDBRANCH   1   2
BRANCH   1  12
HETATM   12  O   UNL     1     -40.305 -52.418  12.059  1.00  0.00    -0.368 OA
BRANCH  12  13
HETATM   13  C   UNL     1     -40.828 -53.533  12.767  1.00  0.00     0.197 C 
BRANCH  13  14
HETATM   14  C   UNL     1     -42.128 -53.106  13.369  1.00  0.00     0.000 C 
HETATM   15  C   UNL     1     -43.328 -53.542  12.954  1.00  0.00     0.009 C 
BRANCH  15  16
HETATM   16  C   UNL     1     -44.608 -53.168  13.573  1.00  0.00    -0.036 A 
HETATM   17  C   UNL     1     -45.448 -54.097  14.202  1.00  0.00     0.011 A 
HETATM   18  C   UNL     1     -46.658 -53.690  14.774  1.00  0.00     0.001 A 
HETATM   19  C   UNL     1     -47.034 -52.349  14.734  1.00  0.00     0.000 A 
HETATM   20  C   UNL     1     -46.196 -51.412  14.136  1.00  0.00     0.001 A 
HETATM   21  C   UNL     1     -44.987 -51.818  13.564  1.00  0.00     0.011 A 
ENDBRANCH  15  16
ENDBRANCH  13  14
ENDBRANCH  12  13
ENDBRANCH   1  12
TORSDOF 5
ENDMDL
MODEL 7
REMARK VINA RESULT:      -5.9      1.711      2.628
REMARK  5 active torsions:
REMARK  status: ('A' for Active; 'I' for Inactive)
REMARK    1  A    between atoms: N_4  and  C_5 
REMARK    2  A    between atoms: C_5  and  O_6 
REMARK    3  A    between atoms: O_6  and  C_7 
REMARK    4  A    between atoms: C_7  and  C_8 
REMARK    5  A    between atoms: C_9  and  C_10 
ROOT
HETATM    1  C   UNL     1     -41.108 -48.572  12.737  1.00  0.00     0.303 C 
ENDROOT
BRANCH   1   2
HETATM    2  N   UNL     1     -40.793 -47.331  12.045  1.00  0.00    -0.287 N 
HETATM    3  C   UNL     1     -40.078 -46.315  12.649  1.00  0.00     0.110 A 
HETATM    4  C   UNL     1     -39.735 -45.195  12.003  1.00  0.00     0.022 A 
HETATM    5  C   UNL     1     -38.941 -44.086  12.610  1.00  0.00     0.056 C 
HETATM    6  C   UNL     1     -40.160 -45.050  10.591  1.00  0.00     0.256 A 
HETATM    7  N   UNL     1     -40.917 -46.067  10.088  1.00  0.00    -0.275 N 
HETATM    8  O   UNL     1     -39.846 -44.075   9.916  1.00  0.00    -0.267 OA
HETATM    9  C   UNL     1     -41.238 -47.230  10.736  1.00  0.00     0.331 A 
HETATM   10  H   UNL     1     -41.210 -45.987   9.128  1.00  0.00     0.173 HD
HETATM   11  O   UNL     1     -41.875 -48.110  10.159  1.00  0.00    -0.246 OA
ENDBRANCH   1   2
BRANCH   1  12
HETATM   12  O   UNL     1     -40.209 -49.612  12.367  1.00  0.00    -0.368 OA
BRANCH  12  13
HETATM   13  C   UNL     1     -40.873 -50.865  12.287  1.00  0.00     0.197 C 
BRANCH  13  14
HETATM   14  C   UNL     1     -42.174 -50.725  13.009  1.00  0.00     0.000 C 
HETATM   15  C   UNL     1     -43.162 -51.633  12.964  1.00  0.00     0.009 C 
BRANCH  15  16
HETATM   16  C   UNL     1     -44.423 -51.528  13.712  1.00  0.00    -0.036 A 
HETATM   17  C   UNL     1     -44.470 -51.276  15.090  1.00  0.00     0.011 A 
HETATM   18  C   UNL     1     -45.697 -51.187  15.756  1.00  0.00     0.001 A 
HETATM   19  C   UNL     1     -46.888 -51.336  15.050  1.00  0.00     0.000 A 
HETATM   20  C   UNL     1     -46.856 -51.559  13.676  1.00  0.00     0.001 A 
HETATM   21  C   UNL     1     -45.630 -51.648  13.010  1.00  0.00     0.011 A 
ENDBRANCH  15  16
ENDBRANCH  13  14
ENDBRANCH  12  13
ENDBRANCH   1  12
TORSDOF 5
ENDMDL
MODEL 8
REMARK VINA RESULT:      -5.6      4.949      6.906
REMARK  5 active torsions:
REMARK  status: ('A' for Active; 'I' for Inactive)
REMARK    1  A    between atoms: N_4  and  C_5 
REMARK    2  A    between atoms: C_5  and  O_6 
REMARK    3  A    between atoms: O_6  and  C_7 
REMARK    4  A    between atoms: C_7  and  C_8 
REMARK    5  A    between atoms: C_9  and  C_10 
ROOT
HETATM    1  C   UNL     1     -45.359 -54.873  14.057  1.00  0.00     0.303 C 
ENDROOT
BRANCH   1   2
HETATM    2  N   UNL     1     -44.149 -54.231  13.565  1.00  0.00    -0.287 N 
HETATM    3  C   UNL     1     -42.909 -54.482  14.117  1.00  0.00     0.110 A 
HETATM    4  C   UNL     1     -41.783 -53.941  13.634  1.00  0.00     0.022 A 
HETATM    5  C   UNL     1     -40.422 -54.207  14.184  1.00  0.00     0.056 C 
HETATM    6  C   UNL     1     -41.896 -53.028  12.473  1.00  0.00     0.256 A 
HETATM    7  N   UNL     1     -43.161 -52.781  12.027  1.00  0.00    -0.275 N 
HETATM    8  O   UNL     1     -40.909 -52.528  11.943  1.00  0.00    -0.267 OA
HETATM    9  C   UNL     1     -44.309 -53.362  12.496  1.00  0.00     0.331 A 
HETATM   10  H   UNL     1     -43.255 -52.166  11.235  1.00  0.00     0.173 HD
HETATM   11  O   UNL     1     -45.394 -53.112  11.973  1.00  0.00    -0.246 OA
ENDBRANCH   1   2
BRANCH   1  12
HETATM   12  O   UNL     1     -46.162 -53.961  14.798  1.00  0.00    -0.368 OA
BRANCH  12  13
HETATM   13  C   UNL     1     -45.943 -54.097  16.196  1.00  0.00     0.197 C 
BRANCH  13  14
HETATM   14  C   UNL     1     -45.904 -52.719  16.773  1.00  0.00     0.000 C 
HETATM   15  C   UNL     1     -46.993 -51.971  17.011  1.00  0.00     0.009 C 
BRANCH  15  16
HETATM   16  C   UNL     1     -46.968 -50.636  17.626  1.00  0.00    -0.036 A 
HETATM   17  C   UNL     1     -45.807 -49.855  17.697  1.00  0.00     0.011 A 
HETATM   18  C   UNL     1     -45.835 -48.591  18.296  1.00  0.00     0.001 A 
HETATM   19  C   UNL     1     -47.025 -48.090  18.817  1.00  0.00     0.000 A 
HETATM   20  C   UNL     1     -48.192 -48.845  18.729  1.00  0.00     0.001 A 
HETATM   21  C   UNL     1     -48.165 -50.108  18.131  1.00  0.00     0.011 A 
ENDBRANCH  15  16
ENDBRANCH  13  14
ENDBRANCH  12  13
ENDBRANCH   1  12
TORSDOF 5
ENDMDL
MODEL 9
REMARK VINA RESULT:      -5.5      3.336      4.877
REMARK  5 active torsions:
REMARK  status: ('A' for Active; 'I' for Inactive)
REMARK    1  A    between atoms: N_4  and  C_5 
REMARK    2  A    between atoms: C_5  and  O_6 
REMARK    3  A    between atoms: O_6  and  C_7 
REMARK    4  A    between atoms: C_7  and  C_8 
REMARK    5  A    between atoms: C_9  and  C_10 
ROOT
HETATM    1  C   UNL     1     -39.726 -53.473  13.821  1.00  0.00     0.303 C 
ENDROOT
BRANCH   1   2
HETATM    2  N   UNL     1     -39.648 -52.120  13.291  1.00  0.00    -0.287 N 
HETATM    3  C   UNL     1     -38.792 -51.174  13.817  1.00  0.00     0.110 A 
HETATM    4  C   UNL     1     -38.672 -49.945  13.301  1.00  0.00     0.022 A 
HETATM    5  C   UNL     1     -37.741 -48.903  13.823  1.00  0.00     0.056 C 
HETATM    6  C   UNL     1     -39.510 -49.601  12.129  1.00  0.00     0.256 A 
HETATM    7  N   UNL     1     -40.376 -50.568  11.708  1.00  0.00    -0.275 N 
HETATM    8  O   UNL     1     -39.427 -48.513  11.568  1.00  0.00    -0.267 OA
HETATM    9  C   UNL     1     -40.473 -51.837  12.212  1.00  0.00     0.331 A 
HETATM   10  H   UNL     1     -40.950 -50.352  10.909  1.00  0.00     0.173 HD
HETATM   11  O   UNL     1     -41.248 -52.650  11.711  1.00  0.00    -0.246 OA
ENDBRANCH   1   2
BRANCH   1  12
HETATM   12  O   UNL     1     -40.361 -53.493  15.095  1.00  0.00    -0.368 OA
BRANCH  12  13
HETATM   13  C   UNL     1     -41.262 -54.585  15.207  1.00  0.00     0.197 C 
BRANCH  13  14
HETATM   14  C   UNL     1     -42.550 -54.162  14.578  1.00  0.00     0.000 C 
HETATM   15  C   UNL     1     -43.200 -53.027  14.884  1.00  0.00     0.009 C 
BRANCH  15  16
HETATM   16  C   UNL     1     -44.440 -52.578  14.234  1.00  0.00    -0.036 A 
HETATM   17  C   UNL     1     -44.759 -52.895  12.906  1.00  0.00     0.011 A 
HETATM   18  C   UNL     1     -45.952 -52.441  12.333  1.00  0.00     0.001 A 
HETATM   19  C   UNL     1     -46.842 -51.676  13.084  1.00  0.00     0.000 A 
HETATM   20  C   UNL     1     -46.549 -51.377  14.412  1.00  0.00     0.001 A 
HETATM   21  C   UNL     1     -45.357 -51.831  14.985  1.00  0.00     0.011 A 
ENDBRANCH  15  16
ENDBRANCH  13  14
ENDBRANCH  12  13
ENDBRANCH   1  12
TORSDOF 5
ENDMDL
