MODEL 1
REMARK VINA RESULT:      -5.0      0.000      0.000
REMARK  2 active torsions:
REMARK  status: ('A' for Active; 'I' for Inactive)
REMARK       I    between atoms: C_2  and  N_3 
REMARK    1  A    between atoms: C_2  and  C_11 
REMARK    2  A    between atoms: N_3  and  C_4 
ROOT
HETATM    1  O   UNL     1     -42.169 -50.789  12.151  1.00  0.00    -0.270 OA
HETATM    2  C   UNL     1     -42.096 -51.971  12.472  1.00  0.00     0.254 C 
HETATM    3  N   UNL     1     -43.042 -52.696  13.175  1.00  0.00    -0.311 N 
HETATM    4  H   UNL     1     -42.779 -53.633  13.450  1.00  0.00     0.170 HD
ENDROOT
BRANCH   3   5
HETATM    5  C   UNL     1     -44.321 -52.248  13.522  1.00  0.00     0.107 A 
HETATM    6  C   UNL     1     -44.613 -52.128  14.879  1.00  0.00     0.048 A 
HETATM    7  C   UNL     1     -45.879 -51.689  15.267  1.00  0.00     0.005 A 
HETATM    8  C   UNL     1     -46.825 -51.395  14.294  1.00  0.00     0.017 A 
HETATM    9  C   UNL     1     -46.457 -51.548  12.970  1.00  0.00     0.089 A 
HETATM   10  N   UNL     1     -45.232 -51.962  12.577  1.00  0.00    -0.352 N 
ATOM     11  HN  UNL     1     -45.005 -52.057  11.588  1.00  0.00     0.166 HD
ENDBRANCH   3   5
BRANCH   2  12
HETATM   12  C   UNL     1     -40.807 -52.795  12.248  1.00  0.00     0.237 C 
HETATM   13  C   UNL     1     -40.877 -54.155  12.950  1.00  0.00     0.209 C 
HETATM   14  O   UNL     1     -40.655 -54.030  14.363  1.00  0.00    -0.386 OA
HETATM   15  C   UNL     1     -39.387 -53.423  14.613  1.00  0.00     0.193 C 
HETATM   16  C   UNL     1     -39.298 -52.055  13.942  1.00  0.00     0.195 C 
HETATM   17  O   UNL     1     -39.576 -52.110  12.534  1.00  0.00    -0.372 OA
ENDBRANCH   2  12
TORSDOF 2
ENDMDL
MODEL 2
REMARK VINA RESULT:      -4.8      2.562      5.305
REMARK  2 active torsions:
REMARK  status: ('A' for Active; 'I' for Inactive)
REMARK       I    between atoms: C_2  and  N_3 
REMARK    1  A    between atoms: C_2  and  C_11 
REMARK    2  A    between atoms: N_3  and  C_4 
ROOT
HETATM    1  O   UNL     1     -43.948 -51.220  13.623  1.00  0.00    -0.270 OA
HETATM    2  C   UNL     1     -43.851 -52.166  12.847  1.00  0.00     0.254 C 
HETATM    3  N   UNL     1     -42.734 -52.514  12.107  1.00  0.00    -0.311 N 
HETATM    4  H   UNL     1     -42.855 -53.261  11.435  1.00  0.00     0.170 HD
ENDROOT
BRANCH   3   5
HETATM    5  C   UNL     1     -41.467 -51.933  12.218  1.00  0.00     0.107 A 
HETATM    6  C   UNL     1     -40.642 -52.383  13.247  1.00  0.00     0.048 A 
HETATM    7  C   UNL     1     -39.373 -51.825  13.396  1.00  0.00     0.005 A 
HETATM    8  C   UNL     1     -38.964 -50.822  12.527  1.00  0.00     0.017 A 
HETATM    9  C   UNL     1     -39.846 -50.427  11.538  1.00  0.00     0.089 A 
HETATM   10  N   UNL     1     -41.075 -50.965  11.374  1.00  0.00    -0.352 N 
ATOM     11  HN  UNL     1     -41.690 -50.642  10.627  1.00  0.00     0.166 HD
ENDBRANCH   3   5
BRANCH   2  12
HETATM   12  C   UNL     1     -45.070 -53.040  12.474  1.00  0.00     0.237 C 
HETATM   13  C   UNL     1     -46.339 -52.578  13.197  1.00  0.00     0.209 C 
HETATM   14  O   UNL     1     -46.346 -53.001  14.569  1.00  0.00    -0.386 OA
HETATM   15  C   UNL     1     -46.236 -54.423  14.649  1.00  0.00     0.193 C 
HETATM   16  C   UNL     1     -44.966 -54.909  13.954  1.00  0.00     0.195 C 
HETATM   17  O   UNL     1     -44.874 -54.460  12.593  1.00  0.00    -0.372 OA
ENDBRANCH   2  12
TORSDOF 2
ENDMDL
MODEL 3
REMARK VINA RESULT:      -4.8      2.637      5.957
REMARK  2 active torsions:
REMARK  status: ('A' for Active; 'I' for Inactive)
REMARK       I    between atoms: C_2  and  N_3 
REMARK    1  A    between atoms: C_2  and  C_11 
REMARK    2  A    between atoms: N_3  and  C_4 
ROOT
HETATM    1  O   UNL     1     -44.410 -55.127  15.515  1.00  0.00    -0.270 OA
HETATM    2  C   UNL     1     -44.316 -54.541  14.441  1.00  0.00     0.254 C 
HETATM    3  N   UNL     1     -43.151 -54.077  13.853  1.00  0.00    -0.311 N 
HETATM    4  H   UNL     1     -43.260 -53.522  13.015  1.00  0.00     0.170 HD
ENDROOT
BRANCH   3   5
HETATM    5  C   UNL     1     -41.853 -54.321  14.312  1.00  0.00     0.107 A 
HETATM    6  C   UNL     1     -40.809 -54.152  13.405  1.00  0.00     0.048 A 
HETATM    7  C   UNL     1     -39.499 -54.390  13.822  1.00  0.00     0.005 A 
HETATM    8  C   UNL     1     -39.265 -54.804  15.127  1.00  0.00     0.017 A 
HETATM    9  C   UNL     1     -40.357 -54.954  15.961  1.00  0.00     0.089 A 
HETATM   10  N   UNL     1     -41.631 -54.718  15.576  1.00  0.00    -0.352 N 
ATOM     11  HN  UNL     1     -42.405 -54.840  16.229  1.00  0.00     0.166 HD
ENDBRANCH   3   5
BRANCH   2  12
HETATM   12  C   UNL     1     -45.564 -54.098  13.644  1.00  0.00     0.237 C 
HETATM   13  C   UNL     1     -45.248 -52.934  12.700  1.00  0.00     0.209 C 
HETATM   14  O   UNL     1     -45.153 -51.691  13.411  1.00  0.00    -0.386 OA
HETATM   15  C   UNL     1     -46.370 -51.427  14.111  1.00  0.00     0.193 C 
HETATM   16  C   UNL     1     -46.698 -52.563  15.076  1.00  0.00     0.195 C 
HETATM   17  O   UNL     1     -46.742 -53.844  14.429  1.00  0.00    -0.372 OA
ENDBRANCH   2  12
TORSDOF 2
ENDMDL
MODEL 4
REMARK VINA RESULT:      -4.7      2.682      3.715
REMARK  2 active torsions:
REMARK  status: ('A' for Active; 'I' for Inactive)
REMARK       I    between atoms: C_2  and  N_3 
REMARK    1  A    between atoms: C_2  and  C_11 
REMARK    2  A    between atoms: N_3  and  C_4 
ROOT
HETATM    1  O   UNL     1     -41.673 -49.701  11.760  1.00  0.00    -0.270 OA
HETATM    2  C   UNL     1     -40.645 -50.371  11.768  1.00  0.00     0.254 C 
HETATM    3  N   UNL     1     -40.520 -51.687  12.180  1.00  0.00    -0.311 N 
HETATM    4  H   UNL     1     -39.581 -52.058  12.222  1.00  0.00     0.170 HD
ENDROOT
BRANCH   3   5
HETATM    5  C   UNL     1     -41.576 -52.536  12.528  1.00  0.00     0.107 A 
HETATM    6  C   UNL     1     -41.349 -53.459  13.547  1.00  0.00     0.048 A 
HETATM    7  C   UNL     1     -42.374 -54.327  13.920  1.00  0.00     0.005 A 
HETATM    8  C   UNL     1     -43.593 -54.265  13.259  1.00  0.00     0.017 A 
HETATM    9  C   UNL     1     -43.734 -53.325  12.254  1.00  0.00     0.089 A 
HETATM   10  N   UNL     1     -42.755 -52.470  11.887  1.00  0.00    -0.352 N 
ATOM     11  HN  UNL     1     -42.907 -51.791  11.142  1.00  0.00     0.166 HD
ENDBRANCH   3   5
BRANCH   2  12
HETATM   12  C   UNL     1     -39.268 -49.751  11.441  1.00  0.00     0.237 C 
HETATM   13  C   UNL     1     -38.122 -50.564  12.051  1.00  0.00     0.209 C 
HETATM   14  O   UNL     1     -37.996 -50.319  13.460  1.00  0.00    -0.386 OA
HETATM   15  C   UNL     1     -37.782 -48.928  13.704  1.00  0.00     0.193 C 
HETATM   16  C   UNL     1     -38.922 -48.094  13.124  1.00  0.00     0.195 C 
HETATM   17  O   UNL     1     -39.137 -48.347  11.727  1.00  0.00    -0.372 OA
ENDBRANCH   2  12
TORSDOF 2
ENDMDL
MODEL 5
REMARK VINA RESULT:      -4.7      3.260      4.492
REMARK  2 active torsions:
REMARK  status: ('A' for Active; 'I' for Inactive)
REMARK       I    between atoms: C_2  and  N_3 
REMARK    1  A    between atoms: C_2  and  C_11 
REMARK    2  A    between atoms: N_3  and  C_4 
ROOT
HETATM    1  O   UNL     1     -42.441 -50.997  13.008  1.00  0.00    -0.270 OA
HETATM    2  C   UNL     1     -41.508 -51.411  12.326  1.00  0.00     0.254 C 
HETATM    3  N   UNL     1     -40.784 -50.690  11.393  1.00  0.00    -0.311 N 
HETATM    4  H   UNL     1     -40.115 -51.211  10.841  1.00  0.00     0.170 HD
ENDROOT
BRANCH   3   5
HETATM    5  C   UNL     1     -40.893 -49.315  11.161  1.00  0.00     0.107 A 
HETATM    6  C   UNL     1     -39.845 -48.506  11.597  1.00  0.00     0.048 A 
HETATM    7  C   UNL     1     -39.918 -47.128  11.390  1.00  0.00     0.005 A 
HETATM    8  C   UNL     1     -41.038 -46.591  10.769  1.00  0.00     0.017 A 
HETATM    9  C   UNL     1     -42.036 -47.463  10.374  1.00  0.00     0.089 A 
HETATM   10  N   UNL     1     -41.977 -48.800  10.558  1.00  0.00    -0.352 N 
ATOM     11  HN  UNL     1     -42.737 -49.404  10.246  1.00  0.00     0.166 HD
ENDBRANCH   3   5
BRANCH   2  12
HETATM   12  C   UNL     1     -41.105 -52.903  12.321  1.00  0.00     0.237 C 
HETATM   13  C   UNL     1     -42.124 -53.767  13.070  1.00  0.00     0.209 C 
HETATM   14  O   UNL     1     -41.976 -53.641  14.493  1.00  0.00    -0.386 OA
HETATM   15  C   UNL     1     -40.654 -54.007  14.887  1.00  0.00     0.193 C 
HETATM   16  C   UNL     1     -39.616 -53.146  14.171  1.00  0.00     0.195 C 
HETATM   17  O   UNL     1     -39.758 -53.182  12.743  1.00  0.00    -0.372 OA
ENDBRANCH   2  12
TORSDOF 2
ENDMDL
MODEL 6
REMARK VINA RESULT:      -4.6      1.477      1.990
REMARK  2 active torsions:
REMARK  status: ('A' for Active; 'I' for Inactive)
REMARK       I    between atoms: C_2  and  N_3 
REMARK    1  A    between atoms: C_2  and  C_11 
REMARK    2  A    between atoms: N_3  and  C_4 
ROOT
HETATM    1  O   UNL     1     -42.275 -54.586  14.804  1.00  0.00    -0.270 OA
HETATM    2  C   UNL     1     -42.136 -53.951  13.762  1.00  0.00     0.254 C 
HETATM    3  N   UNL     1     -43.117 -53.239  13.093  1.00  0.00    -0.311 N 
HETATM    4  H   UNL     1     -42.861 -52.860  12.191  1.00  0.00     0.170 HD
ENDROOT
BRANCH   3   5
HETATM    5  C   UNL     1     -44.412 -52.997  13.561  1.00  0.00     0.107 A 
HETATM    6  C   UNL     1     -44.905 -51.699  13.444  1.00  0.00     0.048 A 
HETATM    7  C   UNL     1     -46.191 -51.415  13.904  1.00  0.00     0.005 A 
HETATM    8  C   UNL     1     -46.946 -52.427  14.482  1.00  0.00     0.017 A 
HETATM    9  C   UNL     1     -46.380 -53.686  14.566  1.00  0.00     0.089 A 
HETATM   10  N   UNL     1     -45.140 -53.980  14.116  1.00  0.00    -0.352 N 
ATOM     11  HN  UNL     1     -44.766 -54.925  14.197  1.00  0.00     0.166 HD
ENDBRANCH   3   5
BRANCH   2  12
HETATM   12  C   UNL     1     -40.819 -53.993  12.954  1.00  0.00     0.237 C 
HETATM   13  C   UNL     1     -39.632 -54.406  13.830  1.00  0.00     0.209 C 
HETATM   14  O   UNL     1     -39.190 -53.322  14.661  1.00  0.00    -0.386 OA
HETATM   15  C   UNL     1     -38.828 -52.198  13.859  1.00  0.00     0.193 C 
HETATM   16  C   UNL     1     -40.002 -51.751  12.991  1.00  0.00     0.195 C 
HETATM   17  O   UNL     1     -40.529 -52.814  12.183  1.00  0.00    -0.372 OA
ENDBRANCH   2  12
TORSDOF 2
ENDMDL
MODEL 7
REMARK VINA RESULT:      -4.6      3.850      5.030
REMARK  2 active torsions:
REMARK  status: ('A' for Active; 'I' for Inactive)
REMARK       I    between atoms: C_2  and  N_3 
REMARK    1  A    between atoms: C_2  and  C_11 
REMARK    2  A    between atoms: N_3  and  C_4 
ROOT
HETATM    1  O   UNL     1     -39.242 -50.320  11.744  1.00  0.00    -0.270 OA
HETATM    2  C   UNL     1     -40.415 -50.651  11.595  1.00  0.00     0.254 C 
HETATM    3  N   UNL     1     -41.480 -49.813  11.315  1.00  0.00    -0.311 N 
HETATM    4  H   UNL     1     -42.399 -50.234  11.328  1.00  0.00     0.170 HD
ENDROOT
BRANCH   3   5
HETATM    5  C   UNL     1     -41.388 -48.452  11.008  1.00  0.00     0.107 A 
HETATM    6  C   UNL     1     -42.522 -47.833  10.487  1.00  0.00     0.048 A 
HETATM    7  C   UNL     1     -42.470 -46.477  10.163  1.00  0.00     0.005 A 
HETATM    8  C   UNL     1     -41.285 -45.777  10.352  1.00  0.00     0.017 A 
HETATM    9  C   UNL     1     -40.204 -46.468  10.867  1.00  0.00     0.089 A 
HETATM   10  N   UNL     1     -40.240 -47.778  11.195  1.00  0.00    -0.352 N 
ATOM     11  HN  UNL     1     -39.417 -48.244  11.575  1.00  0.00     0.166 HD
ENDBRANCH   3   5
BRANCH   2  12
HETATM   12  C   UNL     1     -40.891 -52.097  11.862  1.00  0.00     0.237 C 
HETATM   13  C   UNL     1     -42.336 -52.132  12.368  1.00  0.00     0.209 C 
HETATM   14  O   UNL     1     -42.418 -51.757  13.751  1.00  0.00    -0.386 OA
HETATM   15  C   UNL     1     -41.609 -52.622  14.548  1.00  0.00     0.193 C 
HETATM   16  C   UNL     1     -40.156 -52.590  14.078  1.00  0.00     0.195 C 
HETATM   17  O   UNL     1     -40.019 -52.895  12.682  1.00  0.00    -0.372 OA
ENDBRANCH   2  12
TORSDOF 2
ENDMDL
MODEL 8
REMARK VINA RESULT:      -4.4      4.802      5.640
REMARK  2 active torsions:
REMARK  status: ('A' for Active; 'I' for Inactive)
REMARK       I    between atoms: C_2  and  N_3 
REMARK    1  A    between atoms: C_2  and  C_11 
REMARK    2  A    between atoms: N_3  and  C_4 
ROOT
HETATM    1  O   UNL     1     -39.360 -47.471  13.647  1.00  0.00    -0.270 OA
HETATM    2  C   UNL     1     -38.982 -48.236  12.764  1.00  0.00     0.254 C 
HETATM    3  N   UNL     1     -39.572 -48.423  11.526  1.00  0.00    -0.311 N 
HETATM    4  H   UNL     1     -39.196 -49.169  10.956  1.00  0.00     0.170 HD
ENDROOT
BRANCH   3   5
HETATM    5  C   UNL     1     -40.624 -47.666  11.001  1.00  0.00     0.107 A 
HETATM    6  C   UNL     1     -41.730 -48.357  10.510  1.00  0.00     0.048 A 
HETATM    7  C   UNL     1     -42.799 -47.639   9.974  1.00  0.00     0.005 A 
HETATM    8  C   UNL     1     -42.732 -46.253   9.926  1.00  0.00     0.017 A 
HETATM    9  C   UNL     1     -41.596 -45.645  10.427  1.00  0.00     0.089 A 
HETATM   10  N   UNL     1     -40.556 -46.325  10.960  1.00  0.00    -0.352 N 
ATOM     11  HN  UNL     1     -39.740 -45.832  11.320  1.00  0.00     0.166 HD
ENDBRANCH   3   5
BRANCH   2  12
HETATM   12  C   UNL     1     -37.831 -49.240  12.997  1.00  0.00     0.237 C 
HETATM   13  C   UNL     1     -37.904 -50.420  12.022  1.00  0.00     0.209 C 
HETATM   14  O   UNL     1     -38.919 -51.359  12.408  1.00  0.00    -0.386 OA
HETATM   15  C   UNL     1     -38.671 -51.841  13.729  1.00  0.00     0.193 C 
HETATM   16  C   UNL     1     -38.615 -50.686  14.727  1.00  0.00     0.195 C 
HETATM   17  O   UNL     1     -37.659 -49.681  14.356  1.00  0.00    -0.372 OA
ENDBRANCH   2  12
TORSDOF 2
ENDMDL
MODEL 9
REMARK VINA RESULT:      -4.4      2.882      4.293
REMARK  2 active torsions:
REMARK  status: ('A' for Active; 'I' for Inactive)
REMARK       I    between atoms: C_2  and  N_3 
REMARK    1  A    between atoms: C_2  and  C_11 
REMARK    2  A    between atoms: N_3  and  C_4 
ROOT
HETATM    1  O   UNL     1     -41.478 -51.153  11.896  1.00  0.00    -0.270 OA
HETATM    2  C   UNL     1     -42.072 -50.180  12.349  1.00  0.00     0.254 C 
HETATM    3  N   UNL     1     -43.361 -50.161  12.854  1.00  0.00    -0.311 N 
HETATM    4  H   UNL     1     -43.739 -49.253  13.090  1.00  0.00     0.170 HD
ENDROOT
BRANCH   3   5
HETATM    5  C   UNL     1     -44.168 -51.283  13.069  1.00  0.00     0.107 A 
HETATM    6  C   UNL     1     -45.245 -51.141  13.943  1.00  0.00     0.048 A 
HETATM    7  C   UNL     1     -46.071 -52.237  14.189  1.00  0.00     0.005 A 
HETATM    8  C   UNL     1     -45.795 -53.450  13.572  1.00  0.00     0.017 A 
HETATM    9  C   UNL     1     -44.704 -53.508  12.725  1.00  0.00     0.089 A 
HETATM   10  N   UNL     1     -43.899 -52.453  12.468  1.00  0.00    -0.352 N 
ATOM     11  HN  UNL     1     -43.107 -52.544  11.833  1.00  0.00     0.166 HD
ENDBRANCH   3   5
BRANCH   2  12
HETATM   12  C   UNL     1     -41.477 -48.755  12.272  1.00  0.00     0.237 C 
HETATM   13  C   UNL     1     -42.432 -47.711  12.860  1.00  0.00     0.209 C 
HETATM   14  O   UNL     1     -43.502 -47.408  11.953  1.00  0.00    -0.386 OA
HETATM   15  C   UNL     1     -42.980 -46.936  10.711  1.00  0.00     0.193 C 
HETATM   16  C   UNL     1     -42.040 -47.968  10.091  1.00  0.00     0.195 C 
HETATM   17  O   UNL     1     -40.983 -48.359  10.981  1.00  0.00    -0.372 OA
ENDBRANCH   2  12
TORSDOF 2
ENDMDL
