MODEL 1
REMARK VINA RESULT:      -6.1      0.000      0.000
REMARK  3 active torsions:
REMARK  status: ('A' for Active; 'I' for Inactive)
REMARK    1  A    between atoms: N_2  and  C_4 
REMARK    2  A    between atoms: C_7  and  N_8 
REMARK       I    between atoms: N_8  and  C_9 
REMARK       I    between atoms: C_9  and  N_11 
REMARK    3  A    between atoms: N_11  and  C_12 
ROOT
HETATM    1  N   UNL     1     -42.766 -49.293  11.534  1.00  0.00    -0.308 N 
HETATM    2  C   UNL     1     -43.225 -49.537  12.817  1.00  0.00     0.321 C 
HETATM    3  O   UNL     1     -43.069 -48.810  13.791  1.00  0.00    -0.247 OA
HETATM    4  N   UNL     1     -43.935 -50.712  12.903  1.00  0.00    -0.338 N 
HETATM    5  H   UNL     1     -42.720 -50.076  10.903  1.00  0.00     0.170 HD
HETATM    6  H   UNL     1     -43.813 -51.391  12.170  1.00  0.00     0.164 HD
ENDROOT
BRANCH   1   7
HETATM    7  C   UNL     1     -42.180 -48.078  11.112  1.00  0.00     0.051 A 
HETATM    8  C   UNL     1     -42.924 -46.977  10.718  1.00  0.00     0.034 A 
HETATM    9  C   UNL     1     -42.283 -45.795  10.354  1.00  0.00     0.044 A 
HETATM   10  C   UNL     1     -40.892 -45.718  10.368  1.00  0.00     0.081 A 
HETATM   11  N   UNL     1     -40.144 -46.800  10.683  1.00  0.00    -0.354 N 
HETATM   12  C   UNL     1     -40.797 -47.941  11.046  1.00  0.00     0.119 A 
ATOM     13  HN  UNL     1     -39.125 -46.763  10.650  1.00  0.00     0.166 HD
BRANCH  10  14
HETATM   14  N   UNL     1     -40.301 -44.471  10.070  1.00  0.00    -0.278 NA
HETATM   15  C   UNL     1     -39.010 -44.571   9.401  1.00  0.00     0.118 C 
HETATM   16  C   UNL     1     -40.337 -43.589  11.238  1.00  0.00     0.118 C 
ENDBRANCH  10  14
ENDBRANCH   1   7
BRANCH   4  17
HETATM   17  C   UNL     1     -44.452 -51.178  14.190  1.00  0.00     0.086 C 
HETATM   18  C   UNL     1     -43.796 -52.500  14.612  1.00  0.00     0.025 C 
HETATM   19  C   UNL     1     -44.205 -53.653  13.697  1.00  0.00     0.002 C 
HETATM   20  C   UNL     1     -45.722 -53.791  13.594  1.00  0.00     0.000 C 
HETATM   21  C   UNL     1     -46.416 -52.476  13.241  1.00  0.00     0.002 C 
HETATM   22  C   UNL     1     -45.975 -51.331  14.149  1.00  0.00     0.025 C 
ENDBRANCH   4  17
TORSDOF 3
ENDMDL
MODEL 2
REMARK VINA RESULT:      -5.4      2.984      4.074
REMARK  3 active torsions:
REMARK  status: ('A' for Active; 'I' for Inactive)
REMARK    1  A    between atoms: N_2  and  C_4 
REMARK    2  A    between atoms: C_7  and  N_8 
REMARK       I    between atoms: N_8  and  C_9 
REMARK       I    between atoms: C_9  and  N_11 
REMARK    3  A    between atoms: N_11  and  C_12 
ROOT
HETATM    1  N   UNL     1     -41.254 -50.420  13.025  1.00  0.00    -0.308 N 
HETATM    2  C   UNL     1     -41.361 -51.766  12.722  1.00  0.00     0.321 C 
HETATM    3  O   UNL     1     -41.949 -52.248  11.761  1.00  0.00    -0.247 OA
HETATM    4  N   UNL     1     -40.691 -52.559  13.625  1.00  0.00    -0.338 N 
HETATM    5  H   UNL     1     -40.990 -50.177  13.965  1.00  0.00     0.170 HD
HETATM    6  H   UNL     1     -40.458 -52.161  14.520  1.00  0.00     0.164 HD
ENDROOT
BRANCH   1   7
HETATM    7  C   UNL     1     -41.675 -49.373  12.172  1.00  0.00     0.051 A 
HETATM    8  C   UNL     1     -42.911 -48.757  12.284  1.00  0.00     0.034 A 
HETATM    9  C   UNL     1     -43.245 -47.703  11.438  1.00  0.00     0.044 A 
HETATM   10  C   UNL     1     -42.347 -47.274  10.464  1.00  0.00     0.081 A 
HETATM   11  N   UNL     1     -41.164 -47.903  10.291  1.00  0.00    -0.354 N 
HETATM   12  C   UNL     1     -40.856 -48.925  11.140  1.00  0.00     0.119 A 
ATOM     13  HN  UNL     1     -40.521 -47.623   9.549  1.00  0.00     0.166 HD
BRANCH  10  14
HETATM   14  N   UNL     1     -42.706 -46.148   9.690  1.00  0.00    -0.278 NA
HETATM   15  C   UNL     1     -42.760 -44.902  10.444  1.00  0.00     0.118 C 
HETATM   16  C   UNL     1     -43.885 -46.439   8.871  1.00  0.00     0.118 C 
ENDBRANCH  10  14
ENDBRANCH   1   7
BRANCH   4  17
HETATM   17  C   UNL     1     -40.735 -54.017  13.513  1.00  0.00     0.086 C 
HETATM   18  C   UNL     1     -41.879 -54.608  14.349  1.00  0.00     0.025 C 
HETATM   19  C   UNL     1     -41.634 -54.435  15.847  1.00  0.00     0.002 C 
HETATM   20  C   UNL     1     -40.282 -55.001  16.275  1.00  0.00     0.000 C 
HETATM   21  C   UNL     1     -39.125 -54.485  15.420  1.00  0.00     0.002 C 
HETATM   22  C   UNL     1     -39.400 -54.642  13.926  1.00  0.00     0.025 C 
ENDBRANCH   4  17
TORSDOF 3
ENDMDL
MODEL 3
REMARK VINA RESULT:      -5.2      6.270      8.843
REMARK  3 active torsions:
REMARK  status: ('A' for Active; 'I' for Inactive)
REMARK    1  A    between atoms: N_2  and  C_4 
REMARK    2  A    between atoms: C_7  and  N_8 
REMARK       I    between atoms: N_8  and  C_9 
REMARK       I    between atoms: C_9  and  N_11 
REMARK    3  A    between atoms: N_11  and  C_12 
ROOT
HETATM    1  N   UNL     1     -41.653 -53.839  15.186  1.00  0.00    -0.308 N 
HETATM    2  C   UNL     1     -42.897 -54.404  14.965  1.00  0.00     0.321 C 
HETATM    3  O   UNL     1     -43.192 -55.584  15.109  1.00  0.00    -0.247 OA
HETATM    4  N   UNL     1     -43.832 -53.472  14.576  1.00  0.00    -0.338 N 
HETATM    5  H   UNL     1     -41.475 -52.937  14.776  1.00  0.00     0.170 HD
HETATM    6  H   UNL     1     -43.499 -52.592  14.218  1.00  0.00     0.164 HD
ENDROOT
BRANCH   1   7
HETATM    7  C   UNL     1     -40.561 -54.517  15.775  1.00  0.00     0.051 A 
HETATM    8  C   UNL     1     -40.539 -54.902  17.106  1.00  0.00     0.034 A 
HETATM    9  C   UNL     1     -39.449 -55.605  17.612  1.00  0.00     0.044 A 
HETATM   10  C   UNL     1     -38.368 -55.910  16.789  1.00  0.00     0.081 A 
HETATM   11  N   UNL     1     -38.336 -55.486  15.506  1.00  0.00    -0.354 N 
HETATM   12  C   UNL     1     -39.421 -54.809  15.032  1.00  0.00     0.119 A 
ATOM     13  HN  UNL     1     -37.527 -55.666  14.912  1.00  0.00     0.166 HD
BRANCH  10  14
HETATM   14  N   UNL     1     -37.329 -56.696  17.335  1.00  0.00    -0.278 NA
HETATM   15  C   UNL     1     -37.720 -57.465  18.509  1.00  0.00     0.118 C 
HETATM   16  C   UNL     1     -36.104 -55.905  17.480  1.00  0.00     0.118 C 
ENDBRANCH  10  14
ENDBRANCH   1   7
BRANCH   4  17
HETATM   17  C   UNL     1     -45.194 -53.881  14.234  1.00  0.00     0.086 C 
HETATM   18  C   UNL     1     -45.718 -53.117  13.011  1.00  0.00     0.025 C 
HETATM   19  C   UNL     1     -45.923 -51.634  13.314  1.00  0.00     0.002 C 
HETATM   20  C   UNL     1     -46.819 -51.417  14.531  1.00  0.00     0.000 C 
HETATM   21  C   UNL     1     -46.366 -52.216  15.752  1.00  0.00     0.002 C 
HETATM   22  C   UNL     1     -46.141 -53.690  15.423  1.00  0.00     0.025 C 
ENDBRANCH   4  17
TORSDOF 3
ENDMDL
MODEL 4
REMARK VINA RESULT:      -5.0      4.094      6.134
REMARK  3 active torsions:
REMARK  status: ('A' for Active; 'I' for Inactive)
REMARK    1  A    between atoms: N_2  and  C_4 
REMARK    2  A    between atoms: C_7  and  N_8 
REMARK       I    between atoms: N_8  and  C_9 
REMARK       I    between atoms: C_9  and  N_11 
REMARK    3  A    between atoms: N_11  and  C_12 
ROOT
HETATM    1  N   UNL     1     -40.808 -47.703  13.144  1.00  0.00    -0.308 N 
HETATM    2  C   UNL     1     -39.524 -48.211  13.050  1.00  0.00     0.321 C 
HETATM    3  O   UNL     1     -39.013 -48.707  12.052  1.00  0.00    -0.247 OA
HETATM    4  N   UNL     1     -38.822 -48.078  14.226  1.00  0.00    -0.338 N 
HETATM    5  H   UNL     1     -41.190 -47.582  14.067  1.00  0.00     0.170 HD
HETATM    6  H   UNL     1     -39.346 -47.921  15.071  1.00  0.00     0.164 HD
ENDROOT
BRANCH   1   7
HETATM    7  C   UNL     1     -41.682 -47.530  12.045  1.00  0.00     0.051 A 
HETATM    8  C   UNL     1     -41.528 -46.519  11.110  1.00  0.00     0.034 A 
HETATM    9  C   UNL     1     -42.399 -46.431  10.028  1.00  0.00     0.044 A 
HETATM   10  C   UNL     1     -43.440 -47.346   9.889  1.00  0.00     0.081 A 
HETATM   11  N   UNL     1     -43.651 -48.298  10.824  1.00  0.00    -0.354 N 
HETATM   12  C   UNL     1     -42.776 -48.370  11.868  1.00  0.00     0.119 A 
ATOM     13  HN  UNL     1     -44.439 -48.943  10.752  1.00  0.00     0.166 HD
BRANCH  10  14
HETATM   14  N   UNL     1     -44.241 -47.258   8.729  1.00  0.00    -0.278 NA
HETATM   15  C   UNL     1     -45.637 -47.614   8.944  1.00  0.00     0.118 C 
HETATM   16  C   UNL     1     -43.589 -47.923   7.599  1.00  0.00     0.118 C 
ENDBRANCH  10  14
ENDBRANCH   1   7
BRANCH   4  17
HETATM   17  C   UNL     1     -37.465 -48.610  14.348  1.00  0.00     0.086 C 
HETATM   18  C   UNL     1     -37.478 -50.088  14.765  1.00  0.00     0.025 C 
HETATM   19  C   UNL     1     -37.994 -50.270  16.190  1.00  0.00     0.002 C 
HETATM   20  C   UNL     1     -37.222 -49.415  17.192  1.00  0.00     0.000 C 
HETATM   21  C   UNL     1     -37.131 -47.948  16.776  1.00  0.00     0.002 C 
HETATM   22  C   UNL     1     -36.638 -47.787  15.340  1.00  0.00     0.025 C 
ENDBRANCH   4  17
TORSDOF 3
ENDMDL
MODEL 5
REMARK VINA RESULT:      -4.9      3.931      5.207
REMARK  3 active torsions:
REMARK  status: ('A' for Active; 'I' for Inactive)
REMARK    1  A    between atoms: N_2  and  C_4 
REMARK    2  A    between atoms: C_7  and  N_8 
REMARK       I    between atoms: N_8  and  C_9 
REMARK       I    between atoms: C_9  and  N_11 
REMARK    3  A    between atoms: N_11  and  C_12 
ROOT
HETATM    1  N   UNL     1     -40.207 -46.369  12.645  1.00  0.00    -0.308 N 
HETATM    2  C   UNL     1     -40.162 -47.481  11.822  1.00  0.00     0.321 C 
HETATM    3  O   UNL     1     -40.719 -47.603  10.738  1.00  0.00    -0.247 OA
HETATM    4  N   UNL     1     -39.373 -48.482  12.341  1.00  0.00    -0.338 N 
HETATM    5  H   UNL     1     -39.942 -46.495  13.607  1.00  0.00     0.170 HD
HETATM    6  H   UNL     1     -39.160 -48.453  13.324  1.00  0.00     0.164 HD
ENDROOT
BRANCH   1   7
HETATM    7  C   UNL     1     -40.776 -45.128  12.279  1.00  0.00     0.051 A 
HETATM    8  C   UNL     1     -40.042 -44.095  11.716  1.00  0.00     0.034 A 
HETATM    9  C   UNL     1     -40.675 -42.914  11.340  1.00  0.00     0.044 A 
HETATM   10  C   UNL     1     -42.044 -42.755  11.543  1.00  0.00     0.081 A 
HETATM   11  N   UNL     1     -42.767 -43.720  12.153  1.00  0.00    -0.354 N 
HETATM   12  C   UNL     1     -42.126 -44.872  12.501  1.00  0.00     0.119 A 
ATOM     13  HN  UNL     1     -43.761 -43.591  12.345  1.00  0.00     0.166 HD
BRANCH  10  14
HETATM   14  N   UNL     1     -42.645 -41.569  11.067  1.00  0.00    -0.278 NA
HETATM   15  C   UNL     1     -41.844 -40.370  11.281  1.00  0.00     0.118 C 
HETATM   16  C   UNL     1     -44.038 -41.482  11.509  1.00  0.00     0.118 C 
ENDBRANCH  10  14
ENDBRANCH   1   7
BRANCH   4  17
HETATM   17  C   UNL     1     -39.246 -49.765  11.649  1.00  0.00     0.086 C 
HETATM   18  C   UNL     1     -40.248 -50.795  12.191  1.00  0.00     0.025 C 
HETATM   19  C   UNL     1     -39.921 -51.201  13.626  1.00  0.00     0.002 C 
HETATM   20  C   UNL     1     -38.483 -51.695  13.768  1.00  0.00     0.000 C 
HETATM   21  C   UNL     1     -37.461 -50.725  13.179  1.00  0.00     0.002 C 
HETATM   22  C   UNL     1     -37.819 -50.309  11.753  1.00  0.00     0.025 C 
ENDBRANCH   4  17
TORSDOF 3
ENDMDL
MODEL 6
REMARK VINA RESULT:      -4.8      3.143      7.824
REMARK  3 active torsions:
REMARK  status: ('A' for Active; 'I' for Inactive)
REMARK    1  A    between atoms: N_2  and  C_4 
REMARK    2  A    between atoms: C_7  and  N_8 
REMARK       I    between atoms: N_8  and  C_9 
REMARK       I    between atoms: C_9  and  N_11 
REMARK    3  A    between atoms: N_11  and  C_12 
ROOT
HETATM    1  N   UNL     1     -40.219 -47.779  11.883  1.00  0.00    -0.308 N 
HETATM    2  C   UNL     1     -41.204 -46.949  12.390  1.00  0.00     0.321 C 
HETATM    3  O   UNL     1     -42.196 -47.302  13.016  1.00  0.00    -0.247 OA
HETATM    4  N   UNL     1     -40.944 -45.620  12.144  1.00  0.00    -0.338 N 
HETATM    5  H   UNL     1     -39.619 -47.401  11.169  1.00  0.00     0.170 HD
HETATM    6  H   UNL     1     -40.285 -45.396  11.417  1.00  0.00     0.164 HD
ENDROOT
BRANCH   1   7
HETATM    7  C   UNL     1     -40.124 -49.164  12.153  1.00  0.00     0.051 A 
HETATM    8  C   UNL     1     -39.398 -49.678  13.216  1.00  0.00     0.034 A 
HETATM    9  C   UNL     1     -39.381 -51.050  13.450  1.00  0.00     0.044 A 
HETATM   10  C   UNL     1     -40.078 -51.915  12.609  1.00  0.00     0.081 A 
HETATM   11  N   UNL     1     -40.736 -51.443  11.527  1.00  0.00    -0.354 N 
HETATM   12  C   UNL     1     -40.747 -50.094  11.326  1.00  0.00     0.119 A 
ATOM     13  HN  UNL     1     -41.210 -52.075  10.881  1.00  0.00     0.166 HD
BRANCH  10  14
HETATM   14  N   UNL     1     -40.093 -53.287  12.943  1.00  0.00    -0.278 NA
HETATM   15  C   UNL     1     -41.427 -53.866  13.013  1.00  0.00     0.118 C 
HETATM   16  C   UNL     1     -39.233 -53.546  14.100  1.00  0.00     0.118 C 
ENDBRANCH  10  14
ENDBRANCH   1   7
BRANCH   4  17
HETATM   17  C   UNL     1     -41.899 -44.587  12.547  1.00  0.00     0.086 C 
HETATM   18  C   UNL     1     -42.132 -43.570  11.422  1.00  0.00     0.025 C 
HETATM   19  C   UNL     1     -40.887 -42.729  11.151  1.00  0.00     0.002 C 
HETATM   20  C   UNL     1     -40.368 -42.051  12.416  1.00  0.00     0.000 C 
HETATM   21  C   UNL     1     -40.186 -43.023  13.580  1.00  0.00     0.002 C 
HETATM   22  C   UNL     1     -41.433 -43.873  13.819  1.00  0.00     0.025 C 
ENDBRANCH   4  17
TORSDOF 3
ENDMDL
MODEL 7
REMARK VINA RESULT:      -4.7      2.116      2.863
REMARK  3 active torsions:
REMARK  status: ('A' for Active; 'I' for Inactive)
REMARK    1  A    between atoms: N_2  and  C_4 
REMARK    2  A    between atoms: C_7  and  N_8 
REMARK       I    between atoms: N_8  and  C_9 
REMARK       I    between atoms: C_9  and  N_11 
REMARK    3  A    between atoms: N_11  and  C_12 
ROOT
HETATM    1  N   UNL     1     -42.205 -49.836  13.049  1.00  0.00    -0.308 N 
HETATM    2  C   UNL     1     -41.954 -51.110  12.570  1.00  0.00     0.321 C 
HETATM    3  O   UNL     1     -41.203 -51.402  11.646  1.00  0.00    -0.247 OA
HETATM    4  N   UNL     1     -42.631 -52.077  13.277  1.00  0.00    -0.338 N 
HETATM    5  H   UNL     1     -43.029 -49.709  13.613  1.00  0.00     0.170 HD
HETATM    6  H   UNL     1     -43.420 -51.789  13.833  1.00  0.00     0.164 HD
ENDROOT
BRANCH   1   7
HETATM    7  C   UNL     1     -41.502 -48.678  12.645  1.00  0.00     0.051 A 
HETATM    8  C   UNL     1     -41.730 -48.039  11.436  1.00  0.00     0.034 A 
HETATM    9  C   UNL     1     -41.032 -46.876  11.120  1.00  0.00     0.044 A 
HETATM   10  C   UNL     1     -40.090 -46.359  12.006  1.00  0.00     0.081 A 
HETATM   11  N   UNL     1     -39.802 -47.003  13.159  1.00  0.00    -0.354 N 
HETATM   12  C   UNL     1     -40.508 -48.133  13.451  1.00  0.00     0.119 A 
ATOM     13  HN  UNL     1     -39.081 -46.654  13.791  1.00  0.00     0.166 HD
BRANCH  10  14
HETATM   14  N   UNL     1     -39.474 -45.134  11.668  1.00  0.00    -0.278 NA
HETATM   15  C   UNL     1     -39.733 -44.059  12.617  1.00  0.00     0.118 C 
HETATM   16  C   UNL     1     -39.715 -44.805  10.262  1.00  0.00     0.118 C 
ENDBRANCH  10  14
ENDBRANCH   1   7
BRANCH   4  17
HETATM   17  C   UNL     1     -42.545 -53.484  12.886  1.00  0.00     0.086 C 
HETATM   18  C   UNL     1     -43.878 -54.211  13.111  1.00  0.00     0.025 C 
HETATM   19  C   UNL     1     -44.211 -54.338  14.596  1.00  0.00     0.002 C 
HETATM   20  C   UNL     1     -43.079 -54.996  15.381  1.00  0.00     0.000 C 
HETATM   21  C   UNL     1     -41.723 -54.341  15.131  1.00  0.00     0.002 C 
HETATM   22  C   UNL     1     -41.419 -54.198  13.641  1.00  0.00     0.025 C 
ENDBRANCH   4  17
TORSDOF 3
ENDMDL
MODEL 8
REMARK VINA RESULT:      -4.6     19.757     22.007
REMARK  3 active torsions:
REMARK  status: ('A' for Active; 'I' for Inactive)
REMARK    1  A    between atoms: N_2  and  C_4 
REMARK    2  A    between atoms: C_7  and  N_8 
REMARK       I    between atoms: N_8  and  C_9 
REMARK       I    between atoms: C_9  and  N_11 
REMARK    3  A    between atoms: N_11  and  C_12 
ROOT
HETATM    1  N   UNL     1     -27.158 -43.570  -1.729  1.00  0.00    -0.308 N 
HETATM    2  C   UNL     1     -27.565 -42.364  -1.185  1.00  0.00     0.321 C 
HETATM    3  O   UNL     1     -28.683 -41.870  -1.276  1.00  0.00    -0.247 OA
HETATM    4  N   UNL     1     -26.563 -41.748  -0.471  1.00  0.00    -0.338 N 
HETATM    5  H   UNL     1     -26.168 -43.726  -1.817  1.00  0.00     0.170 HD
HETATM    6  H   UNL     1     -25.615 -42.041  -0.642  1.00  0.00     0.164 HD
ENDROOT
BRANCH   1   7
HETATM    7  C   UNL     1     -28.025 -44.504  -2.342  1.00  0.00     0.051 A 
HETATM    8  C   UNL     1     -28.144 -44.636  -3.717  1.00  0.00     0.034 A 
HETATM    9  C   UNL     1     -28.985 -45.606  -4.255  1.00  0.00     0.044 A 
HETATM   10  C   UNL     1     -29.725 -46.436  -3.416  1.00  0.00     0.081 A 
HETATM   11  N   UNL     1     -29.679 -46.280  -2.074  1.00  0.00    -0.354 N 
HETATM   12  C   UNL     1     -28.838 -45.331  -1.573  1.00  0.00     0.119 A 
ATOM     13  HN  UNL     1     -30.253 -46.854  -1.457  1.00  0.00     0.166 HD
BRANCH  10  14
HETATM   14  N   UNL     1     -30.498 -47.455  -4.016  1.00  0.00    -0.278 NA
HETATM   15  C   UNL     1     -30.079 -47.799  -5.368  1.00  0.00     0.118 C 
HETATM   16  C   UNL     1     -31.928 -47.184  -3.850  1.00  0.00     0.118 C 
ENDBRANCH  10  14
ENDBRANCH   1   7
BRANCH   4  17
HETATM   17  C   UNL     1     -26.778 -40.432   0.130  1.00  0.00     0.086 C 
HETATM   18  C   UNL     1     -25.603 -39.487  -0.156  1.00  0.00     0.025 C 
HETATM   19  C   UNL     1     -24.329 -39.933   0.559  1.00  0.00     0.002 C 
HETATM   20  C   UNL     1     -24.548 -40.111   2.060  1.00  0.00     0.000 C 
HETATM   21  C   UNL     1     -25.752 -40.993   2.384  1.00  0.00     0.002 C 
HETATM   22  C   UNL     1     -27.009 -40.547   1.640  1.00  0.00     0.025 C 
ENDBRANCH   4  17
TORSDOF 3
ENDMDL
MODEL 9
REMARK VINA RESULT:      -4.6      4.403      5.071
REMARK  3 active torsions:
REMARK  status: ('A' for Active; 'I' for Inactive)
REMARK    1  A    between atoms: N_2  and  C_4 
REMARK    2  A    between atoms: C_7  and  N_8 
REMARK       I    between atoms: N_8  and  C_9 
REMARK       I    between atoms: C_9  and  N_11 
REMARK    3  A    between atoms: N_11  and  C_12 
ROOT
HETATM    1  N   UNL     1     -41.973 -51.025  14.956  1.00  0.00    -0.308 N 
HETATM    2  C   UNL     1     -42.603 -51.523  13.829  1.00  0.00     0.321 C 
HETATM    3  O   UNL     1     -42.161 -51.506  12.686  1.00  0.00    -0.247 OA
HETATM    4  N   UNL     1     -43.819 -52.097  14.120  1.00  0.00    -0.338 N 
HETATM    5  H   UNL     1     -42.544 -50.856  15.767  1.00  0.00     0.170 HD
HETATM    6  H   UNL     1     -44.255 -51.858  14.996  1.00  0.00     0.164 HD
ENDROOT
BRANCH   1   7
HETATM    7  C   UNL     1     -40.638 -50.560  14.986  1.00  0.00     0.051 A 
HETATM    8  C   UNL     1     -40.294 -49.234  14.771  1.00  0.00     0.034 A 
HETATM    9  C   UNL     1     -38.963 -48.836  14.857  1.00  0.00     0.044 A 
HETATM   10  C   UNL     1     -37.968 -49.768  15.142  1.00  0.00     0.081 A 
HETATM   11  N   UNL     1     -38.271 -51.078  15.288  1.00  0.00    -0.354 N 
HETATM   12  C   UNL     1     -39.584 -51.440  15.210  1.00  0.00     0.119 A 
ATOM     13  HN  UNL     1     -37.542 -51.772  15.451  1.00  0.00     0.166 HD
BRANCH  10  14
HETATM   14  N   UNL     1     -36.648 -49.292  15.299  1.00  0.00    -0.278 NA
HETATM   15  C   UNL     1     -35.861 -50.035  16.275  1.00  0.00     0.118 C 
HETATM   16  C   UNL     1     -36.639 -47.837  15.460  1.00  0.00     0.118 C 
ENDBRANCH  10  14
ENDBRANCH   1   7
BRANCH   4  17
HETATM   17  C   UNL     1     -44.668 -52.627  13.053  1.00  0.00     0.086 C 
HETATM   18  C   UNL     1     -46.154 -52.374  13.342  1.00  0.00     0.025 C 
HETATM   19  C   UNL     1     -46.645 -53.187  14.539  1.00  0.00     0.002 C 
HETATM   20  C   UNL     1     -46.354 -54.677  14.377  1.00  0.00     0.000 C 
HETATM   21  C   UNL     1     -44.896 -54.963  14.022  1.00  0.00     0.002 C 
HETATM   22  C   UNL     1     -44.416 -54.123  12.840  1.00  0.00     0.025 C 
ENDBRANCH   4  17
TORSDOF 3
ENDMDL
