MODEL 1
REMARK VINA RESULT:      -5.4      0.000      0.000
REMARK  5 active torsions:
REMARK  status: ('A' for Active; 'I' for Inactive)
REMARK    1  A    between atoms: C_2  and  C_3 
REMARK    2  A    between atoms: C_6  and  C_7 
REMARK    3  A    between atoms: C_7  and  C_8 
REMARK    4  A    between atoms: C_8  and  N_9 
REMARK       I    between atoms: N_9  and  C_10 
REMARK    5  A    between atoms: C_10  and  C_12 
ROOT
HETATM    1  C   UNL     1     -42.420 -48.213  12.161  1.00  0.00     0.077 C 
ENDROOT
BRANCH   1   2
HETATM    2  C   UNL     1     -43.059 -47.881  10.847  1.00  0.00     0.018 A 
HETATM    3  N   UNL     1     -44.434 -47.708  10.783  1.00  0.00    -0.357 N 
HETATM    4  C   UNL     1     -44.806 -47.459   9.545  1.00  0.00     0.050 A 
ATOM      5  HN  UNL     1     -45.066 -47.765  11.581  1.00  0.00     0.166 HD
HETATM    6  S   UNL     1     -43.529 -47.354   8.400  1.00  0.00    -0.087 SA
HETATM    7  C   UNL     1     -42.403 -47.711   9.642  1.00  0.00     0.076 A 
BRANCH   4   8
HETATM    8  C   UNL     1     -46.228 -47.282   9.114  1.00  0.00     0.060 C 
HETATM    9  C   UNL     1     -46.905 -48.622   8.873  1.00  0.00     0.012 C 
ENDBRANCH   4   8
ENDBRANCH   1   2
BRANCH   1  10
HETATM   10  C   UNL     1     -42.543 -49.695  12.520  1.00  0.00     0.128 C 
BRANCH  10  11
HETATM   11  N   UNL     1     -43.733 -49.991  13.302  1.00  0.00    -0.360 N 
HETATM   12  C   UNL     1     -44.156 -51.281  13.506  1.00  0.00     0.222 C 
HETATM   13  O   UNL     1     -43.542 -52.273  13.136  1.00  0.00    -0.273 OA
HETATM   14  H   UNL     1     -44.284 -49.220  13.654  1.00  0.00     0.162 HD
BRANCH  12  15
HETATM   15  C   UNL     1     -45.463 -51.385  14.220  1.00  0.00     0.082 A 
HETATM   16  C   UNL     1     -46.207 -52.703  14.265  1.00  0.00     0.019 A 
HETATM   17  C   UNL     1     -46.772 -51.558  13.470  1.00  0.00    -0.005 A 
HETATM   18  C   UNL     1     -46.850 -51.657  11.983  1.00  0.00     0.011 C 
ENDBRANCH  12  15
ENDBRANCH  10  11
ENDBRANCH   1  10
TORSDOF 5
ENDMDL
MODEL 2
REMARK VINA RESULT:      -5.4      2.818      5.726
REMARK  5 active torsions:
REMARK  status: ('A' for Active; 'I' for Inactive)
REMARK    1  A    between atoms: C_2  and  C_3 
REMARK    2  A    between atoms: C_6  and  C_7 
REMARK    3  A    between atoms: C_7  and  C_8 
REMARK    4  A    between atoms: C_8  and  N_9 
REMARK       I    between atoms: N_9  and  C_10 
REMARK    5  A    between atoms: C_10  and  C_12 
ROOT
HETATM    1  C   UNL     1     -41.723 -51.062  12.322  1.00  0.00     0.077 C 
ENDROOT
BRANCH   1   2
HETATM    2  C   UNL     1     -42.886 -51.944  12.658  1.00  0.00     0.018 A 
HETATM    3  N   UNL     1     -44.160 -51.398  12.718  1.00  0.00    -0.357 N 
HETATM    4  C   UNL     1     -45.036 -52.319  13.060  1.00  0.00     0.050 A 
ATOM      5  HN  UNL     1     -44.386 -50.423  12.524  1.00  0.00     0.166 HD
HETATM    6  S   UNL     1     -44.398 -53.901  13.268  1.00  0.00    -0.087 SA
HETATM    7  C   UNL     1     -42.831 -53.301  12.918  1.00  0.00     0.076 A 
BRANCH   4   8
HETATM    8  C   UNL     1     -46.493 -52.055  13.276  1.00  0.00     0.060 C 
HETATM    9  C   UNL     1     -46.747 -51.426  14.637  1.00  0.00     0.012 C 
ENDBRANCH   4   8
ENDBRANCH   1   2
BRANCH   1  10
HETATM   10  C   UNL     1     -42.091 -49.577  12.313  1.00  0.00     0.128 C 
BRANCH  10  11
HETATM   11  N   UNL     1     -42.237 -49.038  10.971  1.00  0.00    -0.360 N 
HETATM   12  C   UNL     1     -42.842 -47.825  10.746  1.00  0.00     0.222 C 
HETATM   13  O   UNL     1     -43.220 -47.070  11.630  1.00  0.00    -0.273 OA
HETATM   14  H   UNL     1     -41.933 -49.600  10.189  1.00  0.00     0.162 HD
BRANCH  12  15
HETATM   15  C   UNL     1     -43.019 -47.495   9.300  1.00  0.00     0.082 A 
HETATM   16  C   UNL     1     -43.652 -46.183   8.887  1.00  0.00     0.019 A 
HETATM   17  C   UNL     1     -44.389 -47.472   8.647  1.00  0.00    -0.005 A 
HETATM   18  C   UNL     1     -45.650 -47.754   9.395  1.00  0.00     0.011 C 
ENDBRANCH  12  15
ENDBRANCH  10  11
ENDBRANCH   1  10
TORSDOF 5
ENDMDL
MODEL 3
REMARK VINA RESULT:      -5.3      4.183      5.635
REMARK  5 active torsions:
REMARK  status: ('A' for Active; 'I' for Inactive)
REMARK    1  A    between atoms: C_2  and  C_3 
REMARK    2  A    between atoms: C_6  and  C_7 
REMARK    3  A    between atoms: C_7  and  C_8 
REMARK    4  A    between atoms: C_8  and  N_9 
REMARK       I    between atoms: N_9  and  C_10 
REMARK    5  A    between atoms: C_10  and  C_12 
ROOT
HETATM    1  C   UNL     1     -41.395 -54.209  12.915  1.00  0.00     0.077 C 
ENDROOT
BRANCH   1   2
HETATM    2  C   UNL     1     -40.466 -53.048  13.094  1.00  0.00     0.018 A 
HETATM    3  N   UNL     1     -40.438 -52.045  12.137  1.00  0.00    -0.357 N 
HETATM    4  C   UNL     1     -39.539 -51.137  12.454  1.00  0.00     0.050 A 
ATOM      5  HN  UNL     1     -41.029 -52.014  11.307  1.00  0.00     0.166 HD
HETATM    6  S   UNL     1     -38.723 -51.397  13.944  1.00  0.00    -0.087 SA
HETATM    7  C   UNL     1     -39.604 -52.851  14.158  1.00  0.00     0.076 A 
BRANCH   4   8
HETATM    8  C   UNL     1     -39.207 -49.950  11.605  1.00  0.00     0.060 C 
HETATM    9  C   UNL     1     -37.703 -49.745  11.502  1.00  0.00     0.012 C 
ENDBRANCH   4   8
ENDBRANCH   1   2
BRANCH   1  10
HETATM   10  C   UNL     1     -42.561 -54.192  13.905  1.00  0.00     0.128 C 
BRANCH  10  11
HETATM   11  N   UNL     1     -43.578 -53.209  13.566  1.00  0.00    -0.360 N 
HETATM   12  C   UNL     1     -44.808 -53.585  13.085  1.00  0.00     0.222 C 
HETATM   13  O   UNL     1     -45.184 -54.744  12.986  1.00  0.00    -0.273 OA
HETATM   14  H   UNL     1     -43.345 -52.229  13.637  1.00  0.00     0.162 HD
BRANCH  12  15
HETATM   15  C   UNL     1     -45.672 -52.440  12.670  1.00  0.00     0.082 A 
HETATM   16  C   UNL     1     -45.388 -51.043  13.180  1.00  0.00     0.019 A 
HETATM   17  C   UNL     1     -46.625 -51.764  13.640  1.00  0.00    -0.005 A 
HETATM   18  C   UNL     1     -46.755 -52.173  15.069  1.00  0.00     0.011 C 
ENDBRANCH  12  15
ENDBRANCH  10  11
ENDBRANCH   1  10
TORSDOF 5
ENDMDL
MODEL 4
REMARK VINA RESULT:      -5.2      2.177      2.709
REMARK  5 active torsions:
REMARK  status: ('A' for Active; 'I' for Inactive)
REMARK    1  A    between atoms: C_2  and  C_3 
REMARK    2  A    between atoms: C_6  and  C_7 
REMARK    3  A    between atoms: C_7  and  C_8 
REMARK    4  A    between atoms: C_8  and  N_9 
REMARK       I    between atoms: N_9  and  C_10 
REMARK    5  A    between atoms: C_10  and  C_12 
ROOT
HETATM    1  C   UNL     1     -42.399 -48.396  12.050  1.00  0.00     0.077 C 
ENDROOT
BRANCH   1   2
HETATM    2  C   UNL     1     -43.079 -47.787  10.862  1.00  0.00     0.018 A 
HETATM    3  N   UNL     1     -44.438 -47.991  10.676  1.00  0.00    -0.357 N 
HETATM    4  C   UNL     1     -44.840 -47.409   9.565  1.00  0.00     0.050 A 
ATOM      5  HN  UNL     1     -45.041 -48.516  11.310  1.00  0.00     0.166 HD
HETATM    6  S   UNL     1     -43.630 -46.534   8.714  1.00  0.00    -0.087 SA
HETATM    7  C   UNL     1     -42.479 -47.003   9.893  1.00  0.00     0.076 A 
BRANCH   4   8
HETATM    8  C   UNL     1     -46.237 -47.485   9.034  1.00  0.00     0.060 C 
HETATM    9  C   UNL     1     -46.440 -48.730   8.185  1.00  0.00     0.012 C 
ENDBRANCH   4   8
ENDBRANCH   1   2
BRANCH   1  10
HETATM   10  C   UNL     1     -41.465 -49.546  11.671  1.00  0.00     0.128 C 
BRANCH  10  11
HETATM   11  N   UNL     1     -42.047 -50.855  11.920  1.00  0.00    -0.360 N 
HETATM   12  C   UNL     1     -41.264 -51.952  12.181  1.00  0.00     0.222 C 
HETATM   13  O   UNL     1     -40.049 -51.915  12.312  1.00  0.00    -0.273 OA
HETATM   14  H   UNL     1     -43.049 -50.960  11.844  1.00  0.00     0.162 HD
BRANCH  12  15
HETATM   15  C   UNL     1     -42.027 -53.232  12.282  1.00  0.00     0.082 A 
HETATM   16  C   UNL     1     -43.497 -53.219  12.644  1.00  0.00     0.019 A 
HETATM   17  C   UNL     1     -42.497 -53.780  13.618  1.00  0.00    -0.005 A 
HETATM   18  C   UNL     1     -42.253 -53.081  14.913  1.00  0.00     0.011 C 
ENDBRANCH  12  15
ENDBRANCH  10  11
ENDBRANCH   1  10
TORSDOF 5
ENDMDL
MODEL 5
REMARK VINA RESULT:      -5.1      4.010      6.598
REMARK  5 active torsions:
REMARK  status: ('A' for Active; 'I' for Inactive)
REMARK    1  A    between atoms: C_2  and  C_3 
REMARK    2  A    between atoms: C_6  and  C_7 
REMARK    3  A    between atoms: C_7  and  C_8 
REMARK    4  A    between atoms: C_8  and  N_9 
REMARK       I    between atoms: N_9  and  C_10 
REMARK    5  A    between atoms: C_10  and  C_12 
ROOT
HETATM    1  C   UNL     1     -41.846 -52.983  12.551  1.00  0.00     0.077 C 
ENDROOT
BRANCH   1   2
HETATM    2  C   UNL     1     -43.293 -53.165  12.893  1.00  0.00     0.018 A 
HETATM    3  N   UNL     1     -44.210 -52.195  12.516  1.00  0.00    -0.357 N 
HETATM    4  C   UNL     1     -45.415 -52.518  12.935  1.00  0.00     0.050 A 
ATOM      5  HN  UNL     1     -43.983 -51.353  11.988  1.00  0.00     0.166 HD
HETATM    6  S   UNL     1     -45.531 -54.028  13.748  1.00  0.00    -0.087 SA
HETATM    7  C   UNL     1     -43.841 -54.243  13.564  1.00  0.00     0.076 A 
BRANCH   4   8
HETATM    8  C   UNL     1     -46.627 -51.660  12.751  1.00  0.00     0.060 C 
HETATM    9  C   UNL     1     -47.155 -51.744  11.327  1.00  0.00     0.012 C 
ENDBRANCH   4   8
ENDBRANCH   1   2
BRANCH   1  10
HETATM   10  C   UNL     1     -41.561 -51.633  11.890  1.00  0.00     0.128 C 
BRANCH  10  11
HETATM   11  N   UNL     1     -40.156 -51.263  11.942  1.00  0.00    -0.360 N 
HETATM   12  C   UNL     1     -39.725 -50.020  11.545  1.00  0.00     0.222 C 
HETATM   13  O   UNL     1     -40.468 -49.110  11.207  1.00  0.00    -0.273 OA
HETATM   14  H   UNL     1     -39.482 -51.960  12.227  1.00  0.00     0.162 HD
BRANCH  12  15
HETATM   15  C   UNL     1     -38.240 -49.866  11.545  1.00  0.00     0.082 A 
HETATM   16  C   UNL     1     -37.374 -50.793  12.370  1.00  0.00     0.019 A 
HETATM   17  C   UNL     1     -37.490 -49.344  12.758  1.00  0.00    -0.005 A 
HETATM   18  C   UNL     1     -38.169 -48.972  14.034  1.00  0.00     0.011 C 
ENDBRANCH  12  15
ENDBRANCH  10  11
ENDBRANCH   1  10
TORSDOF 5
ENDMDL
MODEL 6
REMARK VINA RESULT:      -4.9      2.971      4.761
REMARK  5 active torsions:
REMARK  status: ('A' for Active; 'I' for Inactive)
REMARK    1  A    between atoms: C_2  and  C_3 
REMARK    2  A    between atoms: C_6  and  C_7 
REMARK    3  A    between atoms: C_7  and  C_8 
REMARK    4  A    between atoms: C_8  and  N_9 
REMARK       I    between atoms: N_9  and  C_10 
REMARK    5  A    between atoms: C_10  and  C_12 
ROOT
HETATM    1  C   UNL     1     -42.873 -49.240  12.886  1.00  0.00     0.077 C 
ENDROOT
BRANCH   1   2
HETATM    2  C   UNL     1     -42.909 -48.220  11.791  1.00  0.00     0.018 A 
HETATM    3  N   UNL     1     -43.944 -48.248  10.867  1.00  0.00    -0.357 N 
HETATM    4  C   UNL     1     -43.781 -47.299   9.969  1.00  0.00     0.050 A 
ATOM      5  HN  UNL     1     -44.720 -48.909  10.882  1.00  0.00     0.166 HD
HETATM    6  S   UNL     1     -42.418 -46.281  10.213  1.00  0.00    -0.087 SA
HETATM    7  C   UNL     1     -41.992 -47.203  11.593  1.00  0.00     0.076 A 
BRANCH   4   8
HETATM    8  C   UNL     1     -44.684 -47.089   8.795  1.00  0.00     0.060 C 
HETATM    9  C   UNL     1     -46.145 -47.264   9.181  1.00  0.00     0.012 C 
ENDBRANCH   4   8
ENDBRANCH   1   2
BRANCH   1  10
HETATM   10  C   UNL     1     -42.085 -50.493  12.502  1.00  0.00     0.128 C 
BRANCH  10  11
HETATM   11  N   UNL     1     -40.715 -50.472  12.990  1.00  0.00    -0.360 N 
HETATM   12  C   UNL     1     -39.887 -51.559  12.853  1.00  0.00     0.222 C 
HETATM   13  O   UNL     1     -40.185 -52.580  12.250  1.00  0.00    -0.273 OA
HETATM   14  H   UNL     1     -40.392 -49.654  13.487  1.00  0.00     0.162 HD
BRANCH  12  15
HETATM   15  C   UNL     1     -38.564 -51.401  13.527  1.00  0.00     0.082 A 
HETATM   16  C   UNL     1     -38.061 -50.026  13.913  1.00  0.00     0.019 A 
HETATM   17  C   UNL     1     -37.371 -50.788  12.814  1.00  0.00    -0.005 A 
HETATM   18  C   UNL     1     -37.435 -50.284  11.412  1.00  0.00     0.011 C 
ENDBRANCH  12  15
ENDBRANCH  10  11
ENDBRANCH   1  10
TORSDOF 5
ENDMDL
MODEL 7
REMARK VINA RESULT:      -4.9      3.057      3.728
REMARK  5 active torsions:
REMARK  status: ('A' for Active; 'I' for Inactive)
REMARK    1  A    between atoms: C_2  and  C_3 
REMARK    2  A    between atoms: C_6  and  C_7 
REMARK    3  A    between atoms: C_7  and  C_8 
REMARK    4  A    between atoms: C_8  and  N_9 
REMARK       I    between atoms: N_9  and  C_10 
REMARK    5  A    between atoms: C_10  and  C_12 
ROOT
HETATM    1  C   UNL     1     -40.034 -49.433  11.512  1.00  0.00     0.077 C 
ENDROOT
BRANCH   1   2
HETATM    2  C   UNL     1     -40.923 -48.330  11.026  1.00  0.00     0.018 A 
HETATM    3  N   UNL     1     -42.031 -48.640  10.251  1.00  0.00    -0.357 N 
HETATM    4  C   UNL     1     -42.661 -47.540   9.895  1.00  0.00     0.050 A 
ATOM      5  HN  UNL     1     -42.317 -49.585   9.994  1.00  0.00     0.166 HD
HETATM    6  S   UNL     1     -42.003 -46.080  10.517  1.00  0.00    -0.087 SA
HETATM    7  C   UNL     1     -40.761 -46.980  11.281  1.00  0.00     0.076 A 
BRANCH   4   8
HETATM    8  C   UNL     1     -43.864 -47.512   9.004  1.00  0.00     0.060 C 
HETATM    9  C   UNL     1     -43.510 -47.921   7.582  1.00  0.00     0.012 C 
ENDBRANCH   4   8
ENDBRANCH   1   2
BRANCH   1  10
HETATM   10  C   UNL     1     -40.426 -49.939  12.902  1.00  0.00     0.128 C 
BRANCH  10  11
HETATM   11  N   UNL     1     -41.084 -51.235  12.867  1.00  0.00    -0.360 N 
HETATM   12  C   UNL     1     -40.380 -52.403  13.029  1.00  0.00     0.222 C 
HETATM   13  O   UNL     1     -39.188 -52.456  13.297  1.00  0.00    -0.273 OA
HETATM   14  H   UNL     1     -42.073 -51.270  12.665  1.00  0.00     0.162 HD
BRANCH  12  15
HETATM   15  C   UNL     1     -41.198 -53.636  12.835  1.00  0.00     0.082 A 
HETATM   16  C   UNL     1     -42.695 -53.605  13.063  1.00  0.00     0.019 A 
HETATM   17  C   UNL     1     -41.815 -54.380  14.006  1.00  0.00    -0.005 A 
HETATM   18  C   UNL     1     -41.670 -53.930  15.421  1.00  0.00     0.011 C 
ENDBRANCH  12  15
ENDBRANCH  10  11
ENDBRANCH   1  10
TORSDOF 5
ENDMDL
MODEL 8
REMARK VINA RESULT:      -4.9      4.500      6.891
REMARK  5 active torsions:
REMARK  status: ('A' for Active; 'I' for Inactive)
REMARK    1  A    between atoms: C_2  and  C_3 
REMARK    2  A    between atoms: C_6  and  C_7 
REMARK    3  A    between atoms: C_7  and  C_8 
REMARK    4  A    between atoms: C_8  and  N_9 
REMARK       I    between atoms: N_9  and  C_10 
REMARK    5  A    between atoms: C_10  and  C_12 
ROOT
HETATM    1  C   UNL     1     -41.475 -53.749  13.820  1.00  0.00     0.077 C 
ENDROOT
BRANCH   1   2
HETATM    2  C   UNL     1     -42.967 -53.877  13.806  1.00  0.00     0.018 A 
HETATM    3  N   UNL     1     -43.727 -52.913  13.160  1.00  0.00    -0.357 N 
HETATM    4  C   UNL     1     -45.010 -53.180  13.288  1.00  0.00     0.050 A 
ATOM      5  HN  UNL     1     -43.346 -52.111  12.657  1.00  0.00     0.166 HD
HETATM    6  S   UNL     1     -45.378 -54.631  14.133  1.00  0.00    -0.087 SA
HETATM    7  C   UNL     1     -43.703 -54.896  14.382  1.00  0.00     0.076 A 
BRANCH   4   8
HETATM    8  C   UNL     1     -46.107 -52.309  12.763  1.00  0.00     0.060 C 
HETATM    9  C   UNL     1     -46.737 -51.481  13.873  1.00  0.00     0.012 C 
ENDBRANCH   4   8
ENDBRANCH   1   2
BRANCH   1  10
HETATM   10  C   UNL     1     -40.917 -53.186  12.511  1.00  0.00     0.128 C 
BRANCH  10  11
HETATM   11  N   UNL     1     -40.437 -51.820  12.642  1.00  0.00    -0.360 N 
HETATM   12  C   UNL     1     -39.193 -51.542  13.154  1.00  0.00     0.222 C 
HETATM   13  O   UNL     1     -38.367 -52.392  13.455  1.00  0.00    -0.273 OA
HETATM   14  H   UNL     1     -41.060 -51.063  12.398  1.00  0.00     0.162 HD
BRANCH  12  15
HETATM   15  C   UNL     1     -38.924 -50.084  13.334  1.00  0.00     0.082 A 
HETATM   16  C   UNL     1     -39.517 -49.073  12.375  1.00  0.00     0.019 A 
HETATM   17  C   UNL     1     -38.031 -49.312  12.378  1.00  0.00    -0.005 A 
HETATM   18  C   UNL     1     -37.380 -49.938  11.191  1.00  0.00     0.011 C 
ENDBRANCH  12  15
ENDBRANCH  10  11
ENDBRANCH   1  10
TORSDOF 5
ENDMDL
MODEL 9
REMARK VINA RESULT:      -4.8      4.266      5.675
REMARK  5 active torsions:
REMARK  status: ('A' for Active; 'I' for Inactive)
REMARK    1  A    between atoms: C_2  and  C_3 
REMARK    2  A    between atoms: C_6  and  C_7 
REMARK    3  A    between atoms: C_7  and  C_8 
REMARK    4  A    between atoms: C_8  and  N_9 
REMARK       I    between atoms: N_9  and  C_10 
REMARK    5  A    between atoms: C_10  and  C_12 
ROOT
HETATM    1  C   UNL     1     -42.124 -54.116  13.533  1.00  0.00     0.077 C 
ENDROOT
BRANCH   1   2
HETATM    2  C   UNL     1     -41.365 -52.915  13.056  1.00  0.00     0.018 A 
HETATM    3  N   UNL     1     -40.076 -52.696  13.519  1.00  0.00    -0.357 N 
HETATM    4  C   UNL     1     -39.594 -51.579  13.015  1.00  0.00     0.050 A 
ATOM      5  HN  UNL     1     -39.574 -53.312  14.158  1.00  0.00     0.166 HD
HETATM    6  S   UNL     1     -40.628 -50.762  11.913  1.00  0.00    -0.087 SA
HETATM    7  C   UNL     1     -41.822 -51.965  12.161  1.00  0.00     0.076 A 
BRANCH   4   8
HETATM    8  C   UNL     1     -38.250 -51.015  13.356  1.00  0.00     0.060 C 
HETATM    9  C   UNL     1     -37.855 -49.905  12.394  1.00  0.00     0.012 C 
ENDBRANCH   4   8
ENDBRANCH   1   2
BRANCH   1  10
HETATM   10  C   UNL     1     -42.933 -53.838  14.801  1.00  0.00     0.128 C 
BRANCH  10  11
HETATM   11  N   UNL     1     -44.186 -53.151  14.534  1.00  0.00    -0.360 N 
HETATM   12  C   UNL     1     -45.371 -53.580  15.080  1.00  0.00     0.222 C 
HETATM   13  O   UNL     1     -45.466 -54.496  15.885  1.00  0.00    -0.273 OA
HETATM   14  H   UNL     1     -44.183 -52.373  13.889  1.00  0.00     0.162 HD
BRANCH  12  15
HETATM   15  C   UNL     1     -46.568 -52.833  14.592  1.00  0.00     0.082 A 
HETATM   16  C   UNL     1     -46.410 -51.472  13.948  1.00  0.00     0.019 A 
HETATM   17  C   UNL     1     -47.072 -51.584  15.294  1.00  0.00    -0.005 A 
HETATM   18  C   UNL     1     -46.406 -51.004  16.496  1.00  0.00     0.011 C 
ENDBRANCH  12  15
ENDBRANCH  10  11
ENDBRANCH   1  10
TORSDOF 5
ENDMDL
