MODEL 1
REMARK VINA RESULT:      -6.0      0.000      0.000
REMARK  5 active torsions:
REMARK  status: ('A' for Active; 'I' for Inactive)
REMARK    1  A    between atoms: C_2  and  C_3 
REMARK    2  A    between atoms: C_3  and  C_4 
REMARK    3  A    between atoms: C_4  and  N_5 
REMARK       I    between atoms: N_5  and  C_6 
REMARK       I    between atoms: C_6  and  N_8 
REMARK    4  A    between atoms: N_8  and  C_9 
REMARK    5  A    between atoms: C_16  and  N_17 
ROOT
HETATM    1  N   UNL     1     -43.330 -50.852  12.812  1.00  0.00    -0.342 N 
HETATM    2  C   UNL     1     -42.929 -49.545  12.617  1.00  0.00     0.320 C 
HETATM    3  O   UNL     1     -43.179 -48.686  13.457  1.00  0.00    -0.247 OA
HETATM    4  N   UNL     1     -42.266 -49.320  11.436  1.00  0.00    -0.305 N 
HETATM    5  H   UNL     1     -43.555 -51.390  11.990  1.00  0.00     0.164 HD
HETATM    6  H   UNL     1     -42.137 -50.077  10.782  1.00  0.00     0.171 HD
ENDROOT
BRANCH   4   7
HETATM    7  C   UNL     1     -41.761 -48.047  11.028  1.00  0.00     0.090 A 
HETATM    8  C   UNL     1     -40.600 -47.496  11.554  1.00  0.00     0.121 A 
HETATM    9  N   UNL     1     -40.057 -46.319  11.175  1.00  0.00    -0.360 N 
HETATM   10  C   UNL     1     -40.727 -45.677  10.223  1.00  0.00     0.181 A 
ATOM     11  HN  UNL     1     -39.199 -45.951  11.588  1.00  0.00     0.166 HD
HETATM   12  N   UNL     1     -41.852 -46.096   9.631  1.00  0.00    -0.341 N 
HETATM   13  C   UNL     1     -42.376 -47.289  10.019  1.00  0.00     0.111 A 
ATOM     14  HN  UNL     1     -42.303 -45.536   8.908  1.00  0.00     0.167 HD
BRANCH  13  15
HETATM   15  N   UNL     1     -43.506 -47.761   9.317  1.00  0.00    -0.276 NA
HETATM   16  C   UNL     1     -43.371 -47.681   7.853  1.00  0.00     0.118 C 
HETATM   17  C   UNL     1     -44.810 -47.307   9.808  1.00  0.00     0.118 C 
ENDBRANCH  13  15
ENDBRANCH   4   7
BRANCH   1  18
HETATM   18  C   UNL     1     -44.143 -51.050  13.998  1.00  0.00     0.133 C 
BRANCH  18  19
HETATM   19  C   UNL     1     -45.364 -51.932  13.880  1.00  0.00    -0.025 A 
HETATM   20  C   UNL     1     -46.742 -51.415  14.245  1.00  0.00     0.012 A 
HETATM   21  C   UNL     1     -46.396 -51.662  12.801  1.00  0.00     0.012 A 
BRANCH  19  22
HETATM   22  C   UNL     1     -45.065 -53.395  14.207  1.00  0.00     0.006 C 
HETATM   23  C   UNL     1     -44.569 -54.178  12.996  1.00  0.00     0.006 C 
ENDBRANCH  19  22
ENDBRANCH  18  19
ENDBRANCH   1  18
TORSDOF 5
ENDMDL
MODEL 2
REMARK VINA RESULT:      -5.8      1.423      2.975
REMARK  5 active torsions:
REMARK  status: ('A' for Active; 'I' for Inactive)
REMARK    1  A    between atoms: C_2  and  C_3 
REMARK    2  A    between atoms: C_3  and  C_4 
REMARK    3  A    between atoms: C_4  and  N_5 
REMARK       I    between atoms: N_5  and  C_6 
REMARK       I    between atoms: C_6  and  N_8 
REMARK    4  A    between atoms: N_8  and  C_9 
REMARK    5  A    between atoms: C_16  and  N_17 
ROOT
HETATM    1  N   UNL     1     -43.099 -51.608  12.671  1.00  0.00    -0.342 N 
HETATM    2  C   UNL     1     -42.660 -50.302  12.582  1.00  0.00     0.320 C 
HETATM    3  O   UNL     1     -42.900 -49.502  13.481  1.00  0.00    -0.247 OA
HETATM    4  N   UNL     1     -41.972 -50.006  11.432  1.00  0.00    -0.305 N 
HETATM    5  H   UNL     1     -43.324 -52.076  11.807  1.00  0.00     0.164 HD
HETATM    6  H   UNL     1     -41.852 -50.714  10.724  1.00  0.00     0.171 HD
ENDROOT
BRANCH   4   7
HETATM    7  C   UNL     1     -41.426 -48.720  11.129  1.00  0.00     0.090 A 
HETATM    8  C   UNL     1     -42.129 -47.753  10.423  1.00  0.00     0.121 A 
HETATM    9  N   UNL     1     -41.678 -46.511  10.146  1.00  0.00    -0.360 N 
HETATM   10  C   UNL     1     -40.459 -46.245  10.607  1.00  0.00     0.181 A 
ATOM     11  HN  UNL     1     -42.229 -45.829   9.624  1.00  0.00     0.166 HD
HETATM   12  N   UNL     1     -39.680 -47.082  11.302  1.00  0.00    -0.341 N 
HETATM   13  C   UNL     1     -40.157 -48.324  11.580  1.00  0.00     0.111 A 
ATOM     14  HN  UNL     1     -38.753 -46.795  11.616  1.00  0.00     0.167 HD
BRANCH  13  15
HETATM   15  N   UNL     1     -39.362 -49.158  12.396  1.00  0.00    -0.276 NA
HETATM   16  C   UNL     1     -39.241 -48.686  13.785  1.00  0.00     0.118 C 
HETATM   17  C   UNL     1     -38.093 -49.609  11.820  1.00  0.00     0.118 C 
ENDBRANCH  13  15
ENDBRANCH   4   7
BRANCH   1  18
HETATM   18  C   UNL     1     -43.937 -51.873  13.826  1.00  0.00     0.133 C 
BRANCH  18  19
HETATM   19  C   UNL     1     -45.358 -52.325  13.581  1.00  0.00    -0.025 A 
HETATM   20  C   UNL     1     -46.534 -51.557  14.152  1.00  0.00     0.012 A 
HETATM   21  C   UNL     1     -46.266 -51.520  12.671  1.00  0.00     0.012 A 
BRANCH  19  22
HETATM   22  C   UNL     1     -45.487 -53.847  13.524  1.00  0.00     0.006 C 
HETATM   23  C   UNL     1     -44.377 -54.560  14.289  1.00  0.00     0.006 C 
ENDBRANCH  19  22
ENDBRANCH  18  19
ENDBRANCH   1  18
TORSDOF 5
ENDMDL
MODEL 3
REMARK VINA RESULT:      -5.5      3.494      5.074
REMARK  5 active torsions:
REMARK  status: ('A' for Active; 'I' for Inactive)
REMARK    1  A    between atoms: C_2  and  C_3 
REMARK    2  A    between atoms: C_3  and  C_4 
REMARK    3  A    between atoms: C_4  and  N_5 
REMARK       I    between atoms: N_5  and  C_6 
REMARK       I    between atoms: C_6  and  N_8 
REMARK    4  A    between atoms: N_8  and  C_9 
REMARK    5  A    between atoms: C_16  and  N_17 
ROOT
HETATM    1  N   UNL     1     -43.422 -51.851  12.774  1.00  0.00    -0.342 N 
HETATM    2  C   UNL     1     -42.113 -51.902  12.336  1.00  0.00     0.320 C 
HETATM    3  O   UNL     1     -41.712 -52.861  11.685  1.00  0.00    -0.247 OA
HETATM    4  N   UNL     1     -41.344 -50.825  12.702  1.00  0.00    -0.305 N 
HETATM    5  H   UNL     1     -43.597 -51.371  13.643  1.00  0.00     0.164 HD
HETATM    6  H   UNL     1     -41.744 -50.095  13.273  1.00  0.00     0.171 HD
ENDROOT
BRANCH   4   7
HETATM    7  C   UNL     1     -39.966 -50.667  12.359  1.00  0.00     0.090 A 
HETATM    8  C   UNL     1     -39.544 -49.905  11.277  1.00  0.00     0.121 A 
HETATM    9  N   UNL     1     -38.256 -49.690  10.933  1.00  0.00    -0.360 N 
HETATM   10  C   UNL     1     -37.363 -50.276  11.724  1.00  0.00     0.181 A 
ATOM     11  HN  UNL     1     -37.989 -49.121  10.129  1.00  0.00     0.166 HD
HETATM   12  N   UNL     1     -37.634 -51.029  12.796  1.00  0.00    -0.341 N 
HETATM   13  C   UNL     1     -38.937 -51.225  13.132  1.00  0.00     0.111 A 
ATOM     14  HN  UNL     1     -36.883 -51.445  13.347  1.00  0.00     0.167 HD
BRANCH  13  15
HETATM   15  N   UNL     1     -39.201 -51.941  14.320  1.00  0.00    -0.276 NA
HETATM   16  C   UNL     1     -38.559 -51.366  15.513  1.00  0.00     0.118 C 
HETATM   17  C   UNL     1     -39.081 -53.398  14.239  1.00  0.00     0.118 C 
ENDBRANCH  13  15
ENDBRANCH   4   7
BRANCH   1  18
HETATM   18  C   UNL     1     -44.185 -53.053  12.496  1.00  0.00     0.133 C 
BRANCH  18  19
HETATM   19  C   UNL     1     -45.279 -53.437  13.466  1.00  0.00    -0.025 A 
HETATM   20  C   UNL     1     -45.537 -54.890  13.818  1.00  0.00     0.012 A 
HETATM   21  C   UNL     1     -44.923 -53.970  14.840  1.00  0.00     0.012 A 
BRANCH  19  22
HETATM   22  C   UNL     1     -46.498 -52.521  13.369  1.00  0.00     0.006 C 
HETATM   23  C   UNL     1     -46.544 -51.484  14.485  1.00  0.00     0.006 C 
ENDBRANCH  19  22
ENDBRANCH  18  19
ENDBRANCH   1  18
TORSDOF 5
ENDMDL
MODEL 4
REMARK VINA RESULT:      -5.3      3.780      7.421
REMARK  5 active torsions:
REMARK  status: ('A' for Active; 'I' for Inactive)
REMARK    1  A    between atoms: C_2  and  C_3 
REMARK    2  A    between atoms: C_3  and  C_4 
REMARK    3  A    between atoms: C_4  and  N_5 
REMARK       I    between atoms: N_5  and  C_6 
REMARK       I    between atoms: C_6  and  N_8 
REMARK    4  A    between atoms: N_8  and  C_9 
REMARK    5  A    between atoms: C_16  and  N_17 
ROOT
HETATM    1  N   UNL     1     -40.872 -51.669  11.580  1.00  0.00    -0.342 N 
HETATM    2  C   UNL     1     -42.006 -51.660  12.368  1.00  0.00     0.320 C 
HETATM    3  O   UNL     1     -42.192 -50.760  13.181  1.00  0.00    -0.247 OA
HETATM    4  N   UNL     1     -42.853 -52.721  12.165  1.00  0.00    -0.305 N 
HETATM    5  H   UNL     1     -40.507 -52.569  11.311  1.00  0.00     0.164 HD
HETATM    6  H   UNL     1     -42.605 -53.440  11.502  1.00  0.00     0.171 HD
ENDROOT
BRANCH   4   7
HETATM    7  C   UNL     1     -44.083 -52.915  12.867  1.00  0.00     0.090 A 
HETATM    8  C   UNL     1     -45.321 -52.643  12.301  1.00  0.00     0.121 A 
HETATM    9  N   UNL     1     -46.513 -52.846  12.904  1.00  0.00    -0.360 N 
HETATM   10  C   UNL     1     -46.437 -53.345  14.134  1.00  0.00     0.181 A 
ATOM     11  HN  UNL     1     -47.402 -52.633  12.451  1.00  0.00     0.166 HD
HETATM   12  N   UNL     1     -45.313 -53.654  14.791  1.00  0.00    -0.341 N 
HETATM   13  C   UNL     1     -44.124 -53.452  14.162  1.00  0.00     0.111 A 
ATOM     14  HN  UNL     1     -45.347 -54.031  15.738  1.00  0.00     0.167 HD
BRANCH  13  15
HETATM   15  N   UNL     1     -42.956 -53.874  14.832  1.00  0.00    -0.276 NA
HETATM   16  C   UNL     1     -42.964 -55.300  15.199  1.00  0.00     0.118 C 
HETATM   17  C   UNL     1     -42.472 -53.000  15.903  1.00  0.00     0.118 C 
ENDBRANCH  13  15
ENDBRANCH   4   7
BRANCH   1  18
HETATM   18  C   UNL     1     -39.924 -50.618  11.897  1.00  0.00     0.133 C 
BRANCH  18  19
HETATM   19  C   UNL     1     -38.788 -50.950  12.838  1.00  0.00    -0.025 A 
HETATM   20  C   UNL     1     -38.868 -50.609  14.314  1.00  0.00     0.012 A 
HETATM   21  C   UNL     1     -38.954 -52.046  13.873  1.00  0.00     0.012 A 
BRANCH  19  22
HETATM   22  C   UNL     1     -37.418 -50.822  12.172  1.00  0.00     0.006 C 
HETATM   23  C   UNL     1     -37.425 -49.850  10.997  1.00  0.00     0.006 C 
ENDBRANCH  19  22
ENDBRANCH  18  19
ENDBRANCH   1  18
TORSDOF 5
ENDMDL
MODEL 5
REMARK VINA RESULT:      -5.3      2.054      2.748
REMARK  5 active torsions:
REMARK  status: ('A' for Active; 'I' for Inactive)
REMARK    1  A    between atoms: C_2  and  C_3 
REMARK    2  A    between atoms: C_3  and  C_4 
REMARK    3  A    between atoms: C_4  and  N_5 
REMARK       I    between atoms: N_5  and  C_6 
REMARK       I    between atoms: C_6  and  N_8 
REMARK    4  A    between atoms: N_8  and  C_9 
REMARK    5  A    between atoms: C_16  and  N_17 
ROOT
HETATM    1  N   UNL     1     -43.939 -51.962  12.986  1.00  0.00    -0.342 N 
HETATM    2  C   UNL     1     -42.655 -51.464  13.098  1.00  0.00     0.320 C 
HETATM    3  O   UNL     1     -42.032 -51.579  14.149  1.00  0.00    -0.247 OA
HETATM    4  N   UNL     1     -42.180 -50.847  11.967  1.00  0.00    -0.305 N 
HETATM    5  H   UNL     1     -44.568 -51.474  12.369  1.00  0.00     0.164 HD
HETATM    6  H   UNL     1     -42.774 -50.762  11.156  1.00  0.00     0.171 HD
ENDROOT
BRANCH   4   7
HETATM    7  C   UNL     1     -40.881 -50.261  11.856  1.00  0.00     0.090 A 
HETATM    8  C   UNL     1     -39.716 -51.016  11.852  1.00  0.00     0.121 A 
HETATM    9  N   UNL     1     -38.468 -50.519  11.709  1.00  0.00    -0.360 N 
HETATM   10  C   UNL     1     -38.408 -49.198  11.566  1.00  0.00     0.181 A 
ATOM     11  HN  UNL     1     -37.637 -51.110  11.710  1.00  0.00     0.166 HD
HETATM   12  N   UNL     1     -39.450 -48.359  11.548  1.00  0.00    -0.341 N 
HETATM   13  C   UNL     1     -40.698 -48.881  11.683  1.00  0.00     0.111 A 
ATOM     14  HN  UNL     1     -39.312 -47.355  11.436  1.00  0.00     0.167 HD
BRANCH  13  15
HETATM   15  N   UNL     1     -41.790 -47.993  11.565  1.00  0.00    -0.276 NA
HETATM   16  C   UNL     1     -41.822 -47.260  10.288  1.00  0.00     0.118 C 
HETATM   17  C   UNL     1     -42.067 -47.149  12.729  1.00  0.00     0.118 C 
ENDBRANCH  13  15
ENDBRANCH   4   7
BRANCH   1  18
HETATM   18  C   UNL     1     -44.476 -52.493  14.225  1.00  0.00     0.133 C 
BRANCH  18  19
HETATM   19  C   UNL     1     -45.979 -52.528  14.387  1.00  0.00    -0.025 A 
HETATM   20  C   UNL     1     -46.713 -51.424  15.123  1.00  0.00     0.012 A 
HETATM   21  C   UNL     1     -46.848 -51.545  13.628  1.00  0.00     0.012 A 
BRANCH  19  22
HETATM   22  C   UNL     1     -46.517 -53.949  14.555  1.00  0.00     0.006 C 
HETATM   23  C   UNL     1     -45.588 -55.003  13.963  1.00  0.00     0.006 C 
ENDBRANCH  19  22
ENDBRANCH  18  19
ENDBRANCH   1  18
TORSDOF 5
ENDMDL
MODEL 6
REMARK VINA RESULT:      -4.8      2.595      3.653
REMARK  5 active torsions:
REMARK  status: ('A' for Active; 'I' for Inactive)
REMARK    1  A    between atoms: C_2  and  C_3 
REMARK    2  A    between atoms: C_3  and  C_4 
REMARK    3  A    between atoms: C_4  and  N_5 
REMARK       I    between atoms: N_5  and  C_6 
REMARK       I    between atoms: C_6  and  N_8 
REMARK    4  A    between atoms: N_8  and  C_9 
REMARK    5  A    between atoms: C_16  and  N_17 
ROOT
HETATM    1  N   UNL     1     -42.724 -51.362  14.593  1.00  0.00    -0.342 N 
HETATM    2  C   UNL     1     -41.662 -51.394  13.711  1.00  0.00     0.320 C 
HETATM    3  O   UNL     1     -41.505 -52.352  12.960  1.00  0.00    -0.247 OA
HETATM    4  N   UNL     1     -40.834 -50.300  13.771  1.00  0.00    -0.305 N 
HETATM    5  H   UNL     1     -42.581 -50.878  15.465  1.00  0.00     0.164 HD
HETATM    6  H   UNL     1     -41.014 -49.573  14.447  1.00  0.00     0.171 HD
ENDROOT
BRANCH   4   7
HETATM    7  C   UNL     1     -39.677 -50.121  12.952  1.00  0.00     0.090 A 
HETATM    8  C   UNL     1     -38.591 -50.986  12.987  1.00  0.00     0.121 A 
HETATM    9  N   UNL     1     -37.492 -50.887  12.207  1.00  0.00    -0.360 N 
HETATM   10  C   UNL     1     -37.503 -49.864  11.358  1.00  0.00     0.181 A 
ATOM     11  HN  UNL     1     -36.716 -51.545  12.265  1.00  0.00     0.166 HD
HETATM   12  N   UNL     1     -38.484 -48.964  11.220  1.00  0.00    -0.341 N 
HETATM   13  C   UNL     1     -39.585 -49.088  12.007  1.00  0.00     0.111 A 
ATOM     14  HN  UNL     1     -38.407 -48.206  10.542  1.00  0.00     0.167 HD
BRANCH  13  15
HETATM   15  N   UNL     1     -40.650 -48.189  11.780  1.00  0.00    -0.276 NA
HETATM   16  C   UNL     1     -41.464 -48.519  10.598  1.00  0.00     0.118 C 
HETATM   17  C   UNL     1     -40.328 -46.764  11.887  1.00  0.00     0.118 C 
ENDBRANCH  13  15
ENDBRANCH   4   7
BRANCH   1  18
HETATM   18  C   UNL     1     -43.513 -52.580  14.612  1.00  0.00     0.133 C 
BRANCH  18  19
HETATM   19  C   UNL     1     -44.716 -52.658  13.701  1.00  0.00    -0.025 A 
HETATM   20  C   UNL     1     -44.664 -53.437  12.400  1.00  0.00     0.012 A 
HETATM   21  C   UNL     1     -45.475 -53.962  13.555  1.00  0.00     0.012 A 
BRANCH  19  22
HETATM   22  C   UNL     1     -45.539 -51.370  13.703  1.00  0.00     0.006 C 
HETATM   23  C   UNL     1     -46.707 -51.421  14.682  1.00  0.00     0.006 C 
ENDBRANCH  19  22
ENDBRANCH  18  19
ENDBRANCH   1  18
TORSDOF 5
ENDMDL
MODEL 7
REMARK VINA RESULT:      -4.8      3.178      4.246
REMARK  5 active torsions:
REMARK  status: ('A' for Active; 'I' for Inactive)
REMARK    1  A    between atoms: C_2  and  C_3 
REMARK    2  A    between atoms: C_3  and  C_4 
REMARK    3  A    between atoms: C_4  and  N_5 
REMARK       I    between atoms: N_5  and  C_6 
REMARK       I    between atoms: C_6  and  N_8 
REMARK    4  A    between atoms: N_8  and  C_9 
REMARK    5  A    between atoms: C_16  and  N_17 
ROOT
HETATM    1  N   UNL     1     -43.579 -50.480  14.215  1.00  0.00    -0.342 N 
HETATM    2  C   UNL     1     -42.301 -50.735  13.758  1.00  0.00     0.320 C 
HETATM    3  O   UNL     1     -41.820 -51.860  13.852  1.00  0.00    -0.247 OA
HETATM    4  N   UNL     1     -41.654 -49.647  13.227  1.00  0.00    -0.305 N 
HETATM    5  H   UNL     1     -43.763 -49.554  14.568  1.00  0.00     0.164 HD
HETATM    6  H   UNL     1     -42.109 -48.746  13.223  1.00  0.00     0.171 HD
ENDROOT
BRANCH   4   7
HETATM    7  C   UNL     1     -40.328 -49.680  12.695  1.00  0.00     0.090 A 
HETATM    8  C   UNL     1     -40.062 -49.957  11.360  1.00  0.00     0.121 A 
HETATM    9  N   UNL     1     -38.834 -49.961  10.797  1.00  0.00    -0.360 N 
HETATM   10  C   UNL     1     -37.838 -49.672  11.630  1.00  0.00     0.181 A 
ATOM     11  HN  UNL     1     -38.682 -50.169   9.810  1.00  0.00     0.166 HD
HETATM   12  N   UNL     1     -37.958 -49.384  12.931  1.00  0.00    -0.341 N 
HETATM   13  C   UNL     1     -39.203 -49.375  13.476  1.00  0.00     0.111 A 
ATOM     14  HN  UNL     1     -37.137 -49.176  13.499  1.00  0.00     0.167 HD
BRANCH  13  15
HETATM   15  N   UNL     1     -39.319 -48.974  14.825  1.00  0.00    -0.276 NA
HETATM   16  C   UNL     1     -38.586 -47.737  15.141  1.00  0.00     0.118 C 
HETATM   17  C   UNL     1     -39.150 -50.026  15.830  1.00  0.00     0.118 C 
ENDBRANCH  13  15
ENDBRANCH   4   7
BRANCH   1  18
HETATM   18  C   UNL     1     -44.199 -51.602  14.892  1.00  0.00     0.133 C 
BRANCH  18  19
HETATM   19  C   UNL     1     -45.473 -52.167  14.305  1.00  0.00    -0.025 A 
HETATM   20  C   UNL     1     -46.824 -51.565  14.640  1.00  0.00     0.012 A 
HETATM   21  C   UNL     1     -46.244 -51.381  13.263  1.00  0.00     0.012 A 
BRANCH  19  22
HETATM   22  C   UNL     1     -45.416 -53.685  14.131  1.00  0.00     0.006 C 
HETATM   23  C   UNL     1     -44.398 -54.118  13.082  1.00  0.00     0.006 C 
ENDBRANCH  19  22
ENDBRANCH  18  19
ENDBRANCH   1  18
TORSDOF 5
ENDMDL
MODEL 8
REMARK VINA RESULT:      -4.7      3.695      5.575
REMARK  5 active torsions:
REMARK  status: ('A' for Active; 'I' for Inactive)
REMARK    1  A    between atoms: C_2  and  C_3 
REMARK    2  A    between atoms: C_3  and  C_4 
REMARK    3  A    between atoms: C_4  and  N_5 
REMARK       I    between atoms: N_5  and  C_6 
REMARK       I    between atoms: C_6  and  N_8 
REMARK    4  A    between atoms: N_8  and  C_9 
REMARK    5  A    between atoms: C_16  and  N_17 
ROOT
HETATM    1  N   UNL     1     -39.551 -48.053  13.609  1.00  0.00    -0.342 N 
HETATM    2  C   UNL     1     -40.248 -47.863  12.432  1.00  0.00     0.320 C 
HETATM    3  O   UNL     1     -39.741 -48.157  11.353  1.00  0.00    -0.247 OA
HETATM    4  N   UNL     1     -41.502 -47.325  12.588  1.00  0.00    -0.305 N 
HETATM    5  H   UNL     1     -39.740 -47.410  14.362  1.00  0.00     0.164 HD
HETATM    6  H   UNL     1     -41.828 -47.076  13.510  1.00  0.00     0.171 HD
ENDROOT
BRANCH   4   7
HETATM    7  C   UNL     1     -42.397 -47.046  11.511  1.00  0.00     0.090 A 
HETATM    8  C   UNL     1     -43.275 -47.993  10.999  1.00  0.00     0.121 A 
HETATM    9  N   UNL     1     -44.169 -47.771  10.011  1.00  0.00    -0.360 N 
HETATM   10  C   UNL     1     -44.166 -46.533   9.526  1.00  0.00     0.181 A 
ATOM     11  HN  UNL     1     -44.797 -48.496   9.665  1.00  0.00     0.166 HD
HETATM   12  N   UNL     1     -43.379 -45.529   9.930  1.00  0.00    -0.341 N 
HETATM   13  C   UNL     1     -42.493 -45.771  10.933  1.00  0.00     0.111 A 
ATOM     14  HN  UNL     1     -43.442 -44.608   9.498  1.00  0.00     0.167 HD
BRANCH  13  15
HETATM   15  N   UNL     1     -41.740 -44.677  11.412  1.00  0.00    -0.276 NA
HETATM   16  C   UNL     1     -42.515 -43.431  11.532  1.00  0.00     0.118 C 
HETATM   17  C   UNL     1     -40.419 -44.485  10.809  1.00  0.00     0.118 C 
ENDBRANCH  13  15
ENDBRANCH   4   7
BRANCH   1  18
HETATM   18  C   UNL     1     -38.182 -48.495  13.420  1.00  0.00     0.133 C 
BRANCH  18  19
HETATM   19  C   UNL     1     -37.798 -49.856  13.956  1.00  0.00    -0.025 A 
HETATM   20  C   UNL     1     -36.969 -49.994  15.218  1.00  0.00     0.012 A 
HETATM   21  C   UNL     1     -38.426 -50.373  15.235  1.00  0.00     0.012 A 
BRANCH  19  22
HETATM   22  C   UNL     1     -37.541 -50.873  12.845  1.00  0.00     0.006 C 
HETATM   23  C   UNL     1     -37.313 -50.216  11.488  1.00  0.00     0.006 C 
ENDBRANCH  19  22
ENDBRANCH  18  19
ENDBRANCH   1  18
TORSDOF 5
ENDMDL
MODEL 9
REMARK VINA RESULT:      -4.7      1.543      3.359
REMARK  5 active torsions:
REMARK  status: ('A' for Active; 'I' for Inactive)
REMARK    1  A    between atoms: C_2  and  C_3 
REMARK    2  A    between atoms: C_3  and  C_4 
REMARK    3  A    between atoms: C_4  and  N_5 
REMARK       I    between atoms: N_5  and  C_6 
REMARK       I    between atoms: C_6  and  N_8 
REMARK    4  A    between atoms: N_8  and  C_9 
REMARK    5  A    between atoms: C_16  and  N_17 
ROOT
HETATM    1  N   UNL     1     -43.821 -50.143  13.328  1.00  0.00    -0.342 N 
HETATM    2  C   UNL     1     -42.819 -49.519  12.611  1.00  0.00     0.320 C 
HETATM    3  O   UNL     1     -41.932 -50.179  12.077  1.00  0.00    -0.247 OA
HETATM    4  N   UNL     1     -42.910 -48.150  12.573  1.00  0.00    -0.305 N 
HETATM    5  H   UNL     1     -44.212 -49.636  14.105  1.00  0.00     0.164 HD
HETATM    6  H   UNL     1     -43.651 -47.683  13.073  1.00  0.00     0.171 HD
ENDROOT
BRANCH   4   7
HETATM    7  C   UNL     1     -41.985 -47.301  11.890  1.00  0.00     0.090 A 
HETATM    8  C   UNL     1     -42.195 -46.851  10.593  1.00  0.00     0.121 A 
HETATM    9  N   UNL     1     -41.375 -46.017   9.917  1.00  0.00    -0.360 N 
HETATM   10  C   UNL     1     -40.298 -45.628  10.592  1.00  0.00     0.181 A 
ATOM     11  HN  UNL     1     -41.569 -45.709   8.964  1.00  0.00     0.166 HD
HETATM   12  N   UNL     1     -39.979 -45.982  11.842  1.00  0.00    -0.341 N 
HETATM   13  C   UNL     1     -40.823 -46.814  12.509  1.00  0.00     0.111 A 
ATOM     14  HN  UNL     1     -39.127 -45.637  12.283  1.00  0.00     0.167 HD
BRANCH  13  15
HETATM   15  N   UNL     1     -40.522 -47.099  13.858  1.00  0.00    -0.276 NA
HETATM   16  C   UNL     1     -40.326 -45.899  14.688  1.00  0.00     0.118 C 
HETATM   17  C   UNL     1     -39.517 -48.140  14.092  1.00  0.00     0.118 C 
ENDBRANCH  13  15
ENDBRANCH   4   7
BRANCH   1  18
HETATM   18  C   UNL     1     -43.640 -51.576  13.471  1.00  0.00     0.133 C 
BRANCH  18  19
HETATM   19  C   UNL     1     -44.877 -52.443  13.530  1.00  0.00    -0.025 A 
HETATM   20  C   UNL     1     -44.880 -53.843  12.947  1.00  0.00     0.012 A 
HETATM   21  C   UNL     1     -44.912 -53.656  14.440  1.00  0.00     0.012 A 
BRANCH  19  22
HETATM   22  C   UNL     1     -46.167 -51.635  13.397  1.00  0.00     0.006 C 
HETATM   23  C   UNL     1     -46.863 -51.414  14.735  1.00  0.00     0.006 C 
ENDBRANCH  19  22
ENDBRANCH  18  19
ENDBRANCH   1  18
TORSDOF 5
ENDMDL
