MODEL 1
REMARK VINA RESULT:      -5.8      0.000      0.000
REMARK  4 active torsions:
REMARK  status: ('A' for Active; 'I' for Inactive)
REMARK    1  A    between atoms: C_2  and  N_3 
REMARK    2  A    between atoms: C_6  and  C_7 
REMARK    3  A    between atoms: C_7  and  N_8 
REMARK       I    between atoms: N_8  and  C_9 
REMARK       I    between atoms: C_9  and  N_11 
REMARK    4  A    between atoms: N_11  and  C_12 
ROOT
HETATM    1  N   UNL     1     -40.636 -51.020  11.342  1.00  0.00    -0.342 N 
HETATM    2  C   UNL     1     -41.763 -51.302  12.088  1.00  0.00     0.321 C 
HETATM    3  O   UNL     1     -42.205 -50.508  12.909  1.00  0.00    -0.247 OA
HETATM    4  N   UNL     1     -42.309 -52.510  11.719  1.00  0.00    -0.293 N 
HETATM    5  H   UNL     1     -40.045 -51.808  11.097  1.00  0.00     0.164 HD
HETATM    6  H   UNL     1     -41.994 -52.902  10.848  1.00  0.00     0.172 HD
ENDROOT
BRANCH   1   7
HETATM    7  C   UNL     1     -39.938 -49.769  11.562  1.00  0.00     0.130 C 
BRANCH   7   8
HETATM    8  C   UNL     1     -38.495 -49.933  12.051  1.00  0.00     0.033 C 
HETATM    9  C   UNL     1     -38.275 -51.219  12.841  1.00  0.00     0.038 C 
HETATM   10  C   UNL     1     -38.429 -50.828  14.307  1.00  0.00     0.273 C 
HETATM   11  N   UNL     1     -38.605 -49.364  14.333  1.00  0.00     0.088 N 
HETATM   12  C   UNL     1     -38.070 -48.866  13.053  1.00  0.00     0.278 C 
BRANCH  11  13
HETATM   13  C   UNL     1     -37.936 -48.721  15.469  1.00  0.00     0.268 C 
HETATM   14  C   UNL     1     -36.888 -47.706  15.029  1.00  0.00     0.037 C 
ENDBRANCH  11  13
ENDBRANCH   7   8
ENDBRANCH   1   7
BRANCH   4  15
HETATM   15  C   UNL     1     -43.471 -53.014  12.267  1.00  0.00     0.132 A 
HETATM   16  C   UNL     1     -43.528 -54.189  13.055  1.00  0.00     0.084 A 
HETATM   17  C   UNL     1     -44.868 -54.376  13.298  1.00  0.00     0.076 A 
HETATM   18  C   UNL     1     -45.671 -55.422  13.951  1.00  0.00     0.079 C 
HETATM   19  O   UNL     1     -45.562 -53.340  12.766  1.00  0.00    -0.241 OA
HETATM   20  N   UNL     1     -44.691 -52.485  12.128  1.00  0.00    -0.245 N 
ATOM     21  HN  UNL     1     -44.930 -51.619  11.646  1.00  0.00     0.196 HD
ENDBRANCH   4  15
TORSDOF 4
ENDMDL
MODEL 2
REMARK VINA RESULT:      -5.7      2.626      7.133
REMARK  4 active torsions:
REMARK  status: ('A' for Active; 'I' for Inactive)
REMARK    1  A    between atoms: C_2  and  N_3 
REMARK    2  A    between atoms: C_6  and  C_7 
REMARK    3  A    between atoms: C_7  and  N_8 
REMARK       I    between atoms: N_8  and  C_9 
REMARK       I    between atoms: C_9  and  N_11 
REMARK    4  A    between atoms: N_11  and  C_12 
ROOT
HETATM    1  N   UNL     1     -44.051 -52.988  12.126  1.00  0.00    -0.342 N 
HETATM    2  C   UNL     1     -42.833 -52.651  12.682  1.00  0.00     0.321 C 
HETATM    3  O   UNL     1     -42.511 -53.034  13.800  1.00  0.00    -0.247 OA
HETATM    4  N   UNL     1     -42.068 -51.930  11.796  1.00  0.00    -0.293 N 
HETATM    5  H   UNL     1     -44.473 -52.301  11.509  1.00  0.00     0.164 HD
HETATM    6  H   UNL     1     -42.359 -51.941  10.833  1.00  0.00     0.172 HD
ENDROOT
BRANCH   1   7
HETATM    7  C   UNL     1     -44.985 -53.782  12.898  1.00  0.00     0.130 C 
BRANCH   7   8
HETATM    8  C   UNL     1     -46.288 -53.054  13.249  1.00  0.00     0.033 C 
HETATM    9  C   UNL     1     -46.132 -51.537  13.284  1.00  0.00     0.038 C 
HETATM   10  C   UNL     1     -45.873 -51.188  14.746  1.00  0.00     0.273 C 
HETATM   11  N   UNL     1     -46.002 -52.445  15.505  1.00  0.00     0.088 N 
HETATM   12  C   UNL     1     -46.790 -53.357  14.656  1.00  0.00     0.278 C 
BRANCH  11  13
HETATM   13  C   UNL     1     -46.636 -52.268  16.816  1.00  0.00     0.268 C 
HETATM   14  C   UNL     1     -47.742 -51.220  16.790  1.00  0.00     0.037 C 
ENDBRANCH  11  13
ENDBRANCH   7   8
ENDBRANCH   1   7
BRANCH   4  15
HETATM   15  C   UNL     1     -40.783 -51.508  12.073  1.00  0.00     0.132 A 
HETATM   16  C   UNL     1     -40.204 -50.332  11.536  1.00  0.00     0.084 A 
HETATM   17  C   UNL     1     -38.904 -50.354  11.982  1.00  0.00     0.076 A 
HETATM   18  C   UNL     1     -37.710 -49.526  11.749  1.00  0.00     0.079 C 
HETATM   19  O   UNL     1     -38.735 -51.422  12.799  1.00  0.00    -0.241 OA
HETATM   20  N   UNL     1     -39.909 -52.139  12.863  1.00  0.00    -0.245 N 
ATOM     21  HN  UNL     1     -40.079 -52.986  13.407  1.00  0.00     0.196 HD
ENDBRANCH   4  15
TORSDOF 4
ENDMDL
MODEL 3
REMARK VINA RESULT:      -5.6      3.847      5.014
REMARK  4 active torsions:
REMARK  status: ('A' for Active; 'I' for Inactive)
REMARK    1  A    between atoms: C_2  and  N_3 
REMARK    2  A    between atoms: C_6  and  C_7 
REMARK    3  A    between atoms: C_7  and  N_8 
REMARK       I    between atoms: N_8  and  C_9 
REMARK       I    between atoms: C_9  and  N_11 
REMARK    4  A    between atoms: N_11  and  C_12 
ROOT
HETATM    1  N   UNL     1     -40.457 -49.459  10.504  1.00  0.00    -0.342 N 
HETATM    2  C   UNL     1     -41.611 -48.711  10.620  1.00  0.00     0.321 C 
HETATM    3  O   UNL     1     -42.128 -48.493  11.708  1.00  0.00    -0.247 OA
HETATM    4  N   UNL     1     -42.007 -48.223   9.396  1.00  0.00    -0.293 N 
HETATM    5  H   UNL     1     -40.361 -50.018   9.662  1.00  0.00     0.164 HD
HETATM    6  H   UNL     1     -41.328 -48.256   8.654  1.00  0.00     0.172 HD
ENDROOT
BRANCH   1   7
HETATM    7  C   UNL     1     -39.864 -50.032  11.696  1.00  0.00     0.130 C 
BRANCH   7   8
HETATM    8  C   UNL     1     -38.437 -49.549  11.981  1.00  0.00     0.033 C 
HETATM    9  C   UNL     1     -37.495 -50.679  12.382  1.00  0.00     0.038 C 
HETATM   10  C   UNL     1     -37.495 -50.687  13.908  1.00  0.00     0.273 C 
HETATM   11  N   UNL     1     -38.307 -49.531  14.331  1.00  0.00     0.088 N 
HETATM   12  C   UNL     1     -38.343 -48.612  13.179  1.00  0.00     0.278 C 
BRANCH  11  13
HETATM   13  C   UNL     1     -37.781 -48.860  15.525  1.00  0.00     0.268 C 
HETATM   14  C   UNL     1     -36.760 -47.782  15.183  1.00  0.00     0.037 C 
ENDBRANCH  11  13
ENDBRANCH   7   8
ENDBRANCH   1   7
BRANCH   4  15
HETATM   15  C   UNL     1     -43.101 -47.398   9.228  1.00  0.00     0.132 A 
HETATM   16  C   UNL     1     -44.438 -47.801   9.466  1.00  0.00     0.084 A 
HETATM   17  C   UNL     1     -45.197 -46.723   9.080  1.00  0.00     0.076 A 
HETATM   18  C   UNL     1     -46.639 -46.456   8.954  1.00  0.00     0.079 C 
HETATM   19  O   UNL     1     -44.372 -45.710   8.715  1.00  0.00    -0.241 OA
HETATM   20  N   UNL     1     -43.064 -46.128   8.815  1.00  0.00    -0.245 N 
ATOM     21  HN  UNL     1     -42.230 -45.576   8.612  1.00  0.00     0.196 HD
ENDBRANCH   4  15
TORSDOF 4
ENDMDL
MODEL 4
REMARK VINA RESULT:      -5.5      2.991      4.460
REMARK  4 active torsions:
REMARK  status: ('A' for Active; 'I' for Inactive)
REMARK    1  A    between atoms: C_2  and  N_3 
REMARK    2  A    between atoms: C_6  and  C_7 
REMARK    3  A    between atoms: C_7  and  N_8 
REMARK       I    between atoms: N_8  and  C_9 
REMARK       I    between atoms: C_9  and  N_11 
REMARK    4  A    between atoms: N_11  and  C_12 
ROOT
HETATM    1  N   UNL     1     -42.658 -48.932  12.742  1.00  0.00    -0.342 N 
HETATM    2  C   UNL     1     -42.696 -50.308  12.643  1.00  0.00     0.321 C 
HETATM    3  O   UNL     1     -41.675 -50.969  12.496  1.00  0.00    -0.247 OA
HETATM    4  N   UNL     1     -43.978 -50.779  12.804  1.00  0.00    -0.293 N 
HETATM    5  H   UNL     1     -43.452 -48.427  12.361  1.00  0.00     0.164 HD
HETATM    6  H   UNL     1     -44.650 -50.139  13.192  1.00  0.00     0.172 HD
ENDROOT
BRANCH   1   7
HETATM    7  C   UNL     1     -41.384 -48.251  12.634  1.00  0.00     0.130 C 
BRANCH   7   8
HETATM    8  C   UNL     1     -40.929 -47.995  11.192  1.00  0.00     0.033 C 
HETATM    9  C   UNL     1     -40.289 -46.624  11.004  1.00  0.00     0.038 C 
HETATM   10  C   UNL     1     -41.412 -45.715  10.512  1.00  0.00     0.273 C 
HETATM   11  N   UNL     1     -42.593 -46.576  10.320  1.00  0.00     0.088 N 
HETATM   12  C   UNL     1     -42.079 -47.952  10.193  1.00  0.00     0.278 C 
BRANCH  11  13
HETATM   13  C   UNL     1     -43.397 -46.203   9.151  1.00  0.00     0.268 C 
HETATM   14  C   UNL     1     -43.563 -47.356   8.168  1.00  0.00     0.037 C 
ENDBRANCH  11  13
ENDBRANCH   7   8
ENDBRANCH   1   7
BRANCH   4  15
HETATM   15  C   UNL     1     -44.297 -52.122  12.803  1.00  0.00     0.132 A 
HETATM   16  C   UNL     1     -45.228 -52.714  13.692  1.00  0.00     0.084 A 
HETATM   17  C   UNL     1     -45.160 -54.059  13.417  1.00  0.00     0.076 A 
HETATM   18  C   UNL     1     -45.756 -55.272  13.999  1.00  0.00     0.079 C 
HETATM   19  O   UNL     1     -44.311 -54.255  12.377  1.00  0.00    -0.241 OA
HETATM   20  N   UNL     1     -43.778 -53.046  11.989  1.00  0.00    -0.245 N 
ATOM     21  HN  UNL     1     -43.117 -52.888  11.228  1.00  0.00     0.196 HD
ENDBRANCH   4  15
TORSDOF 4
ENDMDL
MODEL 5
REMARK VINA RESULT:      -5.4      2.691      3.461
REMARK  4 active torsions:
REMARK  status: ('A' for Active; 'I' for Inactive)
REMARK    1  A    between atoms: C_2  and  N_3 
REMARK    2  A    between atoms: C_6  and  C_7 
REMARK    3  A    between atoms: C_7  and  N_8 
REMARK       I    between atoms: N_8  and  C_9 
REMARK       I    between atoms: C_9  and  N_11 
REMARK    4  A    between atoms: N_11  and  C_12 
ROOT
HETATM    1  N   UNL     1     -40.988 -50.386  11.306  1.00  0.00    -0.342 N 
HETATM    2  C   UNL     1     -41.385 -51.289  12.271  1.00  0.00     0.321 C 
HETATM    3  O   UNL     1     -40.975 -51.219  13.423  1.00  0.00    -0.247 OA
HETATM    4  N   UNL     1     -42.316 -52.169  11.770  1.00  0.00    -0.293 N 
HETATM    5  H   UNL     1     -40.916 -50.739  10.356  1.00  0.00     0.164 HD
HETATM    6  H   UNL     1     -42.751 -51.920  10.897  1.00  0.00     0.172 HD
ENDROOT
BRANCH   1   7
HETATM    7  C   UNL     1     -40.033 -49.353  11.655  1.00  0.00     0.130 C 
BRANCH   7   8
HETATM    8  C   UNL     1     -40.665 -48.087  12.246  1.00  0.00     0.033 C 
HETATM    9  C   UNL     1     -41.963 -47.690  11.553  1.00  0.00     0.038 C 
HETATM   10  C   UNL     1     -41.564 -46.658  10.502  1.00  0.00     0.273 C 
HETATM   11  N   UNL     1     -40.123 -46.407  10.690  1.00  0.00     0.088 N 
HETATM   12  C   UNL     1     -39.808 -46.840  12.064  1.00  0.00     0.278 C 
BRANCH  11  13
HETATM   13  C   UNL     1     -39.748 -45.004  10.482  1.00  0.00     0.268 C 
HETATM   14  C   UNL     1     -40.566 -44.049  11.344  1.00  0.00     0.037 C 
ENDBRANCH  11  13
ENDBRANCH   7   8
ENDBRANCH   1   7
BRANCH   4  15
HETATM   15  C   UNL     1     -42.923 -53.146  12.533  1.00  0.00     0.132 A 
HETATM   16  C   UNL     1     -44.290 -53.500  12.422  1.00  0.00     0.084 A 
HETATM   17  C   UNL     1     -44.489 -54.422  13.422  1.00  0.00     0.076 A 
HETATM   18  C   UNL     1     -45.657 -55.138  13.960  1.00  0.00     0.079 C 
HETATM   19  O   UNL     1     -43.306 -54.669  14.038  1.00  0.00    -0.241 OA
HETATM   20  N   UNL     1     -42.327 -53.878  13.479  1.00  0.00    -0.245 N 
ATOM     21  HN  UNL     1     -41.339 -53.857  13.736  1.00  0.00     0.196 HD
ENDBRANCH   4  15
TORSDOF 4
ENDMDL
MODEL 6
REMARK VINA RESULT:      -5.3      3.213      7.192
REMARK  4 active torsions:
REMARK  status: ('A' for Active; 'I' for Inactive)
REMARK    1  A    between atoms: C_2  and  N_3 
REMARK    2  A    between atoms: C_6  and  C_7 
REMARK    3  A    between atoms: C_7  and  N_8 
REMARK       I    between atoms: N_8  and  C_9 
REMARK       I    between atoms: C_9  and  N_11 
REMARK    4  A    between atoms: N_11  and  C_12 
ROOT
HETATM    1  N   UNL     1     -42.019 -51.065  11.685  1.00  0.00    -0.342 N 
HETATM    2  C   UNL     1     -41.330 -49.888  11.901  1.00  0.00     0.321 C 
HETATM    3  O   UNL     1     -40.395 -49.827  12.688  1.00  0.00    -0.247 OA
HETATM    4  N   UNL     1     -41.793 -48.888  11.078  1.00  0.00    -0.293 N 
HETATM    5  H   UNL     1     -43.008 -50.979  11.472  1.00  0.00     0.164 HD
HETATM    6  H   UNL     1     -42.367 -49.170  10.301  1.00  0.00     0.172 HD
ENDROOT
BRANCH   1   7
HETATM    7  C   UNL     1     -41.650 -52.247  12.437  1.00  0.00     0.130 C 
BRANCH   7   8
HETATM    8  C   UNL     1     -42.587 -52.565  13.608  1.00  0.00     0.033 C 
HETATM    9  C   UNL     1     -42.966 -54.040  13.683  1.00  0.00     0.038 C 
HETATM   10  C   UNL     1     -44.301 -54.155  12.952  1.00  0.00     0.273 C 
HETATM   11  N   UNL     1     -44.701 -52.782  12.595  1.00  0.00     0.088 N 
HETATM   12  C   UNL     1     -43.949 -51.889  13.495  1.00  0.00     0.278 C 
BRANCH  11  13
HETATM   13  C   UNL     1     -46.145 -52.551  12.710  1.00  0.00     0.268 C 
HETATM   14  C   UNL     1     -46.485 -51.512  13.772  1.00  0.00     0.037 C 
ENDBRANCH  11  13
ENDBRANCH   7   8
ENDBRANCH   1   7
BRANCH   4  15
HETATM   15  C   UNL     1     -41.248 -47.620  11.046  1.00  0.00     0.132 A 
HETATM   16  C   UNL     1     -41.963 -46.443  11.377  1.00  0.00     0.084 A 
HETATM   17  C   UNL     1     -41.085 -45.420  11.113  1.00  0.00     0.076 A 
HETATM   18  C   UNL     1     -41.165 -43.951  11.124  1.00  0.00     0.079 C 
HETATM   19  O   UNL     1     -39.895 -45.947  10.730  1.00  0.00    -0.241 OA
HETATM   20  N   UNL     1     -39.993 -47.320  10.696  1.00  0.00    -0.245 N 
ATOM     21  HN  UNL     1     -39.254 -47.979  10.451  1.00  0.00     0.196 HD
ENDBRANCH   4  15
TORSDOF 4
ENDMDL
MODEL 7
REMARK VINA RESULT:      -5.3      3.704      4.753
REMARK  4 active torsions:
REMARK  status: ('A' for Active; 'I' for Inactive)
REMARK    1  A    between atoms: C_2  and  N_3 
REMARK    2  A    between atoms: C_6  and  C_7 
REMARK    3  A    between atoms: C_7  and  N_8 
REMARK       I    between atoms: N_8  and  C_9 
REMARK       I    between atoms: C_9  and  N_11 
REMARK    4  A    between atoms: N_11  and  C_12 
ROOT
HETATM    1  N   UNL     1     -41.294 -48.376  10.201  1.00  0.00    -0.342 N 
HETATM    2  C   UNL     1     -41.481 -49.357  11.154  1.00  0.00     0.321 C 
HETATM    3  O   UNL     1     -42.363 -49.272  11.999  1.00  0.00    -0.247 OA
HETATM    4  N   UNL     1     -40.616 -50.408  10.955  1.00  0.00    -0.293 N 
HETATM    5  H   UNL     1     -40.340 -48.217   9.894  1.00  0.00     0.164 HD
HETATM    6  H   UNL     1     -40.154 -50.452  10.063  1.00  0.00     0.172 HD
ENDROOT
BRANCH   1   7
HETATM    7  C   UNL     1     -42.139 -47.199  10.224  1.00  0.00     0.130 C 
BRANCH   7   8
HETATM    8  C   UNL     1     -41.373 -45.879  10.365  1.00  0.00     0.033 C 
HETATM    9  C   UNL     1     -39.962 -46.064  10.912  1.00  0.00     0.038 C 
HETATM   10  C   UNL     1     -40.075 -45.832  12.416  1.00  0.00     0.273 C 
HETATM   11  N   UNL     1     -41.466 -45.416  12.671  1.00  0.00     0.088 N 
HETATM   12  C   UNL     1     -41.990 -44.926  11.383  1.00  0.00     0.278 C 
BRANCH  11  13
HETATM   13  C   UNL     1     -41.581 -44.388  13.711  1.00  0.00     0.268 C 
HETATM   14  C   UNL     1     -42.670 -43.367  13.402  1.00  0.00     0.037 C 
ENDBRANCH  11  13
ENDBRANCH   7   8
ENDBRANCH   1   7
BRANCH   4  15
HETATM   15  C   UNL     1     -40.621 -51.550  11.732  1.00  0.00     0.132 A 
HETATM   16  C   UNL     1     -39.960 -51.659  12.980  1.00  0.00     0.084 A 
HETATM   17  C   UNL     1     -40.134 -52.972  13.348  1.00  0.00     0.076 A 
HETATM   18  C   UNL     1     -39.652 -53.815  14.453  1.00  0.00     0.079 C 
HETATM   19  O   UNL     1     -40.916 -53.589  12.428  1.00  0.00    -0.241 OA
HETATM   20  N   UNL     1     -41.227 -52.700  11.423  1.00  0.00    -0.245 N 
ATOM     21  HN  UNL     1     -41.806 -52.884  10.603  1.00  0.00     0.196 HD
ENDBRANCH   4  15
TORSDOF 4
ENDMDL
MODEL 8
REMARK VINA RESULT:      -5.2      2.729      6.781
REMARK  4 active torsions:
REMARK  status: ('A' for Active; 'I' for Inactive)
REMARK    1  A    between atoms: C_2  and  N_3 
REMARK    2  A    between atoms: C_6  and  C_7 
REMARK    3  A    between atoms: C_7  and  N_8 
REMARK       I    between atoms: N_8  and  C_9 
REMARK       I    between atoms: C_9  and  N_11 
REMARK    4  A    between atoms: N_11  and  C_12 
ROOT
HETATM    1  N   UNL     1     -41.459 -52.553  12.575  1.00  0.00    -0.342 N 
HETATM    2  C   UNL     1     -41.570 -51.177  12.561  1.00  0.00     0.321 C 
HETATM    3  O   UNL     1     -41.954 -50.555  13.543  1.00  0.00    -0.247 OA
HETATM    4  N   UNL     1     -41.130 -50.659  11.366  1.00  0.00    -0.293 N 
HETATM    5  H   UNL     1     -41.642 -53.032  11.699  1.00  0.00     0.164 HD
HETATM    6  H   UNL     1     -40.589 -51.271  10.779  1.00  0.00     0.172 HD
ENDROOT
BRANCH   1   7
HETATM    7  C   UNL     1     -41.842 -53.281  13.768  1.00  0.00     0.130 C 
BRANCH   7   8
HETATM    8  C   UNL     1     -43.122 -54.111  13.613  1.00  0.00     0.033 C 
HETATM    9  C   UNL     1     -43.994 -53.650  12.450  1.00  0.00     0.038 C 
HETATM   10  C   UNL     1     -45.020 -52.701  13.062  1.00  0.00     0.273 C 
HETATM   11  N   UNL     1     -44.801 -52.732  14.519  1.00  0.00     0.088 N 
HETATM   12  C   UNL     1     -44.073 -53.983  14.798  1.00  0.00     0.278 C 
BRANCH  11  13
HETATM   13  C   UNL     1     -46.045 -52.663  15.293  1.00  0.00     0.268 C 
HETATM   14  C   UNL     1     -46.890 -51.447  14.930  1.00  0.00     0.037 C 
ENDBRANCH  11  13
ENDBRANCH   7   8
ENDBRANCH   1   7
BRANCH   4  15
HETATM   15  C   UNL     1     -41.080 -49.305  11.100  1.00  0.00     0.132 A 
HETATM   16  C   UNL     1     -40.101 -48.431  11.632  1.00  0.00     0.084 A 
HETATM   17  C   UNL     1     -40.483 -47.183  11.202  1.00  0.00     0.076 A 
HETATM   18  C   UNL     1     -40.011 -45.810  11.441  1.00  0.00     0.079 C 
HETATM   19  O   UNL     1     -41.567 -47.306  10.397  1.00  0.00    -0.241 OA
HETATM   20  N   UNL     1     -41.936 -48.631  10.326  1.00  0.00    -0.245 N 
ATOM     21  HN  UNL     1     -42.711 -49.021   9.789  1.00  0.00     0.196 HD
ENDBRANCH   4  15
TORSDOF 4
ENDMDL
MODEL 9
REMARK VINA RESULT:      -5.2      3.373      7.123
REMARK  4 active torsions:
REMARK  status: ('A' for Active; 'I' for Inactive)
REMARK    1  A    between atoms: C_2  and  N_3 
REMARK    2  A    between atoms: C_6  and  C_7 
REMARK    3  A    between atoms: C_7  and  N_8 
REMARK       I    between atoms: N_8  and  C_9 
REMARK       I    between atoms: C_9  and  N_11 
REMARK    4  A    between atoms: N_11  and  C_12 
ROOT
HETATM    1  N   UNL     1     -41.980 -50.758  11.903  1.00  0.00    -0.342 N 
HETATM    2  C   UNL     1     -42.193 -49.400  11.773  1.00  0.00     0.321 C 
HETATM    3  O   UNL     1     -43.030 -48.814  12.448  1.00  0.00    -0.247 OA
HETATM    4  N   UNL     1     -41.311 -48.847  10.874  1.00  0.00    -0.293 N 
HETATM    5  H   UNL     1     -41.708 -51.257  11.061  1.00  0.00     0.164 HD
HETATM    6  H   UNL     1     -40.513 -49.404  10.621  1.00  0.00     0.172 HD
ENDROOT
BRANCH   1   7
HETATM    7  C   UNL     1     -42.793 -51.514  12.834  1.00  0.00     0.130 C 
BRANCH   7   8
HETATM    8  C   UNL     1     -43.027 -52.972  12.423  1.00  0.00     0.033 C 
HETATM    9  C   UNL     1     -44.485 -53.400  12.548  1.00  0.00     0.038 C 
HETATM   10  C   UNL     1     -44.598 -54.064  13.918  1.00  0.00     0.273 C 
HETATM   11  N   UNL     1     -43.233 -54.110  14.473  1.00  0.00     0.088 N 
HETATM   12  C   UNL     1     -42.319 -53.977  13.324  1.00  0.00     0.278 C 
BRANCH  11  13
HETATM   13  C   UNL     1     -42.957 -55.338  15.227  1.00  0.00     0.268 C 
HETATM   14  C   UNL     1     -41.893 -55.135  16.299  1.00  0.00     0.037 C 
ENDBRANCH  11  13
ENDBRANCH   7   8
ENDBRANCH   1   7
BRANCH   4  15
HETATM   15  C   UNL     1     -41.266 -47.496  10.592  1.00  0.00     0.132 A 
HETATM   16  C   UNL     1     -40.237 -46.629  11.037  1.00  0.00     0.084 A 
HETATM   17  C   UNL     1     -40.637 -45.380  10.626  1.00  0.00     0.076 A 
HETATM   18  C   UNL     1     -40.131 -44.012  10.814  1.00  0.00     0.079 C 
HETATM   19  O   UNL     1     -41.783 -45.497   9.910  1.00  0.00    -0.241 OA
HETATM   20  N   UNL     1     -42.172 -46.818   9.881  1.00  0.00    -0.245 N 
ATOM     21  HN  UNL     1     -42.991 -47.202   9.410  1.00  0.00     0.196 HD
ENDBRANCH   4  15
TORSDOF 4
ENDMDL
