MODEL 1
REMARK VINA RESULT:      -6.2      0.000      0.000
REMARK  6 active torsions:
REMARK  status: ('A' for Active; 'I' for Inactive)
REMARK    1  A    between atoms: C_2  and  C_3 
REMARK    2  A    between atoms: C_3  and  C_4 
REMARK    3  A    between atoms: C_6  and  N_7 
REMARK       I    between atoms: N_7  and  C_8 
REMARK    4  A    between atoms: C_8  and  C_10 
REMARK    5  A    between atoms: C_10  and  C_11 
REMARK    6  A    between atoms: C_20  and  O_21 
ROOT
HETATM    1  N   UNL     1     -42.794 -52.927  14.023  1.00  0.00    -0.355 N 
HETATM    2  C   UNL     1     -42.020 -54.076  13.996  1.00  0.00     0.223 C 
HETATM    3  O   UNL     1     -42.174 -55.008  14.780  1.00  0.00    -0.273 OA
HETATM    4  H   UNL     1     -42.619 -52.236  13.302  1.00  0.00     0.162 HD
ENDROOT
BRANCH   1   5
HETATM    5  C   UNL     1     -43.919 -52.783  14.965  1.00  0.00     0.101 C 
HETATM    6  C   UNL     1     -45.369 -52.892  14.382  1.00  0.00     0.006 C 
HETATM    7  C   UNL     1     -45.724 -51.620  15.255  1.00  0.00     0.137 C 
HETATM    8  C   UNL     1     -44.206 -51.345  15.444  1.00  0.00     0.035 C 
HETATM    9  C   UNL     1     -43.662 -50.123  14.716  1.00  0.00     0.015 C 
BRANCH   6  10
HETATM   10  C   UNL     1     -46.046 -54.205  14.851  1.00  0.00     0.010 C 
HETATM   11  C   UNL     1     -45.744 -55.389  13.939  1.00  0.00     0.006 C 
ENDBRANCH   6  10
BRANCH   6  12
HETATM   12  C   UNL     1     -45.532 -52.640  12.863  1.00  0.00     0.010 C 
HETATM   13  C   UNL     1     -46.586 -51.590  12.533  1.00  0.00     0.006 C 
ENDBRANCH   6  12
BRANCH   7  14
HETATM   14  O   UNL     1     -46.469 -51.860  16.475  1.00  0.00    -0.389 OA
HETATM   15  C   UNL     1     -47.742 -51.230  16.563  1.00  0.00     0.202 C 
ENDBRANCH   7  14
ENDBRANCH   1   5
BRANCH   2  16
HETATM   16  C   UNL     1     -40.963 -54.102  12.916  1.00  0.00     0.161 C 
BRANCH  16  17
HETATM   17  C   UNL     1     -40.692 -52.735  12.399  1.00  0.00     0.036 A 
HETATM   18  C   UNL     1     -39.946 -51.699  13.010  1.00  0.00     0.053 A 
HETATM   19  C   UNL     1     -40.066 -50.618  12.165  1.00  0.00     0.024 A 
HETATM   20  C   UNL     1     -39.558 -49.232  12.259  1.00  0.00     0.070 C 
HETATM   21  N   UNL     1     -40.830 -51.052  11.115  1.00  0.00    -0.305 N 
HETATM   22  N   UNL     1     -41.218 -52.335  11.229  1.00  0.00    -0.304 N 
HETATM   23  H   UNL     1     -41.126 -50.531  10.296  1.00  0.00     0.186 HD
ATOM     24  HN  UNL     1     -41.782 -52.879  10.576  1.00  0.00     0.186 HD
ENDBRANCH  16  17
ENDBRANCH   2  16
TORSDOF 6
ENDMDL
MODEL 2
REMARK VINA RESULT:      -6.1      1.242      2.044
REMARK  6 active torsions:
REMARK  status: ('A' for Active; 'I' for Inactive)
REMARK    1  A    between atoms: C_2  and  C_3 
REMARK    2  A    between atoms: C_3  and  C_4 
REMARK    3  A    between atoms: C_6  and  N_7 
REMARK       I    between atoms: N_7  and  C_8 
REMARK    4  A    between atoms: C_8  and  C_10 
REMARK    5  A    between atoms: C_10  and  C_11 
REMARK    6  A    between atoms: C_20  and  O_21 
ROOT
HETATM    1  N   UNL     1     -43.502 -53.401  14.522  1.00  0.00    -0.355 N 
HETATM    2  C   UNL     1     -43.193 -53.925  13.277  1.00  0.00     0.223 C 
HETATM    3  O   UNL     1     -44.041 -54.190  12.431  1.00  0.00    -0.273 OA
HETATM    4  H   UNL     1     -42.726 -53.170  15.132  1.00  0.00     0.162 HD
ENDROOT
BRANCH   1   5
HETATM    5  C   UNL     1     -44.889 -53.055  14.885  1.00  0.00     0.101 C 
HETATM    6  C   UNL     1     -45.277 -51.536  14.896  1.00  0.00     0.006 C 
HETATM    7  C   UNL     1     -46.000 -51.819  16.276  1.00  0.00     0.137 C 
HETATM    8  C   UNL     1     -45.233 -53.167  16.384  1.00  0.00     0.035 C 
HETATM    9  C   UNL     1     -44.158 -53.228  17.461  1.00  0.00     0.015 C 
BRANCH   6  10
HETATM   10  C   UNL     1     -46.235 -51.211  13.722  1.00  0.00     0.010 C 
HETATM   11  C   UNL     1     -46.570 -52.434  12.873  1.00  0.00     0.006 C 
ENDBRANCH   6  10
BRANCH   6  12
HETATM   12  C   UNL     1     -44.116 -50.521  15.025  1.00  0.00     0.010 C 
HETATM   13  C   UNL     1     -43.570 -50.050  13.682  1.00  0.00     0.006 C 
ENDBRANCH   6  12
BRANCH   7  14
HETATM   14  O   UNL     1     -47.445 -51.927  16.239  1.00  0.00    -0.389 OA
HETATM   15  C   UNL     1     -48.158 -51.060  17.113  1.00  0.00     0.202 C 
ENDBRANCH   7  14
ENDBRANCH   1   5
BRANCH   2  16
HETATM   16  C   UNL     1     -41.718 -54.143  13.032  1.00  0.00     0.161 C 
BRANCH  16  17
HETATM   17  C   UNL     1     -41.073 -52.909  12.514  1.00  0.00     0.036 A 
HETATM   18  C   UNL     1     -40.127 -52.077  13.159  1.00  0.00     0.053 A 
HETATM   19  C   UNL     1     -39.912 -51.030  12.289  1.00  0.00     0.024 A 
HETATM   20  C   UNL     1     -39.073 -49.816  12.396  1.00  0.00     0.070 C 
HETATM   21  N   UNL     1     -40.692 -51.291  11.195  1.00  0.00    -0.305 N 
HETATM   22  N   UNL     1     -41.402 -52.427  11.302  1.00  0.00    -0.304 N 
HETATM   23  H   UNL     1     -40.791 -50.739  10.349  1.00  0.00     0.186 HD
ATOM     24  HN  UNL     1     -42.044 -52.833  10.621  1.00  0.00     0.186 HD
ENDBRANCH  16  17
ENDBRANCH   2  16
TORSDOF 6
ENDMDL
MODEL 3
REMARK VINA RESULT:      -5.9      3.310      4.867
REMARK  6 active torsions:
REMARK  status: ('A' for Active; 'I' for Inactive)
REMARK    1  A    between atoms: C_2  and  C_3 
REMARK    2  A    between atoms: C_3  and  C_4 
REMARK    3  A    between atoms: C_6  and  N_7 
REMARK       I    between atoms: N_7  and  C_8 
REMARK    4  A    between atoms: C_8  and  C_10 
REMARK    5  A    between atoms: C_10  and  C_11 
REMARK    6  A    between atoms: C_20  and  O_21 
ROOT
HETATM    1  N   UNL     1     -42.388 -49.979  12.173  1.00  0.00    -0.355 N 
HETATM    2  C   UNL     1     -41.368 -49.457  11.395  1.00  0.00     0.223 C 
HETATM    3  O   UNL     1     -40.393 -50.111  11.038  1.00  0.00    -0.273 OA
HETATM    4  H   UNL     1     -43.174 -49.370  12.374  1.00  0.00     0.162 HD
ENDROOT
BRANCH   1   5
HETATM    5  C   UNL     1     -42.402 -51.399  12.567  1.00  0.00     0.101 C 
HETATM    6  C   UNL     1     -43.663 -51.926  13.334  1.00  0.00     0.006 C 
HETATM    7  C   UNL     1     -42.655 -52.653  14.316  1.00  0.00     0.137 C 
HETATM    8  C   UNL     1     -41.503 -51.768  13.764  1.00  0.00     0.035 C 
HETATM    9  C   UNL     1     -40.960 -50.719  14.725  1.00  0.00     0.015 C 
BRANCH   6  10
HETATM   10  C   UNL     1     -44.488 -52.880  12.435  1.00  0.00     0.010 C 
HETATM   11  C   UNL     1     -45.971 -52.528  12.399  1.00  0.00     0.006 C 
ENDBRANCH   6  10
BRANCH   6  12
HETATM   12  C   UNL     1     -44.536 -50.866  14.050  1.00  0.00     0.010 C 
HETATM   13  C   UNL     1     -44.699 -51.125  15.543  1.00  0.00     0.006 C 
ENDBRANCH   6  12
BRANCH   7  14
HETATM   14  O   UNL     1     -42.488 -54.081  14.130  1.00  0.00    -0.389 OA
HETATM   15  C   UNL     1     -42.885 -54.904  15.220  1.00  0.00     0.202 C 
ENDBRANCH   7  14
ENDBRANCH   1   5
BRANCH   2  16
HETATM   16  C   UNL     1     -41.547 -48.007  11.007  1.00  0.00     0.161 C 
BRANCH  16  17
HETATM   17  C   UNL     1     -42.745 -47.827  10.146  1.00  0.00     0.036 A 
HETATM   18  C   UNL     1     -44.032 -47.369  10.519  1.00  0.00     0.053 A 
HETATM   19  C   UNL     1     -44.795 -47.463   9.376  1.00  0.00     0.024 A 
HETATM   20  C   UNL     1     -46.225 -47.180   9.120  1.00  0.00     0.070 C 
HETATM   21  N   UNL     1     -43.952 -47.932   8.405  1.00  0.00    -0.305 N 
HETATM   22  N   UNL     1     -42.701 -48.155   8.843  1.00  0.00    -0.304 N 
HETATM   23  H   UNL     1     -44.163 -48.124   7.431  1.00  0.00     0.186 HD
ATOM     24  HN  UNL     1     -41.901 -48.495   8.310  1.00  0.00     0.186 HD
ENDBRANCH  16  17
ENDBRANCH   2  16
TORSDOF 6
ENDMDL
MODEL 4
REMARK VINA RESULT:      -5.8      2.238      6.021
REMARK  6 active torsions:
REMARK  status: ('A' for Active; 'I' for Inactive)
REMARK    1  A    between atoms: C_2  and  C_3 
REMARK    2  A    between atoms: C_3  and  C_4 
REMARK    3  A    between atoms: C_6  and  N_7 
REMARK       I    between atoms: N_7  and  C_8 
REMARK    4  A    between atoms: C_8  and  C_10 
REMARK    5  A    between atoms: C_10  and  C_11 
REMARK    6  A    between atoms: C_20  and  O_21 
ROOT
HETATM    1  N   UNL     1     -43.652 -51.933  12.469  1.00  0.00    -0.355 N 
HETATM    2  C   UNL     1     -44.549 -52.990  12.447  1.00  0.00     0.223 C 
HETATM    3  O   UNL     1     -44.202 -54.162  12.340  1.00  0.00    -0.273 OA
HETATM    4  H   UNL     1     -44.036 -51.005  12.609  1.00  0.00     0.162 HD
ENDROOT
BRANCH   1   5
HETATM    5  C   UNL     1     -42.197 -52.163  12.438  1.00  0.00     0.101 C 
HETATM    6  C   UNL     1     -41.457 -52.306  13.813  1.00  0.00     0.006 C 
HETATM    7  C   UNL     1     -40.352 -51.338  13.221  1.00  0.00     0.137 C 
HETATM    8  C   UNL     1     -41.335 -50.932  12.088  1.00  0.00     0.035 C 
HETATM    9  C   UNL     1     -41.879 -49.512  12.165  1.00  0.00     0.015 C 
BRANCH   6  10
HETATM   10  C   UNL     1     -40.986 -53.766  14.028  1.00  0.00     0.010 C 
HETATM   11  C   UNL     1     -41.895 -54.551  14.969  1.00  0.00     0.006 C 
ENDBRANCH   6  10
BRANCH   6  12
HETATM   12  C   UNL     1     -42.170 -51.713  15.052  1.00  0.00     0.010 C 
HETATM   13  C   UNL     1     -41.296 -50.752  15.850  1.00  0.00     0.006 C 
ENDBRANCH   6  12
BRANCH   7  14
HETATM   14  O   UNL     1     -39.118 -51.958  12.781  1.00  0.00    -0.389 OA
HETATM   15  C   UNL     1     -37.915 -51.321  13.197  1.00  0.00     0.202 C 
ENDBRANCH   7  14
ENDBRANCH   1   5
BRANCH   2  16
HETATM   16  C   UNL     1     -46.001 -52.590  12.572  1.00  0.00     0.161 C 
BRANCH  16  17
HETATM   17  C   UNL     1     -46.403 -52.470  13.997  1.00  0.00     0.036 A 
HETATM   18  C   UNL     1     -46.996 -51.363  14.651  1.00  0.00     0.053 A 
HETATM   19  C   UNL     1     -47.092 -51.733  15.975  1.00  0.00     0.024 A 
HETATM   20  C   UNL     1     -47.579 -51.007  17.168  1.00  0.00     0.070 C 
HETATM   21  N   UNL     1     -46.592 -53.006  16.041  1.00  0.00    -0.305 N 
HETATM   22  N   UNL     1     -46.173 -53.479  14.855  1.00  0.00    -0.304 N 
HETATM   23  H   UNL     1     -46.505 -53.604  16.856  1.00  0.00     0.186 HD
ATOM     24  HN  UNL     1     -45.773 -54.395  14.651  1.00  0.00     0.186 HD
ENDBRANCH  16  17
ENDBRANCH   2  16
TORSDOF 6
ENDMDL
MODEL 5
REMARK VINA RESULT:      -5.8      1.759      2.969
REMARK  6 active torsions:
REMARK  status: ('A' for Active; 'I' for Inactive)
REMARK    1  A    between atoms: C_2  and  C_3 
REMARK    2  A    between atoms: C_3  and  C_4 
REMARK    3  A    between atoms: C_6  and  N_7 
REMARK       I    between atoms: N_7  and  C_8 
REMARK    4  A    between atoms: C_8  and  C_10 
REMARK    5  A    between atoms: C_10  and  C_11 
REMARK    6  A    between atoms: C_20  and  O_21 
ROOT
HETATM    1  N   UNL     1     -41.740 -52.042  13.545  1.00  0.00    -0.355 N 
HETATM    2  C   UNL     1     -40.703 -52.225  12.646  1.00  0.00     0.223 C 
HETATM    3  O   UNL     1     -40.623 -53.197  11.901  1.00  0.00    -0.273 OA
HETATM    4  H   UNL     1     -41.740 -51.181  14.082  1.00  0.00     0.162 HD
ENDROOT
BRANCH   1   5
HETATM    5  C   UNL     1     -42.871 -52.985  13.613  1.00  0.00     0.101 C 
HETATM    6  C   UNL     1     -44.310 -52.381  13.750  1.00  0.00     0.006 C 
HETATM    7  C   UNL     1     -44.572 -53.477  14.862  1.00  0.00     0.137 C 
HETATM    8  C   UNL     1     -43.041 -53.727  14.955  1.00  0.00     0.035 C 
HETATM    9  C   UNL     1     -42.372 -53.249  16.237  1.00  0.00     0.015 C 
BRANCH   6  10
HETATM   10  C   UNL     1     -45.113 -52.587  12.441  1.00  0.00     0.010 C 
HETATM   11  C   UNL     1     -46.443 -51.839  12.435  1.00  0.00     0.006 C 
ENDBRANCH   6  10
BRANCH   6  12
HETATM   12  C   UNL     1     -44.411 -50.936  14.298  1.00  0.00     0.010 C 
HETATM   13  C   UNL     1     -45.178 -50.840  15.612  1.00  0.00     0.006 C 
ENDBRANCH   6  12
BRANCH   7  14
HETATM   14  O   UNL     1     -45.367 -54.623  14.466  1.00  0.00    -0.389 OA
HETATM   15  C   UNL     1     -46.712 -54.641  14.931  1.00  0.00     0.202 C 
ENDBRANCH   7  14
ENDBRANCH   1   5
BRANCH   2  16
HETATM   16  C   UNL     1     -39.667 -51.124  12.643  1.00  0.00     0.161 C 
BRANCH  16  17
HETATM   17  C   UNL     1     -40.114 -49.970  11.820  1.00  0.00     0.036 A 
HETATM   18  C   UNL     1     -40.121 -48.598  12.166  1.00  0.00     0.053 A 
HETATM   19  C   UNL     1     -40.702 -47.957  11.093  1.00  0.00     0.024 A 
HETATM   20  C   UNL     1     -41.035 -46.535  10.857  1.00  0.00     0.070 C 
HETATM   21  N   UNL     1     -40.981 -48.939  10.181  1.00  0.00    -0.305 N 
HETATM   22  N   UNL     1     -40.628 -50.169  10.594  1.00  0.00    -0.304 N 
HETATM   23  H   UNL     1     -41.410 -48.843   9.267  1.00  0.00     0.186 HD
ATOM     24  HN  UNL     1     -40.728 -51.052  10.092  1.00  0.00     0.186 HD
ENDBRANCH  16  17
ENDBRANCH   2  16
TORSDOF 6
ENDMDL
MODEL 6
REMARK VINA RESULT:      -5.7      2.124      3.216
REMARK  6 active torsions:
REMARK  status: ('A' for Active; 'I' for Inactive)
REMARK    1  A    between atoms: C_2  and  C_3 
REMARK    2  A    between atoms: C_3  and  C_4 
REMARK    3  A    between atoms: C_6  and  N_7 
REMARK       I    between atoms: N_7  and  C_8 
REMARK    4  A    between atoms: C_8  and  C_10 
REMARK    5  A    between atoms: C_10  and  C_11 
REMARK    6  A    between atoms: C_20  and  O_21 
ROOT
HETATM    1  N   UNL     1     -44.622 -53.798  16.006  1.00  0.00    -0.355 N 
HETATM    2  C   UNL     1     -44.528 -54.487  14.808  1.00  0.00     0.223 C 
HETATM    3  O   UNL     1     -45.504 -54.791  14.129  1.00  0.00    -0.273 OA
HETATM    4  H   UNL     1     -43.753 -53.552  16.467  1.00  0.00     0.162 HD
ENDROOT
BRANCH   1   5
HETATM    5  C   UNL     1     -45.920 -53.316  16.512  1.00  0.00     0.101 C 
HETATM    6  C   UNL     1     -46.183 -51.771  16.474  1.00  0.00     0.006 C 
HETATM    7  C   UNL     1     -46.745 -51.917  17.947  1.00  0.00     0.137 C 
HETATM    8  C   UNL     1     -46.079 -53.317  18.046  1.00  0.00     0.035 C 
HETATM    9  C   UNL     1     -44.885 -53.414  18.986  1.00  0.00     0.015 C 
BRANCH   6  10
HETATM   10  C   UNL     1     -47.253 -51.428  15.407  1.00  0.00     0.010 C 
HETATM   11  C   UNL     1     -46.698 -51.432  13.986  1.00  0.00     0.006 C 
ENDBRANCH   6  10
BRANCH   6  12
HETATM   12  C   UNL     1     -44.939 -50.853  16.397  1.00  0.00     0.010 C 
HETATM   13  C   UNL     1     -45.010 -49.657  17.338  1.00  0.00     0.006 C 
ENDBRANCH   6  12
BRANCH   7  14
HETATM   14  O   UNL     1     -48.187 -51.902  18.093  1.00  0.00    -0.389 OA
HETATM   15  C   UNL     1     -48.694 -51.188  19.215  1.00  0.00     0.202 C 
ENDBRANCH   7  14
ENDBRANCH   1   5
BRANCH   2  16
HETATM   16  C   UNL     1     -43.118 -54.835  14.388  1.00  0.00     0.161 C 
BRANCH  16  17
HETATM   17  C   UNL     1     -42.591 -53.848  13.410  1.00  0.00     0.036 A 
HETATM   18  C   UNL     1     -41.429 -53.046  13.512  1.00  0.00     0.053 A 
HETATM   19  C   UNL     1     -41.436 -52.253  12.386  1.00  0.00     0.024 A 
HETATM   20  C   UNL     1     -40.523 -51.181  11.930  1.00  0.00     0.070 C 
HETATM   21  N   UNL     1     -42.548 -52.622  11.678  1.00  0.00    -0.305 N 
HETATM   22  N   UNL     1     -43.263 -53.593  12.274  1.00  0.00    -0.304 N 
HETATM   23  H   UNL     1     -42.878 -52.255  10.792  1.00  0.00     0.186 HD
ATOM     24  HN  UNL     1     -44.120 -54.035  11.940  1.00  0.00     0.186 HD
ENDBRANCH  16  17
ENDBRANCH   2  16
TORSDOF 6
ENDMDL
MODEL 7
REMARK VINA RESULT:      -5.7      4.556      7.207
REMARK  6 active torsions:
REMARK  status: ('A' for Active; 'I' for Inactive)
REMARK    1  A    between atoms: C_2  and  C_3 
REMARK    2  A    between atoms: C_3  and  C_4 
REMARK    3  A    between atoms: C_6  and  N_7 
REMARK       I    between atoms: N_7  and  C_8 
REMARK    4  A    between atoms: C_8  and  C_10 
REMARK    5  A    between atoms: C_10  and  C_11 
REMARK    6  A    between atoms: C_20  and  O_21 
ROOT
HETATM    1  N   UNL     1     -39.707 -47.281  11.455  1.00  0.00    -0.355 N 
HETATM    2  C   UNL     1     -39.267 -48.209  12.385  1.00  0.00     0.223 C 
HETATM    3  O   UNL     1     -39.356 -48.038  13.597  1.00  0.00    -0.273 OA
HETATM    4  H   UNL     1     -39.632 -47.538  10.476  1.00  0.00     0.162 HD
ENDROOT
BRANCH   1   5
HETATM    5  C   UNL     1     -40.388 -46.042  11.870  1.00  0.00     0.101 C 
HETATM    6  C   UNL     1     -41.895 -45.877  11.474  1.00  0.00     0.006 C 
HETATM    7  C   UNL     1     -41.530 -44.397  11.043  1.00  0.00     0.137 C 
HETATM    8  C   UNL     1     -40.024 -44.779  11.065  1.00  0.00     0.035 C 
HETATM    9  C   UNL     1     -39.343 -44.852   9.705  1.00  0.00     0.015 C 
BRANCH   6  10
HETATM   10  C   UNL     1     -42.801 -45.977  12.727  1.00  0.00     0.010 C 
HETATM   11  C   UNL     1     -42.890 -47.394  13.283  1.00  0.00     0.006 C 
ENDBRANCH   6  10
BRANCH   6  12
HETATM   12  C   UNL     1     -42.404 -46.736  10.291  1.00  0.00     0.010 C 
HETATM   13  C   UNL     1     -43.387 -46.002   9.388  1.00  0.00     0.006 C 
ENDBRANCH   6  12
BRANCH   7  14
HETATM   14  O   UNL     1     -41.918 -43.342  11.958  1.00  0.00    -0.389 OA
HETATM   15  C   UNL     1     -42.878 -42.413  11.469  1.00  0.00     0.202 C 
ENDBRANCH   7  14
ENDBRANCH   1   5
BRANCH   2  16
HETATM   16  C   UNL     1     -38.668 -49.464  11.793  1.00  0.00     0.161 C 
BRANCH  16  17
HETATM   17  C   UNL     1     -39.616 -50.604  11.882  1.00  0.00     0.036 A 
HETATM   18  C   UNL     1     -39.687 -51.609  12.875  1.00  0.00     0.053 A 
HETATM   19  C   UNL     1     -40.681 -52.466  12.454  1.00  0.00     0.024 A 
HETATM   20  C   UNL     1     -41.202 -53.728  13.025  1.00  0.00     0.070 C 
HETATM   21  N   UNL     1     -41.155 -51.937  11.284  1.00  0.00    -0.305 N 
HETATM   22  N   UNL     1     -40.531 -50.804  10.917  1.00  0.00    -0.304 N 
HETATM   23  H   UNL     1     -41.893 -52.295  10.686  1.00  0.00     0.186 HD
ATOM     24  HN  UNL     1     -40.711 -50.227  10.095  1.00  0.00     0.186 HD
ENDBRANCH  16  17
ENDBRANCH   2  16
TORSDOF 6
ENDMDL
MODEL 8
REMARK VINA RESULT:      -5.6      3.254      4.290
REMARK  6 active torsions:
REMARK  status: ('A' for Active; 'I' for Inactive)
REMARK    1  A    between atoms: C_2  and  C_3 
REMARK    2  A    between atoms: C_3  and  C_4 
REMARK    3  A    between atoms: C_6  and  N_7 
REMARK       I    between atoms: N_7  and  C_8 
REMARK    4  A    between atoms: C_8  and  C_10 
REMARK    5  A    between atoms: C_10  and  C_11 
REMARK    6  A    between atoms: C_20  and  O_21 
ROOT
HETATM    1  N   UNL     1     -43.692 -49.853  12.692  1.00  0.00    -0.355 N 
HETATM    2  C   UNL     1     -42.677 -49.071  12.164  1.00  0.00     0.223 C 
HETATM    3  O   UNL     1     -41.487 -49.287  12.371  1.00  0.00    -0.273 OA
HETATM    4  H   UNL     1     -44.642 -49.621  12.422  1.00  0.00     0.162 HD
ENDROOT
BRANCH   1   5
HETATM    5  C   UNL     1     -43.396 -51.058  13.488  1.00  0.00     0.101 C 
HETATM    6  C   UNL     1     -44.568 -52.069  13.734  1.00  0.00     0.006 C 
HETATM    7  C   UNL     1     -44.092 -52.120  15.244  1.00  0.00     0.137 C 
HETATM    8  C   UNL     1     -43.253 -50.834  15.007  1.00  0.00     0.035 C 
HETATM    9  C   UNL     1     -43.768 -49.576  15.694  1.00  0.00     0.015 C 
BRANCH   6  10
HETATM   10  C   UNL     1     -44.333 -53.378  12.940  1.00  0.00     0.010 C 
HETATM   11  C   UNL     1     -45.253 -54.513  13.379  1.00  0.00     0.006 C 
ENDBRANCH   6  10
BRANCH   6  12
HETATM   12  C   UNL     1     -46.007 -51.519  13.579  1.00  0.00     0.010 C 
HETATM   13  C   UNL     1     -46.802 -51.529  14.879  1.00  0.00     0.006 C 
ENDBRANCH   6  12
BRANCH   7  14
HETATM   14  O   UNL     1     -43.337 -53.291  15.644  1.00  0.00    -0.389 OA
HETATM   15  C   UNL     1     -43.736 -53.904  16.865  1.00  0.00     0.202 C 
ENDBRANCH   7  14
ENDBRANCH   1   5
BRANCH   2  16
HETATM   16  C   UNL     1     -43.147 -47.923  11.301  1.00  0.00     0.161 C 
BRANCH  16  17
HETATM   17  C   UNL     1     -42.053 -46.946  11.068  1.00  0.00     0.036 A 
HETATM   18  C   UNL     1     -41.986 -45.591  11.473  1.00  0.00     0.053 A 
HETATM   19  C   UNL     1     -40.809 -45.111  10.942  1.00  0.00     0.024 A 
HETATM   20  C   UNL     1     -40.191 -43.767  10.970  1.00  0.00     0.070 C 
HETATM   21  N   UNL     1     -40.237 -46.170  10.289  1.00  0.00    -0.305 N 
HETATM   22  N   UNL     1     -40.968 -47.297  10.355  1.00  0.00    -0.304 N 
HETATM   23  H   UNL     1     -39.361 -46.194   9.779  1.00  0.00     0.186 HD
ATOM     24  HN  UNL     1     -40.750 -48.210   9.956  1.00  0.00     0.186 HD
ENDBRANCH  16  17
ENDBRANCH   2  16
TORSDOF 6
ENDMDL
MODEL 9
REMARK VINA RESULT:      -5.5      3.902      6.694
REMARK  6 active torsions:
REMARK  status: ('A' for Active; 'I' for Inactive)
REMARK    1  A    between atoms: C_2  and  C_3 
REMARK    2  A    between atoms: C_3  and  C_4 
REMARK    3  A    between atoms: C_6  and  N_7 
REMARK       I    between atoms: N_7  and  C_8 
REMARK    4  A    between atoms: C_8  and  C_10 
REMARK    5  A    between atoms: C_10  and  C_11 
REMARK    6  A    between atoms: C_20  and  O_21 
ROOT
HETATM    1  N   UNL     1     -42.082 -49.618  11.428  1.00  0.00    -0.355 N 
HETATM    2  C   UNL     1     -41.378 -50.713  11.902  1.00  0.00     0.223 C 
HETATM    3  O   UNL     1     -40.152 -50.760  11.936  1.00  0.00    -0.273 OA
HETATM    4  H   UNL     1     -43.094 -49.658  11.487  1.00  0.00     0.162 HD
ENDROOT
BRANCH   1   5
HETATM    5  C   UNL     1     -41.390 -48.391  10.994  1.00  0.00     0.101 C 
HETATM    6  C   UNL     1     -41.104 -47.298  12.081  1.00  0.00     0.006 C 
HETATM    7  C   UNL     1     -41.617 -46.236  11.025  1.00  0.00     0.137 C 
HETATM    8  C   UNL     1     -42.247 -47.389  10.194  1.00  0.00     0.035 C 
HETATM    9  C   UNL     1     -43.768 -47.444  10.191  1.00  0.00     0.015 C 
BRANCH   6  10
HETATM   10  C   UNL     1     -39.587 -47.220  12.387  1.00  0.00     0.010 C 
HETATM   11  C   UNL     1     -39.292 -46.770  13.814  1.00  0.00     0.006 C 
ENDBRANCH   6  10
BRANCH   6  12
HETATM   12  C   UNL     1     -41.976 -47.341  13.359  1.00  0.00     0.010 C 
HETATM   13  C   UNL     1     -42.868 -46.117  13.525  1.00  0.00     0.006 C 
ENDBRANCH   6  12
BRANCH   7  14
HETATM   14  O   UNL     1     -40.602 -45.459  10.342  1.00  0.00    -0.389 OA
HETATM   15  C   UNL     1     -40.467 -44.105  10.757  1.00  0.00     0.202 C 
ENDBRANCH   7  14
ENDBRANCH   1   5
BRANCH   2  16
HETATM   16  C   UNL     1     -42.239 -51.856  12.387  1.00  0.00     0.161 C 
BRANCH  16  17
HETATM   17  C   UNL     1     -41.407 -52.956  12.939  1.00  0.00     0.036 A 
HETATM   18  C   UNL     1     -41.042 -53.187  14.287  1.00  0.00     0.053 A 
HETATM   19  C   UNL     1     -40.205 -54.281  14.254  1.00  0.00     0.024 A 
HETATM   20  C   UNL     1     -39.460 -54.985  15.321  1.00  0.00     0.070 C 
HETATM   21  N   UNL     1     -40.132 -54.652  12.938  1.00  0.00    -0.305 N 
HETATM   22  N   UNL     1     -40.857 -53.869  12.120  1.00  0.00    -0.304 N 
HETATM   23  H   UNL     1     -39.609 -55.421  12.531  1.00  0.00     0.186 HD
ATOM     24  HN  UNL     1     -40.966 -53.950  11.109  1.00  0.00     0.186 HD
ENDBRANCH  16  17
ENDBRANCH   2  16
TORSDOF 6
ENDMDL
