MODEL 1
REMARK VINA RESULT:      -7.3      0.000      0.000
REMARK  4 active torsions:
REMARK  status: ('A' for Active; 'I' for Inactive)
REMARK       I    between atoms: C_2  and  N_4 
REMARK    1  A    between atoms: C_7  and  N_10 
REMARK       I    between atoms: N_10  and  C_11 
REMARK    2  A    between atoms: C_11  and  C_13 
REMARK    3  A    between atoms: C_13  and  N_14 
REMARK    4  A    between atoms: C_16  and  C_21 
ROOT
HETATM    1  N   UNL     1     -42.260 -49.794  12.013  1.00  0.00    -0.355 N 
HETATM    2  C   UNL     1     -41.829 -48.502  11.767  1.00  0.00     0.236 C 
HETATM    3  O   UNL     1     -41.520 -47.712  12.655  1.00  0.00    -0.272 OA
HETATM    4  H   UNL     1     -42.217 -50.445  11.238  1.00  0.00     0.162 HD
ENDROOT
BRANCH   2   5
HETATM    5  C   UNL     1     -41.836 -48.122  10.285  1.00  0.00     0.234 C 
BRANCH   5   6
HETATM    6  N   UNL     1     -43.028 -47.379   9.891  1.00  0.00    -0.315 N 
HETATM    7  C   UNL     1     -44.224 -48.052   9.699  1.00  0.00     0.110 A 
HETATM    8  C   UNL     1     -45.312 -47.436   9.202  1.00  0.00     0.063 A 
HETATM    9  C   UNL     1     -45.227 -46.016   8.896  1.00  0.00     0.023 A 
HETATM   10  C   UNL     1     -44.093 -45.333   9.104  1.00  0.00     0.075 A 
HETATM   11  C   UNL     1     -42.890 -46.017   9.650  1.00  0.00     0.247 A 
HETATM   12  O   UNL     1     -41.854 -45.381   9.832  1.00  0.00    -0.268 OA
BRANCH   8  13
HETATM   13  C   UNL     1     -46.580 -48.192   8.908  1.00  0.00     0.418 C 
HETATM   14  F   UNL     1     -46.598 -48.726   7.658  1.00  0.00    -0.166 F 
HETATM   15  F   UNL     1     -46.745 -49.226   9.773  1.00  0.00    -0.166 F 
HETATM   16  F   UNL     1     -47.681 -47.407   9.018  1.00  0.00    -0.166 F 
ENDBRANCH   8  13
ENDBRANCH   5   6
ENDBRANCH   2   5
BRANCH   1  17
HETATM   17  C   UNL     1     -42.327 -50.340  13.365  1.00  0.00     0.087 C 
HETATM   18  C   UNL     1     -41.996 -51.835  13.399  1.00  0.00     0.045 C 
HETATM   19  C   UNL     1     -43.118 -52.692  12.819  1.00  0.00     0.127 C 
HETATM   20  N   UNL     1     -44.416 -52.371  13.418  1.00  0.00    -0.352 N 
HETATM   21  C   UNL     1     -45.427 -53.303  13.626  1.00  0.00     0.215 C 
HETATM   22  C   UNL     1     -44.787 -50.958  13.414  1.00  0.00     0.127 C 
HETATM   23  C   UNL     1     -45.086 -54.757  13.423  1.00  0.00     0.117 C 
HETATM   24  O   UNL     1     -46.566 -52.982  13.969  1.00  0.00    -0.274 OA
HETATM   25  C   UNL     1     -43.693 -50.077  14.004  1.00  0.00     0.045 C 
ENDBRANCH   1  17
TORSDOF 4
ENDMDL
MODEL 2
REMARK VINA RESULT:      -7.0      5.110      7.343
REMARK  4 active torsions:
REMARK  status: ('A' for Active; 'I' for Inactive)
REMARK       I    between atoms: C_2  and  N_4 
REMARK    1  A    between atoms: C_7  and  N_10 
REMARK       I    between atoms: N_10  and  C_11 
REMARK    2  A    between atoms: C_11  and  C_13 
REMARK    3  A    between atoms: C_13  and  N_14 
REMARK    4  A    between atoms: C_16  and  C_21 
ROOT
HETATM    1  N   UNL     1     -42.861 -54.195  14.006  1.00  0.00    -0.355 N 
HETATM    2  C   UNL     1     -43.678 -55.112  14.645  1.00  0.00     0.236 C 
HETATM    3  O   UNL     1     -43.258 -55.962  15.426  1.00  0.00    -0.272 OA
HETATM    4  H   UNL     1     -43.312 -53.374  13.617  1.00  0.00     0.162 HD
ENDROOT
BRANCH   2   5
HETATM    5  C   UNL     1     -45.149 -55.015  14.237  1.00  0.00     0.234 C 
BRANCH   5   6
HETATM    6  N   UNL     1     -45.685 -53.662  14.345  1.00  0.00    -0.315 N 
HETATM    7  C   UNL     1     -46.124 -53.195  15.574  1.00  0.00     0.110 A 
HETATM    8  C   UNL     1     -46.752 -52.012  15.698  1.00  0.00     0.063 A 
HETATM    9  C   UNL     1     -46.938 -51.195  14.509  1.00  0.00     0.023 A 
HETATM   10  C   UNL     1     -46.494 -51.608  13.314  1.00  0.00     0.075 A 
HETATM   11  C   UNL     1     -45.803 -52.918  13.177  1.00  0.00     0.247 A 
HETATM   12  O   UNL     1     -45.404 -53.288  12.075  1.00  0.00    -0.268 OA
BRANCH   8  13
HETATM   13  C   UNL     1     -47.308 -51.550  17.019  1.00  0.00     0.418 C 
HETATM   14  F   UNL     1     -47.251 -52.510  17.980  1.00  0.00    -0.166 F 
HETATM   15  F   UNL     1     -46.615 -50.483  17.496  1.00  0.00    -0.166 F 
HETATM   16  F   UNL     1     -48.605 -51.166  16.922  1.00  0.00    -0.166 F 
ENDBRANCH   8  13
ENDBRANCH   5   6
ENDBRANCH   2   5
BRANCH   1  17
HETATM   17  C   UNL     1     -41.425 -54.133  14.261  1.00  0.00     0.087 C 
HETATM   18  C   UNL     1     -41.063 -53.016  15.244  1.00  0.00     0.045 C 
HETATM   19  C   UNL     1     -41.181 -51.629  14.618  1.00  0.00     0.127 C 
HETATM   20  N   UNL     1     -40.457 -51.540  13.347  1.00  0.00    -0.352 N 
HETATM   21  C   UNL     1     -39.829 -50.387  12.889  1.00  0.00     0.215 C 
HETATM   22  C   UNL     1     -40.761 -52.580  12.367  1.00  0.00     0.127 C 
HETATM   23  C   UNL     1     -39.703 -49.234  13.852  1.00  0.00     0.117 C 
HETATM   24  O   UNL     1     -39.377 -50.284  11.748  1.00  0.00    -0.274 OA
HETATM   25  C   UNL     1     -40.637 -53.978  12.958  1.00  0.00     0.045 C 
ENDBRANCH   1  17
TORSDOF 4
ENDMDL
MODEL 3
REMARK VINA RESULT:      -6.5      3.277      7.075
REMARK  4 active torsions:
REMARK  status: ('A' for Active; 'I' for Inactive)
REMARK       I    between atoms: C_2  and  N_4 
REMARK    1  A    between atoms: C_7  and  N_10 
REMARK       I    between atoms: N_10  and  C_11 
REMARK    2  A    between atoms: C_11  and  C_13 
REMARK    3  A    between atoms: C_13  and  N_14 
REMARK    4  A    between atoms: C_16  and  C_21 
ROOT
HETATM    1  N   UNL     1     -40.362 -50.644  13.333  1.00  0.00    -0.355 N 
HETATM    2  C   UNL     1     -40.573 -51.992  13.568  1.00  0.00     0.236 C 
HETATM    3  O   UNL     1     -40.087 -52.883  12.876  1.00  0.00    -0.272 OA
HETATM    4  H   UNL     1     -40.558 -50.011  14.100  1.00  0.00     0.162 HD
ENDROOT
BRANCH   2   5
HETATM    5  C   UNL     1     -41.527 -52.272  14.730  1.00  0.00     0.234 C 
BRANCH   5   6
HETATM    6  N   UNL     1     -42.776 -52.896  14.308  1.00  0.00    -0.315 N 
HETATM    7  C   UNL     1     -43.779 -52.116  13.754  1.00  0.00     0.110 A 
HETATM    8  C   UNL     1     -44.996 -52.619  13.479  1.00  0.00     0.063 A 
HETATM    9  C   UNL     1     -45.243 -54.028  13.742  1.00  0.00     0.023 A 
HETATM   10  C   UNL     1     -44.280 -54.812  14.245  1.00  0.00     0.075 A 
HETATM   11  C   UNL     1     -42.935 -54.255  14.553  1.00  0.00     0.247 A 
HETATM   12  O   UNL     1     -42.062 -54.983  15.019  1.00  0.00    -0.268 OA
BRANCH   8  13
HETATM   13  C   UNL     1     -46.111 -51.747  12.964  1.00  0.00     0.418 C 
HETATM   14  F   UNL     1     -46.869 -52.363  12.019  1.00  0.00    -0.166 F 
HETATM   15  F   UNL     1     -46.956 -51.391  13.966  1.00  0.00    -0.166 F 
HETATM   16  F   UNL     1     -45.649 -50.598  12.412  1.00  0.00    -0.166 F 
ENDBRANCH   8  13
ENDBRANCH   5   6
ENDBRANCH   2   5
BRANCH   1  17
HETATM   17  C   UNL     1     -39.485 -50.176  12.264  1.00  0.00     0.087 C 
HETATM   18  C   UNL     1     -38.610 -49.000  12.710  1.00  0.00     0.045 C 
HETATM   19  C   UNL     1     -39.406 -47.706  12.851  1.00  0.00     0.127 C 
HETATM   20  N   UNL     1     -40.199 -47.418  11.652  1.00  0.00    -0.352 N 
HETATM   21  C   UNL     1     -40.470 -46.135  11.190  1.00  0.00     0.215 C 
HETATM   22  C   UNL     1     -41.054 -48.503  11.179  1.00  0.00     0.127 C 
HETATM   23  C   UNL     1     -39.729 -44.991  11.834  1.00  0.00     0.117 C 
HETATM   24  O   UNL     1     -41.276 -45.911  10.287  1.00  0.00    -0.274 OA
HETATM   25  C   UNL     1     -40.284 -49.807  11.012  1.00  0.00     0.045 C 
ENDBRANCH   1  17
TORSDOF 4
ENDMDL
MODEL 4
REMARK VINA RESULT:      -6.4      4.609      7.250
REMARK  4 active torsions:
REMARK  status: ('A' for Active; 'I' for Inactive)
REMARK       I    between atoms: C_2  and  N_4 
REMARK    1  A    between atoms: C_7  and  N_10 
REMARK       I    between atoms: N_10  and  C_11 
REMARK    2  A    between atoms: C_11  and  C_13 
REMARK    3  A    between atoms: C_13  and  N_14 
REMARK    4  A    between atoms: C_16  and  C_21 
ROOT
HETATM    1  N   UNL     1     -42.051 -53.891  15.335  1.00  0.00    -0.355 N 
HETATM    2  C   UNL     1     -43.147 -54.659  15.690  1.00  0.00     0.236 C 
HETATM    3  O   UNL     1     -43.423 -55.730  15.155  1.00  0.00    -0.272 OA
HETATM    4  H   UNL     1     -41.748 -53.191  16.004  1.00  0.00     0.162 HD
ENDROOT
BRANCH   2   5
HETATM    5  C   UNL     1     -44.025 -54.019  16.767  1.00  0.00     0.234 C 
BRANCH   5   6
HETATM    6  N   UNL     1     -45.120 -53.228  16.216  1.00  0.00    -0.315 N 
HETATM    7  C   UNL     1     -45.126 -52.909  14.868  1.00  0.00     0.110 A 
HETATM    8  C   UNL     1     -46.036 -52.069  14.343  1.00  0.00     0.063 A 
HETATM    9  C   UNL     1     -47.057 -51.515  15.218  1.00  0.00     0.023 A 
HETATM   10  C   UNL     1     -47.095 -51.834  16.519  1.00  0.00     0.075 A 
HETATM   11  C   UNL     1     -46.086 -52.760  17.100  1.00  0.00     0.247 A 
HETATM   12  O   UNL     1     -46.128 -53.041  18.296  1.00  0.00    -0.268 OA
BRANCH   8  13
HETATM   13  C   UNL     1     -45.982 -51.652  12.897  1.00  0.00     0.418 C 
HETATM   14  F   UNL     1     -47.166 -51.161  12.445  1.00  0.00    -0.166 F 
HETATM   15  F   UNL     1     -45.059 -50.674  12.704  1.00  0.00    -0.166 F 
HETATM   16  F   UNL     1     -45.643 -52.680  12.081  1.00  0.00    -0.166 F 
ENDBRANCH   8  13
ENDBRANCH   5   6
ENDBRANCH   2   5
BRANCH   1  17
HETATM   17  C   UNL     1     -41.096 -54.331  14.323  1.00  0.00     0.087 C 
HETATM   18  C   UNL     1     -39.648 -54.055  14.738  1.00  0.00     0.045 C 
HETATM   19  C   UNL     1     -39.295 -52.572  14.667  1.00  0.00     0.127 C 
HETATM   20  N   UNL     1     -39.647 -51.989  13.369  1.00  0.00    -0.352 N 
HETATM   21  C   UNL     1     -38.930 -50.968  12.756  1.00  0.00     0.215 C 
HETATM   22  C   UNL     1     -41.018 -52.218  12.919  1.00  0.00     0.127 C 
HETATM   23  C   UNL     1     -37.599 -50.594  13.357  1.00  0.00     0.117 C 
HETATM   24  O   UNL     1     -39.338 -50.377  11.756  1.00  0.00    -0.274 OA
HETATM   25  C   UNL     1     -41.396 -53.693  12.964  1.00  0.00     0.045 C 
ENDBRANCH   1  17
TORSDOF 4
ENDMDL
MODEL 5
REMARK VINA RESULT:      -6.3      4.838      5.960
REMARK  4 active torsions:
REMARK  status: ('A' for Active; 'I' for Inactive)
REMARK       I    between atoms: C_2  and  N_4 
REMARK    1  A    between atoms: C_7  and  N_10 
REMARK       I    between atoms: N_10  and  C_11 
REMARK    2  A    between atoms: C_11  and  C_13 
REMARK    3  A    between atoms: C_13  and  N_14 
REMARK    4  A    between atoms: C_16  and  C_21 
ROOT
HETATM    1  N   UNL     1     -40.979 -52.664  13.822  1.00  0.00    -0.355 N 
HETATM    2  C   UNL     1     -39.652 -53.057  13.832  1.00  0.00     0.236 C 
HETATM    3  O   UNL     1     -39.276 -54.173  13.480  1.00  0.00    -0.272 OA
HETATM    4  H   UNL     1     -41.160 -51.667  13.851  1.00  0.00     0.162 HD
ENDROOT
BRANCH   2   5
HETATM    5  C   UNL     1     -38.700 -51.998  14.387  1.00  0.00     0.234 C 
BRANCH   5   6
HETATM    6  N   UNL     1     -38.525 -50.860  13.491  1.00  0.00    -0.315 N 
HETATM    7  C   UNL     1     -39.333 -49.743  13.634  1.00  0.00     0.110 A 
HETATM    8  C   UNL     1     -39.304 -48.731  12.748  1.00  0.00     0.063 A 
HETATM    9  C   UNL     1     -38.371 -48.806  11.635  1.00  0.00     0.023 A 
HETATM   10  C   UNL     1     -37.554 -49.859  11.493  1.00  0.00     0.075 A 
HETATM   11  C   UNL     1     -37.589 -50.980  12.470  1.00  0.00     0.247 A 
HETATM   12  O   UNL     1     -36.838 -51.942  12.326  1.00  0.00    -0.268 OA
BRANCH   8  13
HETATM   13  C   UNL     1     -40.249 -47.563  12.856  1.00  0.00     0.418 C 
HETATM   14  F   UNL     1     -41.179 -47.725  13.834  1.00  0.00    -0.166 F 
HETATM   15  F   UNL     1     -39.580 -46.417  13.145  1.00  0.00    -0.166 F 
HETATM   16  F   UNL     1     -40.925 -47.344  11.701  1.00  0.00    -0.166 F 
ENDBRANCH   8  13
ENDBRANCH   5   6
ENDBRANCH   2   5
BRANCH   1  17
HETATM   17  C   UNL     1     -42.040 -53.539  13.330  1.00  0.00     0.087 C 
HETATM   18  C   UNL     1     -43.087 -52.774  12.515  1.00  0.00     0.045 C 
HETATM   19  C   UNL     1     -43.983 -51.903  13.392  1.00  0.00     0.127 C 
HETATM   20  N   UNL     1     -44.556 -52.659  14.509  1.00  0.00    -0.352 N 
HETATM   21  C   UNL     1     -45.815 -52.416  15.047  1.00  0.00     0.215 C 
HETATM   22  C   UNL     1     -43.604 -53.410  15.324  1.00  0.00     0.127 C 
HETATM   23  C   UNL     1     -46.720 -51.469  14.301  1.00  0.00     0.117 C 
HETATM   24  O   UNL     1     -46.205 -52.943  16.089  1.00  0.00    -0.274 OA
HETATM   25  C   UNL     1     -42.705 -54.302  14.478  1.00  0.00     0.045 C 
ENDBRANCH   1  17
TORSDOF 4
ENDMDL
MODEL 6
REMARK VINA RESULT:      -6.2      2.367      3.024
REMARK  4 active torsions:
REMARK  status: ('A' for Active; 'I' for Inactive)
REMARK       I    between atoms: C_2  and  N_4 
REMARK    1  A    between atoms: C_7  and  N_10 
REMARK       I    between atoms: N_10  and  C_11 
REMARK    2  A    between atoms: C_11  and  C_13 
REMARK    3  A    between atoms: C_13  and  N_14 
REMARK    4  A    between atoms: C_16  and  C_21 
ROOT
HETATM    1  N   UNL     1     -42.391 -51.024  12.528  1.00  0.00    -0.355 N 
HETATM    2  C   UNL     1     -41.653 -49.981  11.994  1.00  0.00     0.236 C 
HETATM    3  O   UNL     1     -40.756 -50.141  11.170  1.00  0.00    -0.272 OA
HETATM    4  H   UNL     1     -43.273 -50.782  12.966  1.00  0.00     0.162 HD
ENDROOT
BRANCH   2   5
HETATM    5  C   UNL     1     -42.011 -48.613  12.576  1.00  0.00     0.234 C 
BRANCH   5   6
HETATM    6  N   UNL     1     -42.499 -47.674  11.571  1.00  0.00    -0.315 N 
HETATM    7  C   UNL     1     -43.683 -47.940  10.901  1.00  0.00     0.110 A 
HETATM    8  C   UNL     1     -44.101 -47.180   9.873  1.00  0.00     0.063 A 
HETATM    9  C   UNL     1     -43.298 -46.030   9.486  1.00  0.00     0.023 A 
HETATM   10  C   UNL     1     -42.167 -45.731  10.139  1.00  0.00     0.075 A 
HETATM   11  C   UNL     1     -41.703 -46.574  11.274  1.00  0.00     0.247 A 
HETATM   12  O   UNL     1     -40.661 -46.292  11.861  1.00  0.00    -0.268 OA
BRANCH   8  13
HETATM   13  C   UNL     1     -45.339 -47.527   9.089  1.00  0.00     0.418 C 
HETATM   14  F   UNL     1     -46.179 -48.352   9.768  1.00  0.00    -0.166 F 
HETATM   15  F   UNL     1     -46.054 -46.412   8.785  1.00  0.00    -0.166 F 
HETATM   16  F   UNL     1     -45.047 -48.140   7.916  1.00  0.00    -0.166 F 
ENDBRANCH   8  13
ENDBRANCH   5   6
ENDBRANCH   2   5
BRANCH   1  17
HETATM   17  C   UNL     1     -42.193 -52.406  12.103  1.00  0.00     0.087 C 
HETATM   18  C   UNL     1     -43.270 -53.341  12.661  1.00  0.00     0.045 C 
HETATM   19  C   UNL     1     -43.097 -53.600  14.155  1.00  0.00     0.127 C 
HETATM   20  N   UNL     1     -41.733 -54.027  14.481  1.00  0.00    -0.352 N 
HETATM   21  C   UNL     1     -41.420 -54.917  15.502  1.00  0.00     0.215 C 
HETATM   22  C   UNL     1     -40.661 -53.173  13.975  1.00  0.00     0.127 C 
HETATM   23  C   UNL     1     -42.562 -55.644  16.165  1.00  0.00     0.117 C 
HETATM   24  O   UNL     1     -40.264 -55.127  15.870  1.00  0.00    -0.274 OA
HETATM   25  C   UNL     1     -40.797 -52.908  12.481  1.00  0.00     0.045 C 
ENDBRANCH   1  17
TORSDOF 4
ENDMDL
MODEL 7
REMARK VINA RESULT:      -6.1      3.335      7.140
REMARK  4 active torsions:
REMARK  status: ('A' for Active; 'I' for Inactive)
REMARK       I    between atoms: C_2  and  N_4 
REMARK    1  A    between atoms: C_7  and  N_10 
REMARK       I    between atoms: N_10  and  C_11 
REMARK    2  A    between atoms: C_11  and  C_13 
REMARK    3  A    between atoms: C_13  and  N_14 
REMARK    4  A    between atoms: C_16  and  C_21 
ROOT
HETATM    1  N   UNL     1     -41.486 -49.678  12.610  1.00  0.00    -0.355 N 
HETATM    2  C   UNL     1     -41.145 -50.995  12.862  1.00  0.00     0.236 C 
HETATM    3  O   UNL     1     -40.217 -51.324  13.598  1.00  0.00    -0.272 OA
HETATM    4  H   UNL     1     -42.413 -49.510  12.235  1.00  0.00     0.162 HD
ENDROOT
BRANCH   2   5
HETATM    5  C   UNL     1     -41.986 -52.009  12.085  1.00  0.00     0.234 C 
BRANCH   5   6
HETATM    6  N   UNL     1     -42.994 -52.667  12.909  1.00  0.00    -0.315 N 
HETATM    7  C   UNL     1     -44.198 -52.028  13.162  1.00  0.00     0.110 A 
HETATM    8  C   UNL     1     -45.099 -52.531  14.025  1.00  0.00     0.063 A 
HETATM    9  C   UNL     1     -44.805 -53.797  14.679  1.00  0.00     0.023 A 
HETATM   10  C   UNL     1     -43.663 -54.453  14.426  1.00  0.00     0.075 A 
HETATM   11  C   UNL     1     -42.666 -53.894  13.474  1.00  0.00     0.247 A 
HETATM   12  O   UNL     1     -41.621 -54.502  13.255  1.00  0.00    -0.268 OA
BRANCH   8  13
HETATM   13  C   UNL     1     -46.363 -51.787  14.367  1.00  0.00     0.418 C 
HETATM   14  F   UNL     1     -46.954 -51.226  13.279  1.00  0.00    -0.166 F 
HETATM   15  F   UNL     1     -47.283 -52.618  14.922  1.00  0.00    -0.166 F 
HETATM   16  F   UNL     1     -46.145 -50.789  15.257  1.00  0.00    -0.166 F 
ENDBRANCH   8  13
ENDBRANCH   5   6
ENDBRANCH   2   5
BRANCH   1  17
HETATM   17  C   UNL     1     -40.795 -48.565  13.255  1.00  0.00     0.087 C 
HETATM   18  C   UNL     1     -41.765 -47.469  13.707  1.00  0.00     0.045 C 
HETATM   19  C   UNL     1     -42.319 -46.664  12.535  1.00  0.00     0.127 C 
HETATM   20  N   UNL     1     -41.253 -46.170  11.659  1.00  0.00    -0.352 N 
HETATM   21  C   UNL     1     -41.310 -44.964  10.969  1.00  0.00     0.215 C 
HETATM   22  C   UNL     1     -40.296 -47.171  11.194  1.00  0.00     0.127 C 
HETATM   23  C   UNL     1     -42.433 -44.019  11.312  1.00  0.00     0.117 C 
HETATM   24  O   UNL     1     -40.487 -44.651  10.109  1.00  0.00    -0.274 OA
HETATM   25  C   UNL     1     -39.712 -47.982  12.344  1.00  0.00     0.045 C 
ENDBRANCH   1  17
TORSDOF 4
ENDMDL
MODEL 8
REMARK VINA RESULT:      -6.0      4.637      8.206
REMARK  4 active torsions:
REMARK  status: ('A' for Active; 'I' for Inactive)
REMARK       I    between atoms: C_2  and  N_4 
REMARK    1  A    between atoms: C_7  and  N_10 
REMARK       I    between atoms: N_10  and  C_11 
REMARK    2  A    between atoms: C_11  and  C_13 
REMARK    3  A    between atoms: C_13  and  N_14 
REMARK    4  A    between atoms: C_16  and  C_21 
ROOT
HETATM    1  N   UNL     1     -42.101 -50.113  11.856  1.00  0.00    -0.355 N 
HETATM    2  C   UNL     1     -41.181 -51.021  12.354  1.00  0.00     0.236 C 
HETATM    3  O   UNL     1     -40.198 -50.693  13.013  1.00  0.00    -0.272 OA
HETATM    4  H   UNL     1     -43.004 -50.483  11.581  1.00  0.00     0.162 HD
ENDROOT
BRANCH   2   5
HETATM    5  C   UNL     1     -41.463 -52.468  11.948  1.00  0.00     0.234 C 
BRANCH   5   6
HETATM    6  N   UNL     1     -41.995 -53.275  13.041  1.00  0.00    -0.315 N 
HETATM    7  C   UNL     1     -41.142 -53.742  14.028  1.00  0.00     0.110 A 
HETATM    8  C   UNL     1     -41.559 -54.601  14.976  1.00  0.00     0.063 A 
HETATM    9  C   UNL     1     -42.953 -55.016  14.974  1.00  0.00     0.023 A 
HETATM   10  C   UNL     1     -43.808 -54.553  14.051  1.00  0.00     0.075 A 
HETATM   11  C   UNL     1     -43.345 -53.606  13.001  1.00  0.00     0.247 A 
HETATM   12  O   UNL     1     -44.137 -53.192  12.157  1.00  0.00    -0.268 OA
BRANCH   8  13
HETATM   13  C   UNL     1     -40.607 -55.178  15.990  1.00  0.00     0.418 C 
HETATM   14  F   UNL     1     -41.133 -56.232  16.667  1.00  0.00    -0.166 F 
HETATM   15  F   UNL     1     -39.472 -55.628  15.395  1.00  0.00    -0.166 F 
HETATM   16  F   UNL     1     -40.230 -54.262  16.916  1.00  0.00    -0.166 F 
ENDBRANCH   8  13
ENDBRANCH   5   6
ENDBRANCH   2   5
BRANCH   1  17
HETATM   17  C   UNL     1     -42.000 -48.683  12.132  1.00  0.00     0.087 C 
HETATM   18  C   UNL     1     -43.376 -48.027  12.279  1.00  0.00     0.045 C 
HETATM   19  C   UNL     1     -44.100 -47.888  10.943  1.00  0.00     0.127 C 
HETATM   20  N   UNL     1     -43.258 -47.248   9.929  1.00  0.00    -0.352 N 
HETATM   21  C   UNL     1     -43.746 -46.421   8.924  1.00  0.00     0.215 C 
HETATM   22  C   UNL     1     -41.932 -47.831   9.742  1.00  0.00     0.127 C 
HETATM   23  C   UNL     1     -45.187 -45.989   9.015  1.00  0.00     0.117 C 
HETATM   24  O   UNL     1     -43.049 -46.035   7.984  1.00  0.00    -0.274 OA
HETATM   25  C   UNL     1     -41.176 -47.968  11.058  1.00  0.00     0.045 C 
ENDBRANCH   1  17
TORSDOF 4
ENDMDL
MODEL 9
REMARK VINA RESULT:      -5.9      4.112      5.234
REMARK  4 active torsions:
REMARK  status: ('A' for Active; 'I' for Inactive)
REMARK       I    between atoms: C_2  and  N_4 
REMARK    1  A    between atoms: C_7  and  N_10 
REMARK       I    between atoms: N_10  and  C_11 
REMARK    2  A    between atoms: C_11  and  C_13 
REMARK    3  A    between atoms: C_13  and  N_14 
REMARK    4  A    between atoms: C_16  and  C_21 
ROOT
HETATM    1  N   UNL     1     -40.121 -51.771  13.511  1.00  0.00    -0.355 N 
HETATM    2  C   UNL     1     -39.005 -51.002  13.227  1.00  0.00     0.236 C 
HETATM    3  O   UNL     1     -38.324 -51.148  12.215  1.00  0.00    -0.272 OA
HETATM    4  H   UNL     1     -40.767 -51.401  14.200  1.00  0.00     0.162 HD
ENDROOT
BRANCH   2   5
HETATM    5  C   UNL     1     -38.655 -49.996  14.324  1.00  0.00     0.234 C 
BRANCH   5   6
HETATM    6  N   UNL     1     -38.972 -48.619  13.960  1.00  0.00    -0.315 N 
HETATM    7  C   UNL     1     -39.805 -48.369  12.881  1.00  0.00     0.110 A 
HETATM    8  C   UNL     1     -40.015 -47.122  12.423  1.00  0.00     0.063 A 
HETATM    9  C   UNL     1     -39.373 -46.011  13.109  1.00  0.00     0.023 A 
HETATM   10  C   UNL     1     -38.590 -46.222  14.176  1.00  0.00     0.075 A 
HETATM   11  C   UNL     1     -38.355 -47.602  14.680  1.00  0.00     0.247 A 
HETATM   12  O   UNL     1     -37.631 -47.783  15.657  1.00  0.00    -0.268 OA
BRANCH   8  13
HETATM   13  C   UNL     1     -40.845 -46.864  11.194  1.00  0.00     0.418 C 
HETATM   14  F   UNL     1     -42.052 -46.308  11.480  1.00  0.00    -0.166 F 
HETATM   15  F   UNL     1     -40.215 -46.006  10.349  1.00  0.00    -0.166 F 
HETATM   16  F   UNL     1     -41.089 -47.998  10.493  1.00  0.00    -0.166 F 
ENDBRANCH   8  13
ENDBRANCH   5   6
ENDBRANCH   2   5
BRANCH   1  17
HETATM   17  C   UNL     1     -40.611 -52.789  12.588  1.00  0.00     0.087 C 
HETATM   18  C   UNL     1     -41.979 -52.424  12.002  1.00  0.00     0.045 C 
HETATM   19  C   UNL     1     -43.105 -52.568  13.021  1.00  0.00     0.127 C 
HETATM   20  N   UNL     1     -43.086 -53.879  13.676  1.00  0.00    -0.352 N 
HETATM   21  C   UNL     1     -44.226 -54.554  14.098  1.00  0.00     0.215 C 
HETATM   22  C   UNL     1     -41.807 -54.282  14.255  1.00  0.00     0.127 C 
HETATM   23  C   UNL     1     -45.560 -54.005  13.663  1.00  0.00     0.117 C 
HETATM   24  O   UNL     1     -44.178 -55.567  14.796  1.00  0.00    -0.274 OA
HETATM   25  C   UNL     1     -40.663 -54.165  13.255  1.00  0.00     0.045 C 
ENDBRANCH   1  17
TORSDOF 4
ENDMDL
