MODEL 1
REMARK VINA RESULT:      -6.4      0.000      0.000
REMARK  7 active torsions:
REMARK  status: ('A' for Active; 'I' for Inactive)
REMARK    1  A    between atoms: N_6  and  C_7 
REMARK    2  A    between atoms: C_7  and  C_8 
REMARK    3  A    between atoms: C_8  and  O_9 
REMARK    4  A    between atoms: C_8  and  C_10 
REMARK    5  A    between atoms: C_10  and  O_11 
REMARK    6  A    between atoms: O_11  and  C_12 
REMARK    7  A    between atoms: C_12  and  C_13 
ROOT
HETATM    1  C   UNL     1     -41.233 -52.570  12.224  1.00  0.00     0.160 C 
ENDROOT
BRANCH   1   2
HETATM    2  C   UNL     1     -40.365 -51.343  12.574  1.00  0.00     0.166 C 
BRANCH   2   3
HETATM    3  N   UNL     1     -40.948 -50.078  12.134  1.00  0.00    -0.307 N 
HETATM    4  C   UNL     1     -42.305 -49.929  12.069  1.00  0.00     0.186 A 
HETATM    5  N   UNL     1     -42.914 -48.846  11.722  1.00  0.00    -0.355 N 
HETATM    6  C   UNL     1     -42.138 -47.762  11.395  1.00  0.00     0.017 A 
ATOM      7  HN  UNL     1     -43.933 -48.797  11.693  1.00  0.00     0.166 HD
HETATM    8  C   UNL     1     -42.918 -46.526  11.026  1.00  0.00     0.069 C 
HETATM    9  C   UNL     1     -40.791 -47.773  11.393  1.00  0.00     0.028 A 
HETATM   10  C   UNL     1     -40.116 -49.043  11.766  1.00  0.00     0.256 A 
HETATM   11  C   UNL     1     -39.933 -46.596  11.046  1.00  0.00     0.056 C 
HETATM   12  O   UNL     1     -38.890 -49.147  11.758  1.00  0.00    -0.267 OA
ENDBRANCH   2   3
ENDBRANCH   1   2
BRANCH   1  13
HETATM   13  O   UNL     1     -40.564 -53.495  11.364  1.00  0.00    -0.392 OA
HETATM   14  H   UNL     1     -39.613 -53.501  11.590  1.00  0.00     0.210 HD
ENDBRANCH   1  13
BRANCH   1  15
HETATM   15  C   UNL     1     -41.649 -53.307  13.503  1.00  0.00     0.201 C 
BRANCH  15  16
HETATM   16  O   UNL     1     -42.853 -54.021  13.254  1.00  0.00    -0.384 OA
BRANCH  16  17
HETATM   17  C   UNL     1     -43.786 -53.273  12.475  1.00  0.00     0.208 C 
BRANCH  17  18
HETATM   18  C   UNL     1     -44.938 -52.930  13.383  1.00  0.00    -0.013 A 
HETATM   19  C   UNL     1     -45.181 -51.569  13.662  1.00  0.00     0.011 A 
HETATM   20  C   UNL     1     -46.208 -51.180  14.522  1.00  0.00     0.001 A 
HETATM   21  C   UNL     1     -47.015 -52.143  15.117  1.00  0.00     0.002 A 
HETATM   22  C   UNL     1     -46.799 -53.494  14.844  1.00  0.00     0.024 A 
HETATM   23  C   UNL     1     -45.770 -53.888  13.980  1.00  0.00     0.042 A 
HETATM   24 CL   UNL     1     -45.579 -55.582  13.700  1.00  0.00    -0.084 Cl
ENDBRANCH  17  18
ENDBRANCH  16  17
ENDBRANCH  15  16
ENDBRANCH   1  15
TORSDOF 7
ENDMDL
MODEL 2
REMARK VINA RESULT:      -6.3      1.611      1.981
REMARK  7 active torsions:
REMARK  status: ('A' for Active; 'I' for Inactive)
REMARK    1  A    between atoms: N_6  and  C_7 
REMARK    2  A    between atoms: C_7  and  C_8 
REMARK    3  A    between atoms: C_8  and  O_9 
REMARK    4  A    between atoms: C_8  and  C_10 
REMARK    5  A    between atoms: C_10  and  O_11 
REMARK    6  A    between atoms: O_11  and  C_12 
REMARK    7  A    between atoms: C_12  and  C_13 
ROOT
HETATM    1  C   UNL     1     -41.068 -52.619  12.343  1.00  0.00     0.160 C 
ENDROOT
BRANCH   1   2
HETATM    2  C   UNL     1     -40.005 -51.635  12.875  1.00  0.00     0.166 C 
BRANCH   2   3
HETATM    3  N   UNL     1     -40.170 -50.276  12.365  1.00  0.00    -0.307 N 
HETATM    4  C   UNL     1     -40.774 -50.059  11.158  1.00  0.00     0.186 A 
HETATM    5  N   UNL     1     -40.993 -48.899  10.639  1.00  0.00    -0.355 N 
HETATM    6  C   UNL     1     -40.588 -47.799  11.355  1.00  0.00     0.017 A 
ATOM      7  HN  UNL     1     -41.449 -48.802   9.732  1.00  0.00     0.166 HD
HETATM    8  C   UNL     1     -40.899 -46.479  10.697  1.00  0.00     0.069 C 
HETATM    9  C   UNL     1     -39.961 -47.865  12.545  1.00  0.00     0.028 A 
HETATM   10  C   UNL     1     -39.693 -49.215  13.105  1.00  0.00     0.256 A 
HETATM   11  C   UNL     1     -39.520 -46.674  13.339  1.00  0.00     0.056 C 
HETATM   12  O   UNL     1     -39.097 -49.363  14.171  1.00  0.00    -0.267 OA
ENDBRANCH   2   3
ENDBRANCH   1   2
BRANCH   1  13
HETATM   13  O   UNL     1     -40.529 -53.577  11.430  1.00  0.00    -0.392 OA
HETATM   14  H   UNL     1     -41.244 -53.883  10.838  1.00  0.00     0.210 HD
ENDBRANCH   1  13
BRANCH   1  15
HETATM   15  C   UNL     1     -41.723 -53.372  13.508  1.00  0.00     0.201 C 
BRANCH  15  16
HETATM   16  O   UNL     1     -42.875 -54.052  13.028  1.00  0.00    -0.384 OA
BRANCH  16  17
HETATM   17  C   UNL     1     -43.778 -53.189  12.338  1.00  0.00     0.208 C 
BRANCH  17  18
HETATM   18  C   UNL     1     -44.826 -52.766  13.334  1.00  0.00    -0.013 A 
HETATM   19  C   UNL     1     -45.776 -53.724  13.745  1.00  0.00     0.011 A 
HETATM   20  C   UNL     1     -46.796 -53.394  14.637  1.00  0.00     0.001 A 
HETATM   21  C   UNL     1     -46.884 -52.101  15.139  1.00  0.00     0.002 A 
HETATM   22  C   UNL     1     -45.947 -51.142  14.756  1.00  0.00     0.024 A 
HETATM   23  C   UNL     1     -44.920 -51.470  13.862  1.00  0.00     0.042 A 
HETATM   24 CL   UNL     1     -43.805 -50.219  13.445  1.00  0.00    -0.084 Cl
ENDBRANCH  17  18
ENDBRANCH  16  17
ENDBRANCH  15  16
ENDBRANCH   1  15
TORSDOF 7
ENDMDL
MODEL 3
REMARK VINA RESULT:      -6.2      2.076      2.588
REMARK  7 active torsions:
REMARK  status: ('A' for Active; 'I' for Inactive)
REMARK    1  A    between atoms: N_6  and  C_7 
REMARK    2  A    between atoms: C_7  and  C_8 
REMARK    3  A    between atoms: C_8  and  O_9 
REMARK    4  A    between atoms: C_8  and  C_10 
REMARK    5  A    between atoms: C_10  and  O_11 
REMARK    6  A    between atoms: O_11  and  C_12 
REMARK    7  A    between atoms: C_12  and  C_13 
ROOT
HETATM    1  C   UNL     1     -40.093 -53.748  13.368  1.00  0.00     0.160 C 
ENDROOT
BRANCH   1   2
HETATM    2  C   UNL     1     -39.704 -52.335  13.851  1.00  0.00     0.166 C 
BRANCH   2   3
HETATM    3  N   UNL     1     -40.260 -51.268  13.023  1.00  0.00    -0.307 N 
HETATM    4  C   UNL     1     -39.599 -50.848  11.902  1.00  0.00     0.186 A 
HETATM    5  N   UNL     1     -40.021 -49.937  11.093  1.00  0.00    -0.355 N 
HETATM    6  C   UNL     1     -41.227 -49.346  11.380  1.00  0.00     0.017 A 
ATOM      7  HN  UNL     1     -39.481 -49.667  10.271  1.00  0.00     0.166 HD
HETATM    8  C   UNL     1     -41.668 -48.310  10.377  1.00  0.00     0.069 C 
HETATM    9  C   UNL     1     -41.974 -49.645  12.460  1.00  0.00     0.028 A 
HETATM   10  C   UNL     1     -41.448 -50.675  13.393  1.00  0.00     0.256 A 
HETATM   11  C   UNL     1     -43.293 -49.013  12.781  1.00  0.00     0.056 C 
HETATM   12  O   UNL     1     -42.052 -50.983  14.420  1.00  0.00    -0.267 OA
ENDBRANCH   2   3
ENDBRANCH   1   2
BRANCH   1  13
HETATM   13  O   UNL     1     -38.983 -54.648  13.338  1.00  0.00    -0.392 OA
HETATM   14  H   UNL     1     -38.870 -55.036  14.228  1.00  0.00     0.210 HD
ENDBRANCH   1  13
BRANCH   1  15
HETATM   15  C   UNL     1     -41.176 -54.340  14.278  1.00  0.00     0.201 C 
BRANCH  15  16
HETATM   16  O   UNL     1     -42.433 -54.242  13.623  1.00  0.00    -0.384 OA
BRANCH  16  17
HETATM   17  C   UNL     1     -43.535 -54.443  14.509  1.00  0.00     0.208 C 
BRANCH  17  18
HETATM   18  C   UNL     1     -44.575 -53.413  14.154  1.00  0.00    -0.013 A 
HETATM   19  C   UNL     1     -44.991 -53.326  12.810  1.00  0.00     0.011 A 
HETATM   20  C   UNL     1     -45.924 -52.373  12.402  1.00  0.00     0.001 A 
HETATM   21  C   UNL     1     -46.463 -51.491  13.332  1.00  0.00     0.002 A 
HETATM   22  C   UNL     1     -46.075 -51.569  14.669  1.00  0.00     0.024 A 
HETATM   23  C   UNL     1     -45.140 -52.526  15.082  1.00  0.00     0.042 A 
HETATM   24 CL   UNL     1     -44.721 -52.549  16.758  1.00  0.00    -0.084 Cl
ENDBRANCH  17  18
ENDBRANCH  16  17
ENDBRANCH  15  16
ENDBRANCH   1  15
TORSDOF 7
ENDMDL
MODEL 4
REMARK VINA RESULT:      -6.1      1.410      1.768
REMARK  7 active torsions:
REMARK  status: ('A' for Active; 'I' for Inactive)
REMARK    1  A    between atoms: N_6  and  C_7 
REMARK    2  A    between atoms: C_7  and  C_8 
REMARK    3  A    between atoms: C_8  and  O_9 
REMARK    4  A    between atoms: C_8  and  C_10 
REMARK    5  A    between atoms: C_10  and  O_11 
REMARK    6  A    between atoms: O_11  and  C_12 
REMARK    7  A    between atoms: C_12  and  C_13 
ROOT
HETATM    1  C   UNL     1     -40.801 -51.281  11.770  1.00  0.00     0.160 C 
ENDROOT
BRANCH   1   2
HETATM    2  C   UNL     1     -41.467 -50.120  12.538  1.00  0.00     0.166 C 
BRANCH   2   3
HETATM    3  N   UNL     1     -41.002 -48.803  12.110  1.00  0.00    -0.307 N 
HETATM    4  C   UNL     1     -41.279 -48.348  10.852  1.00  0.00     0.186 A 
HETATM    5  N   UNL     1     -40.939 -47.192  10.392  1.00  0.00    -0.355 N 
HETATM    6  C   UNL     1     -40.248 -46.355  11.234  1.00  0.00     0.017 A 
ATOM      7  HN  UNL     1     -41.175 -46.909   9.440  1.00  0.00     0.166 HD
HETATM    8  C   UNL     1     -39.908 -45.013  10.637  1.00  0.00     0.069 C 
HETATM    9  C   UNL     1     -39.889 -46.680  12.490  1.00  0.00     0.028 A 
HETATM   10  C   UNL     1     -40.265 -48.031  12.983  1.00  0.00     0.256 A 
HETATM   11  C   UNL     1     -39.142 -45.775  13.420  1.00  0.00     0.056 C 
HETATM   12  O   UNL     1     -39.948 -48.418  14.106  1.00  0.00    -0.267 OA
ENDBRANCH   2   3
ENDBRANCH   1   2
BRANCH   1  13
HETATM   13  O   UNL     1     -39.439 -51.487  12.151  1.00  0.00    -0.392 OA
HETATM   14  H   UNL     1     -39.060 -52.193  11.591  1.00  0.00     0.210 HD
ENDBRANCH   1  13
BRANCH   1  15
HETATM   15  C   UNL     1     -41.575 -52.584  12.005  1.00  0.00     0.201 C 
BRANCH  15  16
HETATM   16  O   UNL     1     -42.786 -52.285  12.684  1.00  0.00    -0.384 OA
BRANCH  16  17
HETATM   17  C   UNL     1     -43.780 -53.295  12.510  1.00  0.00     0.208 C 
BRANCH  17  18
HETATM   18  C   UNL     1     -44.939 -52.927  13.400  1.00  0.00    -0.013 A 
HETATM   19  C   UNL     1     -45.168 -51.560  13.660  1.00  0.00     0.011 A 
HETATM   20  C   UNL     1     -46.199 -51.148  14.503  1.00  0.00     0.001 A 
HETATM   21  C   UNL     1     -47.025 -52.093  15.099  1.00  0.00     0.002 A 
HETATM   22  C   UNL     1     -46.824 -53.450  14.845  1.00  0.00     0.024 A 
HETATM   23  C   UNL     1     -45.790 -53.868  13.998  1.00  0.00     0.042 A 
HETATM   24 CL   UNL     1     -45.617 -55.567  13.741  1.00  0.00    -0.084 Cl
ENDBRANCH  17  18
ENDBRANCH  16  17
ENDBRANCH  15  16
ENDBRANCH   1  15
TORSDOF 7
ENDMDL
MODEL 5
REMARK VINA RESULT:      -6.0      2.176      4.123
REMARK  7 active torsions:
REMARK  status: ('A' for Active; 'I' for Inactive)
REMARK    1  A    between atoms: N_6  and  C_7 
REMARK    2  A    between atoms: C_7  and  C_8 
REMARK    3  A    between atoms: C_8  and  O_9 
REMARK    4  A    between atoms: C_8  and  C_10 
REMARK    5  A    between atoms: C_10  and  O_11 
REMARK    6  A    between atoms: O_11  and  C_12 
REMARK    7  A    between atoms: C_12  and  C_13 
ROOT
HETATM    1  C   UNL     1     -40.310 -50.425  11.813  1.00  0.00     0.160 C 
ENDROOT
BRANCH   1   2
HETATM    2  C   UNL     1     -40.927 -49.486  12.871  1.00  0.00     0.166 C 
BRANCH   2   3
HETATM    3  N   UNL     1     -42.203 -49.965  13.395  1.00  0.00    -0.307 N 
HETATM    4  C   UNL     1     -43.331 -49.910  12.625  1.00  0.00     0.186 A 
HETATM    5  N   UNL     1     -44.494 -50.334  12.985  1.00  0.00    -0.355 N 
HETATM    6  C   UNL     1     -44.605 -50.883  14.239  1.00  0.00     0.017 A 
ATOM      7  HN  UNL     1     -45.300 -50.265  12.364  1.00  0.00     0.166 HD
HETATM    8  C   UNL     1     -45.987 -51.380  14.581  1.00  0.00     0.069 C 
HETATM    9  C   UNL     1     -43.584 -50.981  15.112  1.00  0.00     0.028 A 
HETATM   10  C   UNL     1     -42.263 -50.456  14.682  1.00  0.00     0.256 A 
HETATM   11  C   UNL     1     -43.691 -51.584  16.478  1.00  0.00     0.056 C 
HETATM   12  O   UNL     1     -41.287 -50.477  15.430  1.00  0.00    -0.267 OA
ENDBRANCH   2   3
ENDBRANCH   1   2
BRANCH   1  13
HETATM   13  O   UNL     1     -39.376 -49.760  10.959  1.00  0.00    -0.392 OA
HETATM   14  H   UNL     1     -38.507 -50.198  11.045  1.00  0.00     0.210 HD
ENDBRANCH   1  13
BRANCH   1  15
HETATM   15  C   UNL     1     -39.597 -51.598  12.496  1.00  0.00     0.201 C 
BRANCH  15  16
HETATM   16  O   UNL     1     -40.381 -52.772  12.334  1.00  0.00    -0.384 OA
BRANCH  16  17
HETATM   17  C   UNL     1     -40.410 -53.583  13.508  1.00  0.00     0.208 C 
BRANCH  17  18
HETATM   18  C   UNL     1     -41.838 -54.024  13.701  1.00  0.00    -0.013 A 
HETATM   19  C   UNL     1     -42.766 -53.727  12.682  1.00  0.00     0.011 A 
HETATM   20  C   UNL     1     -44.111 -54.072  12.808  1.00  0.00     0.001 A 
HETATM   21  C   UNL     1     -44.554 -54.725  13.952  1.00  0.00     0.002 A 
HETATM   22  C   UNL     1     -43.649 -55.039  14.966  1.00  0.00     0.024 A 
HETATM   23  C   UNL     1     -42.297 -54.695  14.843  1.00  0.00     0.042 A 
HETATM   24 CL   UNL     1     -41.250 -55.126  16.147  1.00  0.00    -0.084 Cl
ENDBRANCH  17  18
ENDBRANCH  16  17
ENDBRANCH  15  16
ENDBRANCH   1  15
TORSDOF 7
ENDMDL
MODEL 6
REMARK VINA RESULT:      -6.0      2.697      5.254
REMARK  7 active torsions:
REMARK  status: ('A' for Active; 'I' for Inactive)
REMARK    1  A    between atoms: N_6  and  C_7 
REMARK    2  A    between atoms: C_7  and  C_8 
REMARK    3  A    between atoms: C_8  and  O_9 
REMARK    4  A    between atoms: C_8  and  C_10 
REMARK    5  A    between atoms: C_10  and  O_11 
REMARK    6  A    between atoms: O_11  and  C_12 
REMARK    7  A    between atoms: C_12  and  C_13 
ROOT
HETATM    1  C   UNL     1     -40.492 -50.811  11.617  1.00  0.00     0.160 C 
ENDROOT
BRANCH   1   2
HETATM    2  C   UNL     1     -41.695 -50.305  12.441  1.00  0.00     0.166 C 
BRANCH   2   3
HETATM    3  N   UNL     1     -42.673 -51.350  12.737  1.00  0.00    -0.307 N 
HETATM    4  C   UNL     1     -42.528 -52.601  12.207  1.00  0.00     0.186 A 
HETATM    5  N   UNL     1     -43.318 -53.595  12.432  1.00  0.00    -0.355 N 
HETATM    6  C   UNL     1     -44.385 -53.377  13.269  1.00  0.00     0.017 A 
ATOM      7  HN  UNL     1     -43.157 -54.508  12.006  1.00  0.00     0.166 HD
HETATM    8  C   UNL     1     -45.249 -54.590  13.505  1.00  0.00     0.069 C 
HETATM    9  C   UNL     1     -44.662 -52.191  13.842  1.00  0.00     0.028 A 
HETATM   10  C   UNL     1     -43.753 -51.055  13.540  1.00  0.00     0.256 A 
HETATM   11  C   UNL     1     -45.817 -51.942  14.762  1.00  0.00     0.056 C 
HETATM   12  O   UNL     1     -43.954 -49.930  13.997  1.00  0.00    -0.267 OA
ENDBRANCH   2   3
ENDBRANCH   1   2
BRANCH   1  13
HETATM   13  O   UNL     1     -40.311 -50.087  10.398  1.00  0.00    -0.392 OA
HETATM   14  H   UNL     1     -39.973 -49.195  10.611  1.00  0.00     0.210 HD
ENDBRANCH   1  13
BRANCH   1  15
HETATM   15  C   UNL     1     -39.204 -50.705  12.443  1.00  0.00     0.201 C 
BRANCH  15  16
HETATM   16  O   UNL     1     -39.545 -50.570  13.815  1.00  0.00    -0.384 OA
BRANCH  16  17
HETATM   17  C   UNL     1     -38.987 -51.604  14.627  1.00  0.00     0.208 C 
BRANCH  17  18
HETATM   18  C   UNL     1     -40.140 -52.420  15.151  1.00  0.00    -0.013 A 
HETATM   19  C   UNL     1     -41.073 -51.784  15.995  1.00  0.00     0.011 A 
HETATM   20  C   UNL     1     -42.145 -52.486  16.546  1.00  0.00     0.001 A 
HETATM   21  C   UNL     1     -42.309 -53.836  16.259  1.00  0.00     0.002 A 
HETATM   22  C   UNL     1     -41.404 -54.481  15.415  1.00  0.00     0.024 A 
HETATM   23  C   UNL     1     -40.327 -53.778  14.860  1.00  0.00     0.042 A 
HETATM   24 CL   UNL     1     -39.259 -54.658  13.825  1.00  0.00    -0.084 Cl
ENDBRANCH  17  18
ENDBRANCH  16  17
ENDBRANCH  15  16
ENDBRANCH   1  15
TORSDOF 7
ENDMDL
MODEL 7
REMARK VINA RESULT:      -5.9      3.177      5.784
REMARK  7 active torsions:
REMARK  status: ('A' for Active; 'I' for Inactive)
REMARK    1  A    between atoms: N_6  and  C_7 
REMARK    2  A    between atoms: C_7  and  C_8 
REMARK    3  A    between atoms: C_8  and  O_9 
REMARK    4  A    between atoms: C_8  and  C_10 
REMARK    5  A    between atoms: C_10  and  O_11 
REMARK    6  A    between atoms: O_11  and  C_12 
REMARK    7  A    between atoms: C_12  and  C_13 
ROOT
HETATM    1  C   UNL     1     -40.717 -52.190  12.590  1.00  0.00     0.160 C 
ENDROOT
BRANCH   1   2
HETATM    2  C   UNL     1     -41.120 -53.675  12.720  1.00  0.00     0.166 C 
BRANCH   2   3
HETATM    3  N   UNL     1     -40.537 -54.332  13.888  1.00  0.00    -0.307 N 
HETATM    4  C   UNL     1     -39.193 -54.568  13.948  1.00  0.00     0.186 A 
HETATM    5  N   UNL     1     -38.582 -55.112  14.945  1.00  0.00    -0.355 N 
HETATM    6  C   UNL     1     -39.342 -55.481  16.027  1.00  0.00     0.017 A 
ATOM      7  HN  UNL     1     -37.573 -55.262  14.931  1.00  0.00     0.166 HD
HETATM    8  C   UNL     1     -38.557 -56.087  17.163  1.00  0.00     0.069 C 
HETATM    9  C   UNL     1     -40.679 -55.330  16.095  1.00  0.00     0.028 A 
HETATM   10  C   UNL     1     -41.361 -54.729  14.919  1.00  0.00     0.256 A 
HETATM   11  C   UNL     1     -41.519 -55.721  17.271  1.00  0.00     0.056 C 
HETATM   12  O   UNL     1     -42.582 -54.585  14.887  1.00  0.00    -0.267 OA
ENDBRANCH   2   3
ENDBRANCH   1   2
BRANCH   1  13
HETATM   13  O   UNL     1     -40.821 -51.704  11.251  1.00  0.00    -0.392 OA
HETATM   14  H   UNL     1     -41.133 -52.431  10.677  1.00  0.00     0.210 HD
ENDBRANCH   1  13
BRANCH   1  15
HETATM   15  C   UNL     1     -41.598 -51.321  13.495  1.00  0.00     0.201 C 
BRANCH  15  16
HETATM   16  O   UNL     1     -42.958 -51.684  13.301  1.00  0.00    -0.384 OA
BRANCH  16  17
HETATM   17  C   UNL     1     -43.836 -50.558  13.304  1.00  0.00     0.208 C 
BRANCH  17  18
HETATM   18  C   UNL     1     -44.885 -50.824  14.353  1.00  0.00    -0.013 A 
HETATM   19  C   UNL     1     -44.568 -50.532  15.696  1.00  0.00     0.011 A 
HETATM   20  C   UNL     1     -45.476 -50.785  16.723  1.00  0.00     0.001 A 
HETATM   21  C   UNL     1     -46.721 -51.331  16.429  1.00  0.00     0.002 A 
HETATM   22  C   UNL     1     -47.058 -51.614  15.105  1.00  0.00     0.024 A 
HETATM   23  C   UNL     1     -46.149 -51.360  14.071  1.00  0.00     0.042 A 
HETATM   24 CL   UNL     1     -46.654 -51.742  12.464  1.00  0.00    -0.084 Cl
ENDBRANCH  17  18
ENDBRANCH  16  17
ENDBRANCH  15  16
ENDBRANCH   1  15
TORSDOF 7
ENDMDL
MODEL 8
REMARK VINA RESULT:      -5.9      2.510      3.353
REMARK  7 active torsions:
REMARK  status: ('A' for Active; 'I' for Inactive)
REMARK    1  A    between atoms: N_6  and  C_7 
REMARK    2  A    between atoms: C_7  and  C_8 
REMARK    3  A    between atoms: C_8  and  O_9 
REMARK    4  A    between atoms: C_8  and  C_10 
REMARK    5  A    between atoms: C_10  and  O_11 
REMARK    6  A    between atoms: O_11  and  C_12 
REMARK    7  A    between atoms: C_12  and  C_13 
ROOT
HETATM    1  C   UNL     1     -42.145 -54.030  14.663  1.00  0.00     0.160 C 
ENDROOT
BRANCH   1   2
HETATM    2  C   UNL     1     -41.256 -54.204  13.414  1.00  0.00     0.166 C 
BRANCH   2   3
HETATM    3  N   UNL     1     -40.619 -52.962  12.981  1.00  0.00    -0.307 N 
HETATM    4  C   UNL     1     -41.122 -52.261  11.921  1.00  0.00     0.186 A 
HETATM    5  N   UNL     1     -40.650 -51.143  11.483  1.00  0.00    -0.355 N 
HETATM    6  C   UNL     1     -39.560 -50.619  12.135  1.00  0.00     0.017 A 
ATOM      7  HN  UNL     1     -41.070 -50.667  10.685  1.00  0.00     0.166 HD
HETATM    8  C   UNL     1     -39.081 -49.300  11.584  1.00  0.00     0.069 C 
HETATM    9  C   UNL     1     -38.949 -51.213  13.178  1.00  0.00     0.028 A 
HETATM   10  C   UNL     1     -39.495 -52.515  13.641  1.00  0.00     0.256 A 
HETATM   11  C   UNL     1     -37.766 -50.649  13.901  1.00  0.00     0.056 C 
HETATM   12  O   UNL     1     -38.976 -53.138  14.566  1.00  0.00    -0.267 OA
ENDBRANCH   2   3
ENDBRANCH   1   2
BRANCH   1  13
HETATM   13  O   UNL     1     -42.702 -52.718  14.768  1.00  0.00    -0.392 OA
HETATM   14  H   UNL     1     -42.685 -52.445  15.706  1.00  0.00     0.210 HD
ENDBRANCH   1  13
BRANCH   1  15
HETATM   15  C   UNL     1     -43.293 -55.047  14.643  1.00  0.00     0.201 C 
BRANCH  15  16
HETATM   16  O   UNL     1     -44.209 -54.688  13.618  1.00  0.00    -0.384 OA
BRANCH  16  17
HETATM   17  C   UNL     1     -45.570 -54.896  13.997  1.00  0.00     0.208 C 
BRANCH  17  18
HETATM   18  C   UNL     1     -46.042 -53.623  14.651  1.00  0.00    -0.013 A 
HETATM   19  C   UNL     1     -46.154 -53.602  16.056  1.00  0.00     0.011 A 
HETATM   20  C   UNL     1     -46.618 -52.471  16.727  1.00  0.00     0.001 A 
HETATM   21  C   UNL     1     -46.974 -51.337  16.006  1.00  0.00     0.002 A 
HETATM   22  C   UNL     1     -46.858 -51.333  14.616  1.00  0.00     0.024 A 
HETATM   23  C   UNL     1     -46.391 -52.467  13.939  1.00  0.00     0.042 A 
HETATM   24 CL   UNL     1     -46.278 -52.369  12.219  1.00  0.00    -0.084 Cl
ENDBRANCH  17  18
ENDBRANCH  16  17
ENDBRANCH  15  16
ENDBRANCH   1  15
TORSDOF 7
ENDMDL
MODEL 9
REMARK VINA RESULT:      -5.8      2.354      2.969
REMARK  7 active torsions:
REMARK  status: ('A' for Active; 'I' for Inactive)
REMARK    1  A    between atoms: N_6  and  C_7 
REMARK    2  A    between atoms: C_7  and  C_8 
REMARK    3  A    between atoms: C_8  and  O_9 
REMARK    4  A    between atoms: C_8  and  C_10 
REMARK    5  A    between atoms: C_10  and  O_11 
REMARK    6  A    between atoms: O_11  and  C_12 
REMARK    7  A    between atoms: C_12  and  C_13 
ROOT
HETATM    1  C   UNL     1     -38.769 -50.830  12.416  1.00  0.00     0.160 C 
ENDROOT
BRANCH   1   2
HETATM    2  C   UNL     1     -38.823 -49.297  12.589  1.00  0.00     0.166 C 
BRANCH   2   3
HETATM    3  N   UNL     1     -39.876 -48.663  11.800  1.00  0.00    -0.307 N 
HETATM    4  C   UNL     1     -40.630 -49.403  10.932  1.00  0.00     0.186 A 
HETATM    5  N   UNL     1     -41.599 -48.943  10.216  1.00  0.00    -0.355 N 
HETATM    6  C   UNL     1     -41.894 -47.607  10.337  1.00  0.00     0.017 A 
ATOM      7  HN  UNL     1     -42.125 -49.547   9.585  1.00  0.00     0.166 HD
HETATM    8  C   UNL     1     -43.053 -47.147   9.490  1.00  0.00     0.069 C 
HETATM    9  C   UNL     1     -41.221 -46.756  11.135  1.00  0.00     0.028 A 
HETATM   10  C   UNL     1     -40.089 -47.307  11.924  1.00  0.00     0.256 A 
HETATM   11  C   UNL     1     -41.538 -45.300  11.281  1.00  0.00     0.056 C 
HETATM   12  O   UNL     1     -39.403 -46.591  12.652  1.00  0.00    -0.267 OA
ENDBRANCH   2   3
ENDBRANCH   1   2
BRANCH   1  13
HETATM   13  O   UNL     1     -37.496 -51.291  11.959  1.00  0.00    -0.392 OA
HETATM   14  H   UNL     1     -37.565 -52.243  11.748  1.00  0.00     0.210 HD
ENDBRANCH   1  13
BRANCH   1  15
HETATM   15  C   UNL     1     -39.092 -51.524  13.744  1.00  0.00     0.201 C 
BRANCH  15  16
HETATM   16  O   UNL     1     -40.463 -51.897  13.749  1.00  0.00    -0.384 OA
BRANCH  16  17
HETATM   17  C   UNL     1     -40.753 -52.947  12.826  1.00  0.00     0.208 C 
BRANCH  17  18
HETATM   18  C   UNL     1     -42.006 -53.626  13.315  1.00  0.00    -0.013 A 
HETATM   19  C   UNL     1     -43.207 -53.383  12.618  1.00  0.00     0.011 A 
HETATM   20  C   UNL     1     -44.411 -53.949  13.035  1.00  0.00     0.001 A 
HETATM   21  C   UNL     1     -44.438 -54.774  14.154  1.00  0.00     0.002 A 
HETATM   22  C   UNL     1     -43.258 -55.038  14.850  1.00  0.00     0.024 A 
HETATM   23  C   UNL     1     -42.046 -54.472  14.433  1.00  0.00     0.042 A 
HETATM   24 CL   UNL     1     -40.636 -54.856  15.354  1.00  0.00    -0.084 Cl
ENDBRANCH  17  18
ENDBRANCH  16  17
ENDBRANCH  15  16
ENDBRANCH   1  15
TORSDOF 7
ENDMDL
