MODEL 1
REMARK VINA RESULT:      -5.9      0.000      0.000
REMARK  4 active torsions:
REMARK  status: ('A' for Active; 'I' for Inactive)
REMARK       I    between atoms: C_2  and  N_3 
REMARK       I    between atoms: C_2  and  N_13 
REMARK    1  A    between atoms: N_3  and  C_4 
REMARK    2  A    between atoms: C_4  and  C_5 
REMARK    3  A    between atoms: C_5  and  N_6 
REMARK    4  A    between atoms: N_13  and  C_14 
ROOT
HETATM    1  O   UNL     1     -39.835 -47.057  12.649  1.00  0.00    -0.247 OA
HETATM    2  C   UNL     1     -39.899 -47.515  11.514  1.00  0.00     0.320 C 
HETATM    3  N   UNL     1     -40.382 -46.772  10.458  1.00  0.00    -0.341 N 
HETATM    4  N   UNL     1     -39.504 -48.774  11.118  1.00  0.00    -0.309 N 
HETATM    5  H   UNL     1     -40.705 -47.268   9.641  1.00  0.00     0.164 HD
HETATM    6  H   UNL     1     -39.435 -48.929  10.124  1.00  0.00     0.170 HD
ENDROOT
BRANCH   3   7
HETATM    7  C   UNL     1     -40.872 -45.407  10.650  1.00  0.00     0.145 C 
BRANCH   7   8
HETATM    8  C   UNL     1     -42.311 -45.400  11.174  1.00  0.00     0.156 C 
BRANCH   8   9
HETATM    9  N   UNL     1     -43.274 -46.005  10.272  1.00  0.00    -0.267 N 
HETATM   10  C   UNL     1     -43.685 -47.307  10.334  1.00  0.00     0.245 A 
HETATM   11  O   UNL     1     -43.235 -48.187  11.054  1.00  0.00    -0.271 OA
HETATM   12  C   UNL     1     -44.861 -47.491   9.386  1.00  0.00     0.227 A 
HETATM   13  N   UNL     1     -44.957 -46.172   8.828  1.00  0.00    -0.334 N 
HETATM   14  C   UNL     1     -44.057 -45.305   9.403  1.00  0.00     0.325 A 
HETATM   15  H   UNL     1     -45.690 -45.836   8.217  1.00  0.00     0.164 HD
HETATM   16  O   UNL     1     -44.017 -44.108   9.173  1.00  0.00    -0.247 OA
ENDBRANCH   8   9
ENDBRANCH   7   8
ENDBRANCH   3   7
BRANCH   4  17
HETATM   17  C   UNL     1     -39.065 -49.827  11.957  1.00  0.00     0.038 A 
HETATM   18  C   UNL     1     -37.731 -50.028  12.303  1.00  0.00     0.046 A 
HETATM   19  C   UNL     1     -37.411 -51.073  13.156  1.00  0.00     0.090 A 
HETATM   20  N   UNL     1     -38.320 -51.920  13.681  1.00  0.00    -0.375 N 
HETATM   21  C   UNL     1     -39.603 -51.713  13.334  1.00  0.00     0.090 A 
ATOM     22  HN  UNL     1     -38.049 -52.677  14.308  1.00  0.00     0.164 HD
HETATM   23  C   UNL     1     -40.023 -50.697  12.485  1.00  0.00     0.046 A 
ENDBRANCH   4  17
TORSDOF 4
ENDMDL
MODEL 2
REMARK VINA RESULT:      -5.7      4.341      5.445
REMARK  4 active torsions:
REMARK  status: ('A' for Active; 'I' for Inactive)
REMARK       I    between atoms: C_2  and  N_3 
REMARK       I    between atoms: C_2  and  N_13 
REMARK    1  A    between atoms: N_3  and  C_4 
REMARK    2  A    between atoms: C_4  and  C_5 
REMARK    3  A    between atoms: C_5  and  N_6 
REMARK    4  A    between atoms: N_13  and  C_14 
ROOT
HETATM    1  O   UNL     1     -42.361 -51.452  13.993  1.00  0.00    -0.247 OA
HETATM    2  C   UNL     1     -42.704 -51.458  12.816  1.00  0.00     0.320 C 
HETATM    3  N   UNL     1     -42.050 -50.706  11.865  1.00  0.00    -0.341 N 
HETATM    4  N   UNL     1     -43.735 -52.193  12.270  1.00  0.00    -0.309 N 
HETATM    5  H   UNL     1     -42.540 -50.498  11.007  1.00  0.00     0.164 HD
HETATM    6  H   UNL     1     -43.764 -52.242  11.264  1.00  0.00     0.170 HD
ENDROOT
BRANCH   3   7
HETATM    7  C   UNL     1     -40.929 -49.836  12.222  1.00  0.00     0.145 C 
BRANCH   7   8
HETATM    8  C   UNL     1     -41.405 -48.415  12.536  1.00  0.00     0.156 C 
BRANCH   8   9
HETATM    9  N   UNL     1     -41.670 -47.604  11.362  1.00  0.00    -0.267 N 
HETATM   10  C   UNL     1     -42.893 -47.479  10.764  1.00  0.00     0.245 A 
HETATM   11  O   UNL     1     -43.909 -48.105  11.030  1.00  0.00    -0.271 OA
HETATM   12  C   UNL     1     -42.813 -46.371   9.724  1.00  0.00     0.227 A 
HETATM   13  N   UNL     1     -41.432 -45.998   9.842  1.00  0.00    -0.334 N 
HETATM   14  C   UNL     1     -40.798 -46.693  10.845  1.00  0.00     0.325 A 
HETATM   15  H   UNL     1     -40.987 -45.212   9.387  1.00  0.00     0.164 HD
HETATM   16  O   UNL     1     -39.653 -46.477  11.209  1.00  0.00    -0.247 OA
ENDBRANCH   8   9
ENDBRANCH   7   8
ENDBRANCH   3   7
BRANCH   4  17
HETATM   17  C   UNL     1     -44.675 -52.985  12.973  1.00  0.00     0.038 A 
HETATM   18  C   UNL     1     -44.572 -54.368  13.101  1.00  0.00     0.046 A 
HETATM   19  C   UNL     1     -45.533 -55.046  13.835  1.00  0.00     0.090 A 
HETATM   20  N   UNL     1     -46.575 -54.445  14.445  1.00  0.00    -0.375 N 
HETATM   21  C   UNL     1     -46.661 -53.109  14.309  1.00  0.00     0.090 A 
ATOM     22  HN  UNL     1     -47.263 -54.975  14.981  1.00  0.00     0.164 HD
HETATM   23  C   UNL     1     -45.751 -52.342  13.592  1.00  0.00     0.046 A 
ENDBRANCH   4  17
TORSDOF 4
ENDMDL
MODEL 3
REMARK VINA RESULT:      -5.7      2.997      7.513
REMARK  4 active torsions:
REMARK  status: ('A' for Active; 'I' for Inactive)
REMARK       I    between atoms: C_2  and  N_3 
REMARK       I    between atoms: C_2  and  N_13 
REMARK    1  A    between atoms: N_3  and  C_4 
REMARK    2  A    between atoms: C_4  and  C_5 
REMARK    3  A    between atoms: C_5  and  N_6 
REMARK    4  A    between atoms: N_13  and  C_14 
ROOT
HETATM    1  O   UNL     1     -42.301 -49.238  12.044  1.00  0.00    -0.247 OA
HETATM    2  C   UNL     1     -41.548 -49.286  11.078  1.00  0.00     0.320 C 
HETATM    3  N   UNL     1     -40.524 -50.205  11.001  1.00  0.00    -0.341 N 
HETATM    4  N   UNL     1     -41.605 -48.485   9.958  1.00  0.00    -0.309 N 
HETATM    5  H   UNL     1     -39.762 -50.011  10.368  1.00  0.00     0.164 HD
HETATM    6  H   UNL     1     -41.046 -48.776   9.171  1.00  0.00     0.170 HD
ENDROOT
BRANCH   3   7
HETATM    7  C   UNL     1     -40.267 -51.151  12.087  1.00  0.00     0.145 C 
BRANCH   7   8
HETATM    8  C   UNL     1     -40.979 -52.484  11.844  1.00  0.00     0.156 C 
BRANCH   8   9
HETATM    9  N   UNL     1     -41.296 -53.217  13.056  1.00  0.00    -0.267 N 
HETATM   10  C   UNL     1     -42.563 -53.486  13.493  1.00  0.00     0.245 A 
HETATM   11  O   UNL     1     -43.609 -53.062  13.023  1.00  0.00    -0.271 OA
HETATM   12  C   UNL     1     -42.479 -54.468  14.652  1.00  0.00     0.227 A 
HETATM   13  N   UNL     1     -41.056 -54.619  14.766  1.00  0.00    -0.334 N 
HETATM   14  C   UNL     1     -40.387 -53.924  13.786  1.00  0.00     0.325 A 
HETATM   15  H   UNL     1     -40.573 -55.277  15.363  1.00  0.00     0.164 HD
HETATM   16  O   UNL     1     -39.181 -53.982  13.607  1.00  0.00    -0.247 OA
ENDBRANCH   8   9
ENDBRANCH   7   8
ENDBRANCH   3   7
BRANCH   4  17
HETATM   17  C   UNL     1     -42.459 -47.373   9.754  1.00  0.00     0.038 A 
HETATM   18  C   UNL     1     -43.625 -47.429   8.995  1.00  0.00     0.046 A 
HETATM   19  C   UNL     1     -44.406 -46.290   8.882  1.00  0.00     0.090 A 
HETATM   20  N   UNL     1     -44.108 -45.113   9.469  1.00  0.00    -0.375 N 
HETATM   21  C   UNL     1     -42.976 -45.076  10.197  1.00  0.00     0.090 A 
ATOM     22  HN  UNL     1     -44.707 -44.294   9.368  1.00  0.00     0.164 HD
HETATM   23  C   UNL     1     -42.127 -46.162  10.367  1.00  0.00     0.046 A 
ENDBRANCH   4  17
TORSDOF 4
ENDMDL
MODEL 4
REMARK VINA RESULT:      -5.7      4.764      6.910
REMARK  4 active torsions:
REMARK  status: ('A' for Active; 'I' for Inactive)
REMARK       I    between atoms: C_2  and  N_3 
REMARK       I    between atoms: C_2  and  N_13 
REMARK    1  A    between atoms: N_3  and  C_4 
REMARK    2  A    between atoms: C_4  and  C_5 
REMARK    3  A    between atoms: C_5  and  N_6 
REMARK    4  A    between atoms: N_13  and  C_14 
ROOT
HETATM    1  O   UNL     1     -42.782 -49.684  13.062  1.00  0.00    -0.247 OA
HETATM    2  C   UNL     1     -42.239 -50.270  12.133  1.00  0.00     0.320 C 
HETATM    3  N   UNL     1     -42.211 -51.646  12.060  1.00  0.00    -0.341 N 
HETATM    4  N   UNL     1     -41.615 -49.686  11.052  1.00  0.00    -0.309 N 
HETATM    5  H   UNL     1     -41.509 -52.074  11.476  1.00  0.00     0.164 HD
HETATM    6  H   UNL     1     -41.395 -50.296  10.280  1.00  0.00     0.170 HD
ENDROOT
BRANCH   3   7
HETATM    7  C   UNL     1     -42.804 -52.475  13.110  1.00  0.00     0.145 C 
BRANCH   7   8
HETATM    8  C   UNL     1     -43.705 -53.563  12.519  1.00  0.00     0.156 C 
BRANCH   8   9
HETATM    9  N   UNL     1     -44.940 -53.774  13.252  1.00  0.00    -0.267 N 
HETATM   10  C   UNL     1     -45.093 -54.670  14.274  1.00  0.00     0.245 A 
HETATM   11  O   UNL     1     -44.282 -55.506  14.647  1.00  0.00    -0.271 OA
HETATM   12  C   UNL     1     -46.442 -54.427  14.934  1.00  0.00     0.227 A 
HETATM   13  N   UNL     1     -46.947 -53.362  14.116  1.00  0.00    -0.334 N 
HETATM   14  C   UNL     1     -46.028 -52.958  13.175  1.00  0.00     0.325 A 
HETATM   15  H   UNL     1     -47.792 -52.831  14.284  1.00  0.00     0.164 HD
HETATM   16  O   UNL     1     -46.182 -52.000  12.435  1.00  0.00    -0.247 OA
ENDBRANCH   8   9
ENDBRANCH   7   8
ENDBRANCH   3   7
BRANCH   4  17
HETATM   17  C   UNL     1     -41.367 -48.305  10.862  1.00  0.00     0.038 A 
HETATM   18  C   UNL     1     -40.220 -47.661  11.320  1.00  0.00     0.046 A 
HETATM   19  C   UNL     1     -40.060 -46.310  11.056  1.00  0.00     0.090 A 
HETATM   20  N   UNL     1     -40.955 -45.566  10.372  1.00  0.00    -0.375 N 
HETATM   21  C   UNL     1     -42.058 -46.204   9.940  1.00  0.00     0.090 A 
ATOM     22  HN  UNL     1     -40.804 -44.574  10.194  1.00  0.00     0.164 HD
HETATM   23  C   UNL     1     -42.310 -47.552  10.157  1.00  0.00     0.046 A 
ENDBRANCH   4  17
TORSDOF 4
ENDMDL
MODEL 5
REMARK VINA RESULT:      -5.7      4.191      6.832
REMARK  4 active torsions:
REMARK  status: ('A' for Active; 'I' for Inactive)
REMARK       I    between atoms: C_2  and  N_3 
REMARK       I    between atoms: C_2  and  N_13 
REMARK    1  A    between atoms: N_3  and  C_4 
REMARK    2  A    between atoms: C_4  and  C_5 
REMARK    3  A    between atoms: C_5  and  N_6 
REMARK    4  A    between atoms: N_13  and  C_14 
ROOT
HETATM    1  O   UNL     1     -41.722 -50.872  13.321  1.00  0.00    -0.247 OA
HETATM    2  C   UNL     1     -41.512 -51.537  12.314  1.00  0.00     0.320 C 
HETATM    3  N   UNL     1     -40.741 -51.060  11.276  1.00  0.00    -0.341 N 
HETATM    4  N   UNL     1     -41.970 -52.814  12.068  1.00  0.00    -0.309 N 
HETATM    5  H   UNL     1     -40.851 -51.488  10.369  1.00  0.00     0.164 HD
HETATM    6  H   UNL     1     -41.550 -53.297  11.289  1.00  0.00     0.170 HD
ENDROOT
BRANCH   3   7
HETATM    7  C   UNL     1     -40.160 -49.718  11.316  1.00  0.00     0.145 C 
BRANCH   7   8
HETATM    8  C   UNL     1     -38.653 -49.770  11.579  1.00  0.00     0.156 C 
BRANCH   8   9
HETATM    9  N   UNL     1     -38.299 -49.880  12.983  1.00  0.00    -0.267 N 
HETATM   10  C   UNL     1     -38.286 -48.836  13.865  1.00  0.00     0.245 A 
HETATM   11  O   UNL     1     -38.441 -47.651  13.605  1.00  0.00    -0.271 OA
HETATM   12  C   UNL     1     -38.101 -49.390  15.270  1.00  0.00     0.227 A 
HETATM   13  N   UNL     1     -37.984 -50.792  14.987  1.00  0.00    -0.334 N 
HETATM   14  C   UNL     1     -38.160 -51.061  13.649  1.00  0.00     0.325 A 
HETATM   15  H   UNL     1     -37.949 -51.537  15.670  1.00  0.00     0.164 HD
HETATM   16  O   UNL     1     -38.213 -52.186  13.178  1.00  0.00    -0.247 OA
ENDBRANCH   8   9
ENDBRANCH   7   8
ENDBRANCH   3   7
BRANCH   4  17
HETATM   17  C   UNL     1     -42.871 -53.559  12.867  1.00  0.00     0.038 A 
HETATM   18  C   UNL     1     -42.484 -54.271  14.000  1.00  0.00     0.046 A 
HETATM   19  C   UNL     1     -43.451 -54.945  14.730  1.00  0.00     0.090 A 
HETATM   20  N   UNL     1     -44.762 -54.955  14.412  1.00  0.00    -0.375 N 
HETATM   21  C   UNL     1     -45.117 -54.264  13.313  1.00  0.00     0.090 A 
ATOM     22  HN  UNL     1     -45.447 -55.459  14.973  1.00  0.00     0.164 HD
HETATM   23  C   UNL     1     -44.223 -53.561  12.515  1.00  0.00     0.046 A 
ENDBRANCH   4  17
TORSDOF 4
ENDMDL
MODEL 6
REMARK VINA RESULT:      -5.7      4.358      5.775
REMARK  4 active torsions:
REMARK  status: ('A' for Active; 'I' for Inactive)
REMARK       I    between atoms: C_2  and  N_3 
REMARK       I    between atoms: C_2  and  N_13 
REMARK    1  A    between atoms: N_3  and  C_4 
REMARK    2  A    between atoms: C_4  and  C_5 
REMARK    3  A    between atoms: C_5  and  N_6 
REMARK    4  A    between atoms: N_13  and  C_14 
ROOT
HETATM    1  O   UNL     1     -42.303 -51.594  13.968  1.00  0.00    -0.247 OA
HETATM    2  C   UNL     1     -42.633 -51.620  12.788  1.00  0.00     0.320 C 
HETATM    3  N   UNL     1     -41.939 -50.921  11.824  1.00  0.00    -0.341 N 
HETATM    4  N   UNL     1     -43.685 -52.330  12.250  1.00  0.00    -0.309 N 
HETATM    5  H   UNL     1     -42.411 -50.719  10.956  1.00  0.00     0.164 HD
HETATM    6  H   UNL     1     -43.704 -52.407  11.245  1.00  0.00     0.170 HD
ENDROOT
BRANCH   3   7
HETATM    7  C   UNL     1     -40.789 -50.085  12.171  1.00  0.00     0.145 C 
BRANCH   7   8
HETATM    8  C   UNL     1     -41.233 -48.735  12.741  1.00  0.00     0.156 C 
BRANCH   8   9
HETATM    9  N   UNL     1     -40.986 -47.609  11.860  1.00  0.00    -0.267 N 
HETATM   10  C   UNL     1     -39.999 -46.680  12.044  1.00  0.00     0.245 A 
HETATM   11  O   UNL     1     -39.263 -46.571  13.015  1.00  0.00    -0.271 OA
HETATM   12  C   UNL     1     -39.912 -45.811  10.798  1.00  0.00     0.227 A 
HETATM   13  N   UNL     1     -40.971 -46.373  10.011  1.00  0.00    -0.334 N 
HETATM   14  C   UNL     1     -41.548 -47.460  10.627  1.00  0.00     0.325 A 
HETATM   15  H   UNL     1     -41.185 -46.143   9.049  1.00  0.00     0.164 HD
HETATM   16  O   UNL     1     -42.394 -48.171  10.111  1.00  0.00    -0.247 OA
ENDBRANCH   8   9
ENDBRANCH   7   8
ENDBRANCH   3   7
BRANCH   4  17
HETATM   17  C   UNL     1     -44.663 -53.065  12.963  1.00  0.00     0.038 A 
HETATM   18  C   UNL     1     -44.563 -54.430  13.219  1.00  0.00     0.046 A 
HETATM   19  C   UNL     1     -45.564 -55.049  13.952  1.00  0.00     0.090 A 
HETATM   20  N   UNL     1     -46.643 -54.406  14.443  1.00  0.00    -0.375 N 
HETATM   21  C   UNL     1     -46.725 -53.088  14.184  1.00  0.00     0.090 A 
ATOM     22  HN  UNL     1     -47.360 -54.893  14.981  1.00  0.00     0.164 HD
HETATM   23  C   UNL     1     -45.777 -52.380  13.457  1.00  0.00     0.046 A 
ENDBRANCH   4  17
TORSDOF 4
ENDMDL
MODEL 7
REMARK VINA RESULT:      -5.7      4.117      6.577
REMARK  4 active torsions:
REMARK  status: ('A' for Active; 'I' for Inactive)
REMARK       I    between atoms: C_2  and  N_3 
REMARK       I    between atoms: C_2  and  N_13 
REMARK    1  A    between atoms: N_3  and  C_4 
REMARK    2  A    between atoms: C_4  and  C_5 
REMARK    3  A    between atoms: C_5  and  N_6 
REMARK    4  A    between atoms: N_13  and  C_14 
ROOT
HETATM    1  O   UNL     1     -41.792 -50.816  13.240  1.00  0.00    -0.247 OA
HETATM    2  C   UNL     1     -41.556 -51.498  12.250  1.00  0.00     0.320 C 
HETATM    3  N   UNL     1     -40.800 -51.020  11.201  1.00  0.00    -0.341 N 
HETATM    4  N   UNL     1     -41.966 -52.797  12.036  1.00  0.00    -0.309 N 
HETATM    5  H   UNL     1     -40.893 -51.475  10.305  1.00  0.00     0.164 HD
HETATM    6  H   UNL     1     -41.528 -53.284  11.270  1.00  0.00     0.170 HD
ENDROOT
BRANCH   3   7
HETATM    7  C   UNL     1     -40.269 -49.657  11.207  1.00  0.00     0.145 C 
BRANCH   7   8
HETATM    8  C   UNL     1     -38.779 -49.642  11.558  1.00  0.00     0.156 C 
BRANCH   8   9
HETATM    9  N   UNL     1     -38.503 -49.733  12.980  1.00  0.00    -0.267 N 
HETATM   10  C   UNL     1     -38.090 -50.869  13.620  1.00  0.00     0.245 A 
HETATM   11  O   UNL     1     -38.007 -51.992  13.145  1.00  0.00    -0.271 OA
HETATM   12  C   UNL     1     -37.682 -50.505  15.040  1.00  0.00     0.227 A 
HETATM   13  N   UNL     1     -37.973 -49.100  15.046  1.00  0.00    -0.334 N 
HETATM   14  C   UNL     1     -38.398 -48.659  13.813  1.00  0.00     0.325 A 
HETATM   15  H   UNL     1     -37.746 -48.447  15.785  1.00  0.00     0.164 HD
HETATM   16  O   UNL     1     -38.603 -47.489  13.538  1.00  0.00    -0.247 OA
ENDBRANCH   8   9
ENDBRANCH   7   8
ENDBRANCH   3   7
BRANCH   4  17
HETATM   17  C   UNL     1     -42.842 -53.554  12.852  1.00  0.00     0.038 A 
HETATM   18  C   UNL     1     -42.423 -54.263  13.976  1.00  0.00     0.046 A 
HETATM   19  C   UNL     1     -43.366 -54.948  14.725  1.00  0.00     0.090 A 
HETATM   20  N   UNL     1     -44.683 -54.974  14.434  1.00  0.00    -0.375 N 
HETATM   21  C   UNL     1     -45.070 -54.285  13.344  1.00  0.00     0.090 A 
ATOM     22  HN  UNL     1     -45.351 -55.487  15.009  1.00  0.00     0.164 HD
HETATM   23  C   UNL     1     -44.201 -53.571  12.529  1.00  0.00     0.046 A 
ENDBRANCH   4  17
TORSDOF 4
ENDMDL
MODEL 8
REMARK VINA RESULT:      -5.3      4.465      6.148
REMARK  4 active torsions:
REMARK  status: ('A' for Active; 'I' for Inactive)
REMARK       I    between atoms: C_2  and  N_3 
REMARK       I    between atoms: C_2  and  N_13 
REMARK    1  A    between atoms: N_3  and  C_4 
REMARK    2  A    between atoms: C_4  and  C_5 
REMARK    3  A    between atoms: C_5  and  N_6 
REMARK    4  A    between atoms: N_13  and  C_14 
ROOT
HETATM    1  O   UNL     1     -42.030 -51.841  13.653  1.00  0.00    -0.247 OA
HETATM    2  C   UNL     1     -42.301 -52.078  12.482  1.00  0.00     0.320 C 
HETATM    3  N   UNL     1     -41.477 -51.681  11.451  1.00  0.00    -0.341 N 
HETATM    4  N   UNL     1     -43.407 -52.760  12.022  1.00  0.00    -0.309 N 
HETATM    5  H   UNL     1     -41.875 -51.614  10.526  1.00  0.00     0.164 HD
HETATM    6  H   UNL     1     -43.387 -53.044  11.055  1.00  0.00     0.170 HD
ENDROOT
BRANCH   3   7
HETATM    7  C   UNL     1     -40.249 -50.929  11.706  1.00  0.00     0.145 C 
BRANCH   7   8
HETATM    8  C   UNL     1     -40.369 -49.483  11.216  1.00  0.00     0.156 C 
BRANCH   8   9
HETATM    9  N   UNL     1     -40.816 -48.547  12.231  1.00  0.00    -0.267 N 
HETATM   10  C   UNL     1     -42.122 -48.347  12.582  1.00  0.00     0.245 A 
HETATM   11  O   UNL     1     -43.111 -48.811  12.032  1.00  0.00    -0.271 OA
HETATM   12  C   UNL     1     -42.161 -47.478  13.830  1.00  0.00     0.227 A 
HETATM   13  N   UNL     1     -40.760 -47.241  14.030  1.00  0.00    -0.334 N 
HETATM   14  C   UNL     1     -39.990 -47.923  13.117  1.00  0.00     0.325 A 
HETATM   15  H   UNL     1     -40.342 -46.780  14.828  1.00  0.00     0.164 HD
HETATM   16  O   UNL     1     -38.771 -47.967  13.147  1.00  0.00    -0.247 OA
ENDBRANCH   8   9
ENDBRANCH   7   8
ENDBRANCH   3   7
BRANCH   4  17
HETATM   17  C   UNL     1     -44.506 -53.211  12.793  1.00  0.00     0.038 A 
HETATM   18  C   UNL     1     -45.582 -52.399  13.145  1.00  0.00     0.046 A 
HETATM   19  C   UNL     1     -46.622 -52.946  13.880  1.00  0.00     0.090 A 
HETATM   20  N   UNL     1     -46.662 -54.234  14.281  1.00  0.00    -0.375 N 
HETATM   21  C   UNL     1     -45.614 -55.003  13.934  1.00  0.00     0.090 A 
ATOM     22  HN  UNL     1     -47.446 -54.605  14.818  1.00  0.00     0.164 HD
HETATM   23  C   UNL     1     -44.524 -54.547  13.204  1.00  0.00     0.046 A 
ENDBRANCH   4  17
TORSDOF 4
ENDMDL
MODEL 9
REMARK VINA RESULT:      -5.3      4.360      6.606
REMARK  4 active torsions:
REMARK  status: ('A' for Active; 'I' for Inactive)
REMARK       I    between atoms: C_2  and  N_3 
REMARK       I    between atoms: C_2  and  N_13 
REMARK    1  A    between atoms: N_3  and  C_4 
REMARK    2  A    between atoms: C_4  and  C_5 
REMARK    3  A    between atoms: C_5  and  N_6 
REMARK    4  A    between atoms: N_13  and  C_14 
ROOT
HETATM    1  O   UNL     1     -41.255 -50.279  13.301  1.00  0.00    -0.247 OA
HETATM    2  C   UNL     1     -42.062 -50.390  12.387  1.00  0.00     0.320 C 
HETATM    3  N   UNL     1     -42.613 -51.608  12.047  1.00  0.00    -0.341 N 
HETATM    4  N   UNL     1     -42.547 -49.370  11.596  1.00  0.00    -0.309 N 
HETATM    5  H   UNL     1     -43.010 -51.706  11.125  1.00  0.00     0.164 HD
HETATM    6  H   UNL     1     -43.348 -49.589  11.025  1.00  0.00     0.170 HD
ENDROOT
BRANCH   3   7
HETATM    7  C   UNL     1     -42.232 -52.835  12.747  1.00  0.00     0.145 C 
BRANCH   7   8
HETATM    8  C   UNL     1     -43.045 -53.018  14.031  1.00  0.00     0.156 C 
BRANCH   8   9
HETATM    9  N   UNL     1     -44.463 -52.750  13.880  1.00  0.00    -0.267 N 
HETATM   10  C   UNL     1     -45.058 -51.545  14.136  1.00  0.00     0.245 A 
HETATM   11  O   UNL     1     -44.537 -50.560  14.638  1.00  0.00    -0.271 OA
HETATM   12  C   UNL     1     -46.493 -51.597  13.635  1.00  0.00     0.227 A 
HETATM   13  N   UNL     1     -46.555 -52.946  13.151  1.00  0.00    -0.334 N 
HETATM   14  C   UNL     1     -45.340 -53.583  13.252  1.00  0.00     0.325 A 
HETATM   15  H   UNL     1     -47.322 -53.360  12.636  1.00  0.00     0.164 HD
HETATM   16  O   UNL     1     -45.112 -54.697  12.810  1.00  0.00    -0.247 OA
ENDBRANCH   8   9
ENDBRANCH   7   8
ENDBRANCH   3   7
BRANCH   4  17
HETATM   17  C   UNL     1     -42.118 -48.020  11.599  1.00  0.00     0.038 A 
HETATM   18  C   UNL     1     -42.815 -46.994  12.234  1.00  0.00     0.046 A 
HETATM   19  C   UNL     1     -42.293 -45.711  12.202  1.00  0.00     0.090 A 
HETATM   20  N   UNL     1     -41.137 -45.384  11.588  1.00  0.00    -0.375 N 
HETATM   21  C   UNL     1     -40.478 -46.387  10.979  1.00  0.00     0.090 A 
ATOM     22  HN  UNL     1     -40.780 -44.429  11.587  1.00  0.00     0.164 HD
HETATM   23  C   UNL     1     -40.921 -47.703  10.953  1.00  0.00     0.046 A 
ENDBRANCH   4  17
TORSDOF 4
ENDMDL
