MODEL 1
REMARK VINA RESULT:      -6.5      0.000      0.000
REMARK  4 active torsions:
REMARK  status: ('A' for Active; 'I' for Inactive)
REMARK    1  A    between atoms: C_2  and  C_3 
REMARK    2  A    between atoms: C_2  and  N_15 
REMARK    3  A    between atoms: C_3  and  N_4 
REMARK       I    between atoms: N_4  and  C_5 
REMARK       I    between atoms: C_5  and  N_7 
REMARK    4  A    between atoms: N_7  and  C_8 
ROOT
HETATM    1  N   UNL     1     -43.433 -53.738  12.199  1.00  0.00    -0.341 N 
HETATM    2  C   UNL     1     -42.910 -52.476  12.324  1.00  0.00     0.321 C 
HETATM    3  O   UNL     1     -43.502 -51.573  12.903  1.00  0.00    -0.247 OA
HETATM    4  N   UNL     1     -41.654 -52.374  11.778  1.00  0.00    -0.295 N 
HETATM    5  H   UNL     1     -42.958 -54.448  11.659  1.00  0.00     0.164 HD
HETATM    6  H   UNL     1     -41.069 -53.188  11.882  1.00  0.00     0.172 HD
ENDROOT
BRANCH   1   7
HETATM    7  C   UNL     1     -44.622 -54.115  12.934  1.00  0.00     0.148 C 
BRANCH   7   8
HETATM    8  C   UNL     1     -44.460 -54.018  14.471  1.00  0.00     0.092 C 
HETATM    9  C   UNL     1     -43.463 -55.109  14.892  1.00  0.00     0.033 C 
BRANCH   8  10
HETATM   10  N   UNL     1     -45.739 -53.914  15.210  1.00  0.00    -0.407 N 
HETATM   11  C   UNL     1     -46.809 -53.176  14.521  1.00  0.00     0.117 C 
HETATM   12  C   UNL     1     -46.771 -51.656  14.702  1.00  0.00     0.024 C 
HETATM   13  C   UNL     1     -46.571 -51.202  16.156  1.00  0.00    -0.016 C 
HETATM   14  C   UNL     1     -47.903 -51.163  16.903  1.00  0.00     0.010 C 
HETATM   15  C   UNL     1     -45.542 -52.064  16.901  1.00  0.00     0.024 C 
HETATM   16  C   UNL     1     -45.701 -53.557  16.629  1.00  0.00     0.117 C 
ENDBRANCH   8  10
ENDBRANCH   7   8
ENDBRANCH   1   7
BRANCH   4  17
HETATM   17  C   UNL     1     -40.926 -51.183  11.841  1.00  0.00     0.108 A 
HETATM   18  C   UNL     1     -39.655 -51.120  12.396  1.00  0.00     0.049 A 
HETATM   19  C   UNL     1     -38.973 -49.908  12.376  1.00  0.00     0.005 A 
HETATM   20  C   UNL     1     -39.577 -48.803  11.791  1.00  0.00     0.017 A 
HETATM   21  C   UNL     1     -40.858 -48.951  11.284  1.00  0.00     0.089 A 
HETATM   22  N   UNL     1     -41.562 -50.103  11.331  1.00  0.00    -0.352 N 
ATOM     23  HN  UNL     1     -42.525 -50.156  10.999  1.00  0.00     0.166 HD
ENDBRANCH   4  17
TORSDOF 4
ENDMDL
MODEL 2
REMARK VINA RESULT:      -6.3      2.326      3.932
REMARK  4 active torsions:
REMARK  status: ('A' for Active; 'I' for Inactive)
REMARK    1  A    between atoms: C_2  and  C_3 
REMARK    2  A    between atoms: C_2  and  N_15 
REMARK    3  A    between atoms: C_3  and  N_4 
REMARK       I    between atoms: N_4  and  C_5 
REMARK       I    between atoms: C_5  and  N_7 
REMARK    4  A    between atoms: N_7  and  C_8 
ROOT
HETATM    1  N   UNL     1     -40.516 -51.157  11.387  1.00  0.00    -0.341 N 
HETATM    2  C   UNL     1     -40.849 -49.833  11.522  1.00  0.00     0.321 C 
HETATM    3  O   UNL     1     -41.999 -49.461  11.725  1.00  0.00    -0.247 OA
HETATM    4  N   UNL     1     -39.753 -49.008  11.454  1.00  0.00    -0.295 N 
HETATM    5  H   UNL     1     -39.573 -51.436  11.153  1.00  0.00     0.164 HD
HETATM    6  H   UNL     1     -38.910 -49.374  11.868  1.00  0.00     0.172 HD
ENDROOT
BRANCH   1   7
HETATM    7  C   UNL     1     -41.483 -52.191  11.689  1.00  0.00     0.148 C 
BRANCH   7   8
HETATM    8  C   UNL     1     -41.423 -52.690  13.154  1.00  0.00     0.092 C 
HETATM    9  C   UNL     1     -40.771 -54.081  13.133  1.00  0.00     0.033 C 
BRANCH   8  10
HETATM   10  N   UNL     1     -42.687 -52.518  13.906  1.00  0.00    -0.407 N 
HETATM   11  C   UNL     1     -42.886 -53.450  15.027  1.00  0.00     0.117 C 
HETATM   12  C   UNL     1     -43.488 -54.805  14.647  1.00  0.00     0.024 C 
HETATM   13  C   UNL     1     -44.711 -54.712  13.722  1.00  0.00    -0.016 C 
HETATM   14  C   UNL     1     -45.988 -54.476  14.528  1.00  0.00     0.010 C 
HETATM   15  C   UNL     1     -44.539 -53.644  12.632  1.00  0.00     0.024 C 
HETATM   16  C   UNL     1     -43.931 -52.346  13.155  1.00  0.00     0.117 C 
ENDBRANCH   8  10
ENDBRANCH   7   8
ENDBRANCH   1   7
BRANCH   4  17
HETATM   17  C   UNL     1     -39.870 -47.625  11.615  1.00  0.00     0.108 A 
HETATM   18  C   UNL     1     -39.503 -46.982  12.789  1.00  0.00     0.049 A 
HETATM   19  C   UNL     1     -39.601 -45.596  12.856  1.00  0.00     0.005 A 
HETATM   20  C   UNL     1     -40.049 -44.898  11.742  1.00  0.00     0.017 A 
HETATM   21  C   UNL     1     -40.417 -45.623  10.621  1.00  0.00     0.089 A 
HETATM   22  N   UNL     1     -40.376 -46.972  10.544  1.00  0.00    -0.352 N 
ATOM     23  HN  UNL     1     -40.711 -47.472   9.720  1.00  0.00     0.166 HD
ENDBRANCH   4  17
TORSDOF 4
ENDMDL
MODEL 3
REMARK VINA RESULT:      -6.2      2.324      3.943
REMARK  4 active torsions:
REMARK  status: ('A' for Active; 'I' for Inactive)
REMARK    1  A    between atoms: C_2  and  C_3 
REMARK    2  A    between atoms: C_2  and  N_15 
REMARK    3  A    between atoms: C_3  and  N_4 
REMARK       I    between atoms: N_4  and  C_5 
REMARK       I    between atoms: C_5  and  N_7 
REMARK    4  A    between atoms: N_7  and  C_8 
ROOT
HETATM    1  N   UNL     1     -41.107 -51.013  11.318  1.00  0.00    -0.341 N 
HETATM    2  C   UNL     1     -41.056 -49.671  11.597  1.00  0.00     0.321 C 
HETATM    3  O   UNL     1     -40.734 -49.240  12.698  1.00  0.00    -0.247 OA
HETATM    4  N   UNL     1     -41.351 -48.898  10.501  1.00  0.00    -0.295 N 
HETATM    5  H   UNL     1     -41.440 -51.348  10.424  1.00  0.00     0.164 HD
HETATM    6  H   UNL     1     -41.023 -49.255   9.617  1.00  0.00     0.172 HD
ENDROOT
BRANCH   1   7
HETATM    7  C   UNL     1     -40.577 -51.978  12.259  1.00  0.00     0.148 C 
BRANCH   7   8
HETATM    8  C   UNL     1     -41.669 -52.737  13.052  1.00  0.00     0.092 C 
HETATM    9  C   UNL     1     -41.308 -54.231  13.005  1.00  0.00     0.033 C 
BRANCH   8  10
HETATM   10  N   UNL     1     -43.054 -52.339  12.711  1.00  0.00    -0.407 N 
HETATM   11  C   UNL     1     -43.658 -51.332  13.597  1.00  0.00     0.117 C 
HETATM   12  C   UNL     1     -44.307 -51.891  14.867  1.00  0.00     0.024 C 
HETATM   13  C   UNL     1     -45.221 -53.101  14.625  1.00  0.00    -0.016 C 
HETATM   14  C   UNL     1     -46.624 -52.652  14.219  1.00  0.00     0.010 C 
HETATM   15  C   UNL     1     -44.634 -54.081  13.600  1.00  0.00     0.024 C 
HETATM   16  C   UNL     1     -44.024 -53.386  12.386  1.00  0.00     0.117 C 
ENDBRANCH   8  10
ENDBRANCH   7   8
ENDBRANCH   1   7
BRANCH   4  17
HETATM   17  C   UNL     1     -41.310 -47.503  10.561  1.00  0.00     0.108 A 
HETATM   18  C   UNL     1     -42.458 -46.724  10.517  1.00  0.00     0.049 A 
HETATM   19  C   UNL     1     -42.339 -45.343  10.633  1.00  0.00     0.005 A 
HETATM   20  C   UNL     1     -41.079 -44.787  10.803  1.00  0.00     0.017 A 
HETATM   21  C   UNL     1     -39.985 -45.637  10.811  1.00  0.00     0.089 A 
HETATM   22  N   UNL     1     -40.066 -46.977  10.654  1.00  0.00    -0.352 N 
ATOM     23  HN  UNL     1     -39.232 -47.562  10.607  1.00  0.00     0.166 HD
ENDBRANCH   4  17
TORSDOF 4
ENDMDL
MODEL 4
REMARK VINA RESULT:      -6.2      2.266      7.063
REMARK  4 active torsions:
REMARK  status: ('A' for Active; 'I' for Inactive)
REMARK    1  A    between atoms: C_2  and  C_3 
REMARK    2  A    between atoms: C_2  and  N_15 
REMARK    3  A    between atoms: C_3  and  N_4 
REMARK       I    between atoms: N_4  and  C_5 
REMARK       I    between atoms: C_5  and  N_7 
REMARK    4  A    between atoms: N_7  and  C_8 
ROOT
HETATM    1  N   UNL     1     -40.648 -51.024  11.388  1.00  0.00    -0.341 N 
HETATM    2  C   UNL     1     -41.755 -51.366  12.123  1.00  0.00     0.321 C 
HETATM    3  O   UNL     1     -42.367 -50.553  12.807  1.00  0.00    -0.247 OA
HETATM    4  N   UNL     1     -42.108 -52.682  11.955  1.00  0.00    -0.295 N 
HETATM    5  H   UNL     1     -40.120 -51.724  10.885  1.00  0.00     0.164 HD
HETATM    6  H   UNL     1     -41.968 -53.053  11.029  1.00  0.00     0.172 HD
ENDROOT
BRANCH   1   7
HETATM    7  C   UNL     1     -40.277 -49.634  11.224  1.00  0.00     0.148 C 
BRANCH   7   8
HETATM    8  C   UNL     1     -38.983 -49.243  11.980  1.00  0.00     0.092 C 
HETATM    9  C   UNL     1     -37.840 -50.083  11.388  1.00  0.00     0.033 C 
BRANCH   8  10
HETATM   10  N   UNL     1     -39.131 -49.198  13.453  1.00  0.00    -0.407 N 
HETATM   11  C   UNL     1     -40.103 -48.218  13.960  1.00  0.00     0.117 C 
HETATM   12  C   UNL     1     -39.561 -46.796  14.136  1.00  0.00     0.024 C 
HETATM   13  C   UNL     1     -38.207 -46.725  14.858  1.00  0.00    -0.016 C 
HETATM   14  C   UNL     1     -38.396 -46.740  16.374  1.00  0.00     0.010 C 
HETATM   15  C   UNL     1     -37.246 -47.835  14.409  1.00  0.00     0.024 C 
HETATM   16  C   UNL     1     -37.922 -49.197  14.278  1.00  0.00     0.117 C 
ENDBRANCH   8  10
ENDBRANCH   7   8
ENDBRANCH   1   7
BRANCH   4  17
HETATM   17  C   UNL     1     -43.237 -53.219  12.580  1.00  0.00     0.108 A 
HETATM   18  C   UNL     1     -43.146 -54.206  13.551  1.00  0.00     0.049 A 
HETATM   19  C   UNL     1     -44.312 -54.655  14.164  1.00  0.00     0.005 A 
HETATM   20  C   UNL     1     -45.527 -54.093  13.797  1.00  0.00     0.017 A 
HETATM   21  C   UNL     1     -45.526 -53.129  12.801  1.00  0.00     0.089 A 
HETATM   22  N   UNL     1     -44.416 -52.708  12.156  1.00  0.00    -0.352 N 
ATOM     23  HN  UNL     1     -44.464 -52.038  11.388  1.00  0.00     0.166 HD
ENDBRANCH   4  17
TORSDOF 4
ENDMDL
MODEL 5
REMARK VINA RESULT:      -6.1      2.023      6.898
REMARK  4 active torsions:
REMARK  status: ('A' for Active; 'I' for Inactive)
REMARK    1  A    between atoms: C_2  and  C_3 
REMARK    2  A    between atoms: C_2  and  N_15 
REMARK    3  A    between atoms: C_3  and  N_4 
REMARK       I    between atoms: N_4  and  C_5 
REMARK       I    between atoms: C_5  and  N_7 
REMARK    4  A    between atoms: N_7  and  C_8 
ROOT
HETATM    1  N   UNL     1     -40.694 -51.983  11.798  1.00  0.00    -0.341 N 
HETATM    2  C   UNL     1     -41.766 -52.232  12.617  1.00  0.00     0.321 C 
HETATM    3  O   UNL     1     -41.765 -51.942  13.809  1.00  0.00    -0.247 OA
HETATM    4  N   UNL     1     -42.826 -52.782  11.940  1.00  0.00    -0.295 N 
HETATM    5  H   UNL     1     -40.691 -52.292  10.836  1.00  0.00     0.164 HD
HETATM    6  H   UNL     1     -42.962 -52.444  11.000  1.00  0.00     0.172 HD
ENDROOT
BRANCH   1   7
HETATM    7  C   UNL     1     -39.588 -51.172  12.263  1.00  0.00     0.148 C 
BRANCH   7   8
HETATM    8  C   UNL     1     -39.530 -49.769  11.612  1.00  0.00     0.092 C 
HETATM    9  C   UNL     1     -38.047 -49.378  11.509  1.00  0.00     0.033 C 
BRANCH   8  10
HETATM   10  N   UNL     1     -40.475 -48.789  12.195  1.00  0.00    -0.407 N 
HETATM   11  C   UNL     1     -41.816 -48.769  11.591  1.00  0.00     0.117 C 
HETATM   12  C   UNL     1     -41.950 -47.903  10.336  1.00  0.00     0.024 C 
HETATM   13  C   UNL     1     -41.333 -46.503  10.470  1.00  0.00    -0.016 C 
HETATM   14  C   UNL     1     -42.315 -45.535  11.128  1.00  0.00     0.010 C 
HETATM   15  C   UNL     1     -39.992 -46.524  11.216  1.00  0.00     0.024 C 
HETATM   16  C   UNL     1     -40.005 -47.427  12.447  1.00  0.00     0.117 C 
ENDBRANCH   8  10
ENDBRANCH   7   8
ENDBRANCH   1   7
BRANCH   4  17
HETATM   17  C   UNL     1     -44.033 -53.068  12.583  1.00  0.00     0.108 A 
HETATM   18  C   UNL     1     -44.339 -54.337  13.053  1.00  0.00     0.049 A 
HETATM   19  C   UNL     1     -45.540 -54.533  13.728  1.00  0.00     0.005 A 
HETATM   20  C   UNL     1     -46.388 -53.451  13.923  1.00  0.00     0.017 A 
HETATM   21  C   UNL     1     -46.013 -52.224  13.399  1.00  0.00     0.089 A 
HETATM   22  N   UNL     1     -44.876 -52.016  12.698  1.00  0.00    -0.352 N 
ATOM     23  HN  UNL     1     -44.664 -51.111  12.278  1.00  0.00     0.166 HD
ENDBRANCH   4  17
TORSDOF 4
ENDMDL
MODEL 6
REMARK VINA RESULT:      -6.0      2.479      7.025
REMARK  4 active torsions:
REMARK  status: ('A' for Active; 'I' for Inactive)
REMARK    1  A    between atoms: C_2  and  C_3 
REMARK    2  A    between atoms: C_2  and  N_15 
REMARK    3  A    between atoms: C_3  and  N_4 
REMARK       I    between atoms: N_4  and  C_5 
REMARK       I    between atoms: C_5  and  N_7 
REMARK    4  A    between atoms: N_7  and  C_8 
ROOT
HETATM    1  N   UNL     1     -40.682 -50.455  11.155  1.00  0.00    -0.341 N 
HETATM    2  C   UNL     1     -41.554 -51.058  12.024  1.00  0.00     0.321 C 
HETATM    3  O   UNL     1     -42.121 -50.443  12.921  1.00  0.00    -0.247 OA
HETATM    4  N   UNL     1     -41.746 -52.387  11.736  1.00  0.00    -0.295 N 
HETATM    5  H   UNL     1     -40.175 -50.995  10.467  1.00  0.00     0.164 HD
HETATM    6  H   UNL     1     -41.748 -52.621  10.756  1.00  0.00     0.172 HD
ENDROOT
BRANCH   1   7
HETATM    7  C   UNL     1     -40.551 -49.013  11.129  1.00  0.00     0.148 C 
BRANCH   7   8
HETATM    8  C   UNL     1     -39.402 -48.476  12.017  1.00  0.00     0.092 C 
HETATM    9  C   UNL     1     -38.225 -49.455  11.877  1.00  0.00     0.033 C 
BRANCH   8  10
HETATM   10  N   UNL     1     -39.824 -48.077  13.379  1.00  0.00    -0.407 N 
HETATM   11  C   UNL     1     -40.954 -47.137  13.440  1.00  0.00     0.117 C 
HETATM   12  C   UNL     1     -40.577 -45.659  13.302  1.00  0.00     0.024 C 
HETATM   13  C   UNL     1     -39.392 -45.228  14.178  1.00  0.00    -0.016 C 
HETATM   14  C   UNL     1     -39.857 -44.880  15.592  1.00  0.00     0.010 C 
HETATM   15  C   UNL     1     -38.274 -46.279  14.206  1.00  0.00     0.024 C 
HETATM   16  C   UNL     1     -38.794 -47.706  14.350  1.00  0.00     0.117 C 
ENDBRANCH   8  10
ENDBRANCH   7   8
ENDBRANCH   1   7
BRANCH   4  17
HETATM   17  C   UNL     1     -42.634 -53.173  12.474  1.00  0.00     0.108 A 
HETATM   18  C   UNL     1     -42.209 -54.012  13.495  1.00  0.00     0.049 A 
HETATM   19  C   UNL     1     -43.159 -54.725  14.219  1.00  0.00     0.005 A 
HETATM   20  C   UNL     1     -44.503 -54.565  13.909  1.00  0.00     0.017 A 
HETATM   21  C   UNL     1     -44.836 -53.724  12.858  1.00  0.00     0.089 A 
HETATM   22  N   UNL     1     -43.932 -53.056  12.108  1.00  0.00    -0.352 N 
ATOM     23  HN  UNL     1     -44.214 -52.492  11.306  1.00  0.00     0.166 HD
ENDBRANCH   4  17
TORSDOF 4
ENDMDL
MODEL 7
REMARK VINA RESULT:      -5.8      2.703      7.433
REMARK  4 active torsions:
REMARK  status: ('A' for Active; 'I' for Inactive)
REMARK    1  A    between atoms: C_2  and  C_3 
REMARK    2  A    between atoms: C_2  and  N_15 
REMARK    3  A    between atoms: C_3  and  N_4 
REMARK       I    between atoms: N_4  and  C_5 
REMARK       I    between atoms: C_5  and  N_7 
REMARK    4  A    between atoms: N_7  and  C_8 
ROOT
HETATM    1  N   UNL     1     -40.894 -50.311  11.372  1.00  0.00    -0.341 N 
HETATM    2  C   UNL     1     -41.229 -51.485  11.998  1.00  0.00     0.321 C 
HETATM    3  O   UNL     1     -40.396 -52.336  12.290  1.00  0.00    -0.247 OA
HETATM    4  N   UNL     1     -42.568 -51.557  12.292  1.00  0.00    -0.295 N 
HETATM    5  H   UNL     1     -41.605 -49.655  11.080  1.00  0.00     0.164 HD
HETATM    6  H   UNL     1     -43.000 -50.688  12.561  1.00  0.00     0.172 HD
ENDROOT
BRANCH   1   7
HETATM    7  C   UNL     1     -39.505 -49.933  11.217  1.00  0.00     0.148 C 
BRANCH   7   8
HETATM    8  C   UNL     1     -39.139 -48.607  11.929  1.00  0.00     0.092 C 
HETATM    9  C   UNL     1     -38.312 -48.973  13.172  1.00  0.00     0.033 C 
BRANCH   8  10
HETATM   10  N   UNL     1     -40.275 -47.672  12.093  1.00  0.00    -0.407 N 
HETATM   11  C   UNL     1     -40.654 -46.921  10.886  1.00  0.00     0.117 C 
HETATM   12  C   UNL     1     -39.851 -45.641  10.639  1.00  0.00     0.024 C 
HETATM   13  C   UNL     1     -39.698 -44.746  11.878  1.00  0.00    -0.016 C 
HETATM   14  C   UNL     1     -40.915 -43.837  12.048  1.00  0.00     0.010 C 
HETATM   15  C   UNL     1     -39.429 -45.556  13.154  1.00  0.00     0.024 C 
HETATM   16  C   UNL     1     -40.302 -46.802  13.269  1.00  0.00     0.117 C 
ENDBRANCH   8  10
ENDBRANCH   7   8
ENDBRANCH   1   7
BRANCH   4  17
HETATM   17  C   UNL     1     -43.107 -52.653  12.973  1.00  0.00     0.108 A 
HETATM   18  C   UNL     1     -44.218 -53.341  12.507  1.00  0.00     0.049 A 
HETATM   19  C   UNL     1     -44.666 -54.453  13.212  1.00  0.00     0.005 A 
HETATM   20  C   UNL     1     -43.979 -54.849  14.352  1.00  0.00     0.017 A 
HETATM   21  C   UNL     1     -42.894 -54.089  14.758  1.00  0.00     0.089 A 
HETATM   22  N   UNL     1     -42.466 -52.978  14.119  1.00  0.00    -0.352 N 
ATOM     23  HN  UNL     1     -41.698 -52.413  14.483  1.00  0.00     0.166 HD
ENDBRANCH   4  17
TORSDOF 4
ENDMDL
MODEL 8
REMARK VINA RESULT:      -5.8      2.397      4.044
REMARK  4 active torsions:
REMARK  status: ('A' for Active; 'I' for Inactive)
REMARK    1  A    between atoms: C_2  and  C_3 
REMARK    2  A    between atoms: C_2  and  N_15 
REMARK    3  A    between atoms: C_3  and  N_4 
REMARK       I    between atoms: N_4  and  C_5 
REMARK       I    between atoms: C_5  and  N_7 
REMARK    4  A    between atoms: N_7  and  C_8 
ROOT
HETATM    1  N   UNL     1     -40.658 -51.037  12.437  1.00  0.00    -0.341 N 
HETATM    2  C   UNL     1     -41.393 -49.892  12.257  1.00  0.00     0.321 C 
HETATM    3  O   UNL     1     -42.074 -49.401  13.150  1.00  0.00    -0.247 OA
HETATM    4  N   UNL     1     -41.230 -49.357  11.003  1.00  0.00    -0.295 N 
HETATM    5  H   UNL     1     -40.158 -51.461  11.668  1.00  0.00     0.164 HD
HETATM    6  H   UNL     1     -40.305 -49.443  10.612  1.00  0.00     0.172 HD
ENDROOT
BRANCH   1   7
HETATM    7  C   UNL     1     -40.489 -51.600  13.760  1.00  0.00     0.148 C 
BRANCH   7   8
HETATM    8  C   UNL     1     -41.296 -52.902  13.988  1.00  0.00     0.092 C 
HETATM    9  C   UNL     1     -40.998 -53.835  12.804  1.00  0.00     0.033 C 
BRANCH   8  10
HETATM   10  N   UNL     1     -42.710 -52.680  14.369  1.00  0.00    -0.407 N 
HETATM   11  C   UNL     1     -43.196 -53.492  15.496  1.00  0.00     0.117 C 
HETATM   12  C   UNL     1     -43.688 -54.893  15.122  1.00  0.00     0.024 C 
HETATM   13  C   UNL     1     -44.631 -54.926  13.911  1.00  0.00    -0.016 C 
HETATM   14  C   UNL     1     -46.071 -54.635  14.333  1.00  0.00     0.010 C 
HETATM   15  C   UNL     1     -44.179 -53.976  12.793  1.00  0.00     0.024 C 
HETATM   16  C   UNL     1     -43.718 -52.616  13.310  1.00  0.00     0.117 C 
ENDBRANCH   8  10
ENDBRANCH   7   8
ENDBRANCH   1   7
BRANCH   4  17
HETATM   17  C   UNL     1     -41.856 -48.164  10.633  1.00  0.00     0.108 A 
HETATM   18  C   UNL     1     -41.200 -46.942  10.663  1.00  0.00     0.049 A 
HETATM   19  C   UNL     1     -41.874 -45.805  10.230  1.00  0.00     0.005 A 
HETATM   20  C   UNL     1     -43.178 -45.930   9.769  1.00  0.00     0.017 A 
HETATM   21  C   UNL     1     -43.764 -47.185   9.796  1.00  0.00     0.089 A 
HETATM   22  N   UNL     1     -43.148 -48.297  10.255  1.00  0.00    -0.352 N 
ATOM     23  HN  UNL     1     -43.634 -49.193  10.313  1.00  0.00     0.166 HD
ENDBRANCH   4  17
TORSDOF 4
ENDMDL
MODEL 9
REMARK VINA RESULT:      -5.8      3.036      7.812
REMARK  4 active torsions:
REMARK  status: ('A' for Active; 'I' for Inactive)
REMARK    1  A    between atoms: C_2  and  C_3 
REMARK    2  A    between atoms: C_2  and  N_15 
REMARK    3  A    between atoms: C_3  and  N_4 
REMARK       I    between atoms: N_4  and  C_5 
REMARK       I    between atoms: C_5  and  N_7 
REMARK    4  A    between atoms: N_7  and  C_8 
ROOT
HETATM    1  N   UNL     1     -41.810 -49.664  11.497  1.00  0.00    -0.341 N 
HETATM    2  C   UNL     1     -42.877 -49.596  12.357  1.00  0.00     0.321 C 
HETATM    3  O   UNL     1     -43.371 -48.531  12.708  1.00  0.00    -0.247 OA
HETATM    4  N   UNL     1     -43.337 -50.838  12.719  1.00  0.00    -0.295 N 
HETATM    5  H   UNL     1     -41.376 -50.549  11.274  1.00  0.00     0.164 HD
HETATM    6  H   UNL     1     -43.298 -51.542  11.999  1.00  0.00     0.172 HD
ENDROOT
BRANCH   1   7
HETATM    7  C   UNL     1     -41.354 -48.481  10.799  1.00  0.00     0.148 C 
BRANCH   7   8
HETATM    8  C   UNL     1     -40.295 -47.667  11.583  1.00  0.00     0.092 C 
HETATM    9  C   UNL     1     -39.363 -48.677  12.271  1.00  0.00     0.033 C 
BRANCH   8  10
HETATM   10  N   UNL     1     -40.857 -46.564  12.396  1.00  0.00    -0.407 N 
HETATM   11  C   UNL     1     -41.306 -45.386  11.638  1.00  0.00     0.117 C 
HETATM   12  C   UNL     1     -40.211 -44.367  11.313  1.00  0.00     0.024 C 
HETATM   13  C   UNL     1     -39.315 -44.005  12.507  1.00  0.00    -0.016 C 
HETATM   14  C   UNL     1     -39.954 -42.906  13.356  1.00  0.00     0.010 C 
HETATM   15  C   UNL     1     -38.959 -45.229  13.363  1.00  0.00     0.024 C 
HETATM   16  C   UNL     1     -40.147 -46.155  13.608  1.00  0.00     0.117 C 
ENDBRANCH   8  10
ENDBRANCH   7   8
ENDBRANCH   1   7
BRANCH   4  17
HETATM   17  C   UNL     1     -44.447 -50.989  13.554  1.00  0.00     0.108 A 
HETATM   18  C   UNL     1     -45.686 -51.391  13.074  1.00  0.00     0.049 A 
HETATM   19  C   UNL     1     -46.731 -51.569  13.974  1.00  0.00     0.005 A 
HETATM   20  C   UNL     1     -46.501 -51.351  15.326  1.00  0.00     0.017 A 
HETATM   21  C   UNL     1     -45.240 -50.928  15.714  1.00  0.00     0.089 A 
HETATM   22  N   UNL     1     -44.220 -50.703  14.856  1.00  0.00    -0.352 N 
ATOM     23  HN  UNL     1     -43.323 -50.335  15.176  1.00  0.00     0.166 HD
ENDBRANCH   4  17
TORSDOF 4
ENDMDL
