MODEL 1
REMARK VINA RESULT:      -5.8      0.000      0.000
REMARK  5 active torsions:
REMARK  status: ('A' for Active; 'I' for Inactive)
REMARK    1  A    between atoms: C_2  and  O_3 
REMARK    2  A    between atoms: O_3  and  C_4 
REMARK    3  A    between atoms: C_8  and  N_9 
REMARK       I    between atoms: N_9  and  C_10 
REMARK       I    between atoms: C_10  and  N_12 
REMARK    4  A    between atoms: N_12  and  C_13 
REMARK    5  A    between atoms: C_13  and  C_14 
ROOT
HETATM    1  C   UNL     1     -43.308 -47.244   9.241  1.00  0.00     0.143 A 
HETATM    2  C   UNL     1     -42.934 -45.972   9.629  1.00  0.00     0.056 A 
HETATM    3  C   UNL     1     -41.838 -45.844  10.475  1.00  0.00     0.008 A 
HETATM    4  C   UNL     1     -41.150 -46.985  10.890  1.00  0.00     0.049 A 
HETATM    5  C   UNL     1     -41.583 -48.224  10.438  1.00  0.00     0.110 A 
HETATM    6  N   UNL     1     -42.659 -48.357   9.636  1.00  0.00    -0.323 N 
ATOM      7  HN  UNL     1     -42.975 -49.279   9.334  1.00  0.00     0.169 HD
ENDROOT
BRANCH   5   8
HETATM    8  N   UNL     1     -40.863 -49.369  10.813  1.00  0.00    -0.295 N 
HETATM    9  C   UNL     1     -41.250 -50.373  11.663  1.00  0.00     0.321 C 
HETATM   10  O   UNL     1     -40.510 -51.337  11.842  1.00  0.00    -0.247 OA
HETATM   11  N   UNL     1     -42.459 -50.231  12.260  1.00  0.00    -0.342 N 
HETATM   12  H   UNL     1     -42.934 -49.359  12.054  1.00  0.00     0.164 HD
HETATM   13  H   UNL     1     -39.962 -49.531  10.395  1.00  0.00     0.172 HD
BRANCH  11  14
HETATM   14  C   UNL     1     -43.086 -51.169  13.152  1.00  0.00     0.129 C 
BRANCH  14  15
HETATM   15  C   UNL     1     -44.432 -50.648  13.561  1.00  0.00     0.003 A 
HETATM   16  C   UNL     1     -45.100 -51.194  14.797  1.00  0.00     0.007 A 
HETATM   17  C   UNL     1     -45.664 -51.507  13.439  1.00  0.00     0.007 A 
ENDBRANCH  14  15
ENDBRANCH  11  14
ENDBRANCH   5   8
BRANCH   1  18
HETATM   18  O   UNL     1     -44.400 -47.364   8.400  1.00  0.00    -0.336 OA
BRANCH  18  19
HETATM   19  C   UNL     1     -45.638 -47.196   9.099  1.00  0.00     0.173 C 
HETATM   20  C   UNL     1     -46.568 -48.352   8.791  1.00  0.00     0.034 C 
ENDBRANCH  18  19
ENDBRANCH   1  18
TORSDOF 5
ENDMDL
MODEL 2
REMARK VINA RESULT:      -5.7      2.314      5.712
REMARK  5 active torsions:
REMARK  status: ('A' for Active; 'I' for Inactive)
REMARK    1  A    between atoms: C_2  and  O_3 
REMARK    2  A    between atoms: O_3  and  C_4 
REMARK    3  A    between atoms: C_8  and  N_9 
REMARK       I    between atoms: N_9  and  C_10 
REMARK       I    between atoms: C_10  and  N_12 
REMARK    4  A    between atoms: N_12  and  C_13 
REMARK    5  A    between atoms: C_13  and  C_14 
ROOT
HETATM    1  C   UNL     1     -43.871 -53.400  12.518  1.00  0.00     0.143 A 
HETATM    2  C   UNL     1     -43.453 -54.188  13.574  1.00  0.00     0.056 A 
HETATM    3  C   UNL     1     -42.104 -54.160  13.914  1.00  0.00     0.008 A 
HETATM    4  C   UNL     1     -41.230 -53.340  13.200  1.00  0.00     0.049 A 
HETATM    5  C   UNL     1     -41.737 -52.567  12.165  1.00  0.00     0.110 A 
HETATM    6  N   UNL     1     -43.040 -52.606  11.815  1.00  0.00    -0.323 N 
ATOM      7  HN  UNL     1     -43.388 -52.047  11.036  1.00  0.00     0.169 HD
ENDROOT
BRANCH   5   8
HETATM    8  N   UNL     1     -40.870 -51.704  11.478  1.00  0.00    -0.295 N 
HETATM    9  C   UNL     1     -40.982 -50.348  11.308  1.00  0.00     0.321 C 
HETATM   10  O   UNL     1     -40.098 -49.734  10.717  1.00  0.00    -0.247 OA
HETATM   11  N   UNL     1     -42.092 -49.762  11.821  1.00  0.00    -0.342 N 
HETATM   12  H   UNL     1     -42.758 -50.404  12.237  1.00  0.00     0.164 HD
HETATM   13  H   UNL     1     -40.025 -52.083  11.083  1.00  0.00     0.172 HD
BRANCH  11  14
HETATM   14  C   UNL     1     -42.404 -48.358  11.798  1.00  0.00     0.129 C 
BRANCH  14  15
HETATM   15  C   UNL     1     -42.821 -47.961  10.413  1.00  0.00     0.003 A 
HETATM   16  C   UNL     1     -43.077 -46.509  10.097  1.00  0.00     0.007 A 
HETATM   17  C   UNL     1     -44.223 -47.482  10.135  1.00  0.00     0.007 A 
ENDBRANCH  14  15
ENDBRANCH  11  14
ENDBRANCH   5   8
BRANCH   1  18
HETATM   18  O   UNL     1     -45.213 -53.433  12.185  1.00  0.00    -0.336 OA
BRANCH  18  19
HETATM   19  C   UNL     1     -46.047 -53.023  13.275  1.00  0.00     0.173 C 
HETATM   20  C   UNL     1     -46.321 -51.535  13.185  1.00  0.00     0.034 C 
ENDBRANCH  18  19
ENDBRANCH   1  18
TORSDOF 5
ENDMDL
MODEL 3
REMARK VINA RESULT:      -5.7      2.967      4.160
REMARK  5 active torsions:
REMARK  status: ('A' for Active; 'I' for Inactive)
REMARK    1  A    between atoms: C_2  and  O_3 
REMARK    2  A    between atoms: O_3  and  C_4 
REMARK    3  A    between atoms: C_8  and  N_9 
REMARK       I    between atoms: N_9  and  C_10 
REMARK       I    between atoms: C_10  and  N_12 
REMARK    4  A    between atoms: N_12  and  C_13 
REMARK    5  A    between atoms: C_13  and  C_14 
ROOT
HETATM    1  C   UNL     1     -40.645 -49.216  11.461  1.00  0.00     0.143 A 
HETATM    2  C   UNL     1     -39.418 -49.410  12.066  1.00  0.00     0.056 A 
HETATM    3  C   UNL     1     -39.148 -50.662  12.608  1.00  0.00     0.008 A 
HETATM    4  C   UNL     1     -40.104 -51.674  12.514  1.00  0.00     0.049 A 
HETATM    5  C   UNL     1     -41.304 -51.399  11.873  1.00  0.00     0.110 A 
HETATM    6  N   UNL     1     -41.581 -50.180  11.366  1.00  0.00    -0.323 N 
ATOM      7  HN  UNL     1     -42.479 -49.993  10.919  1.00  0.00     0.169 HD
ENDROOT
BRANCH   5   8
HETATM    8  N   UNL     1     -42.247 -52.429  11.733  1.00  0.00    -0.295 N 
HETATM    9  C   UNL     1     -43.274 -52.759  12.578  1.00  0.00     0.321 C 
HETATM   10  O   UNL     1     -44.044 -53.667  12.275  1.00  0.00    -0.247 OA
HETATM   11  N   UNL     1     -43.375 -52.038  13.722  1.00  0.00    -0.342 N 
HETATM   12  H   UNL     1     -42.637 -51.356  13.859  1.00  0.00     0.164 HD
HETATM   13  H   UNL     1     -42.226 -52.993  10.899  1.00  0.00     0.172 HD
BRANCH  11  14
HETATM   14  C   UNL     1     -44.388 -52.178  14.733  1.00  0.00     0.129 C 
BRANCH  14  15
HETATM   15  C   UNL     1     -45.490 -51.193  14.476  1.00  0.00     0.003 A 
HETATM   16  C   UNL     1     -46.866 -51.449  15.038  1.00  0.00     0.007 A 
HETATM   17  C   UNL     1     -46.634 -51.536  13.555  1.00  0.00     0.007 A 
ENDBRANCH  14  15
ENDBRANCH  11  14
ENDBRANCH   5   8
BRANCH   1  18
HETATM   18  O   UNL     1     -40.906 -47.968  10.925  1.00  0.00    -0.336 OA
BRANCH  18  19
HETATM   19  C   UNL     1     -40.120 -46.943  11.541  1.00  0.00     0.173 C 
HETATM   20  C   UNL     1     -39.966 -45.770  10.595  1.00  0.00     0.034 C 
ENDBRANCH  18  19
ENDBRANCH   1  18
TORSDOF 5
ENDMDL
MODEL 4
REMARK VINA RESULT:      -5.6      3.743      6.042
REMARK  5 active torsions:
REMARK  status: ('A' for Active; 'I' for Inactive)
REMARK    1  A    between atoms: C_2  and  O_3 
REMARK    2  A    between atoms: O_3  and  C_4 
REMARK    3  A    between atoms: C_8  and  N_9 
REMARK       I    between atoms: N_9  and  C_10 
REMARK       I    between atoms: C_10  and  N_12 
REMARK    4  A    between atoms: N_12  and  C_13 
REMARK    5  A    between atoms: C_13  and  C_14 
ROOT
HETATM    1  C   UNL     1     -43.857 -53.403  12.563  1.00  0.00     0.143 A 
HETATM    2  C   UNL     1     -43.361 -54.223  13.559  1.00  0.00     0.056 A 
HETATM    3  C   UNL     1     -41.990 -54.204  13.797  1.00  0.00     0.008 A 
HETATM    4  C   UNL     1     -41.171 -53.361  13.044  1.00  0.00     0.049 A 
HETATM    5  C   UNL     1     -41.755 -52.556  12.075  1.00  0.00     0.110 A 
HETATM    6  N   UNL     1     -43.081 -52.587  11.824  1.00  0.00    -0.323 N 
ATOM      7  HN  UNL     1     -43.486 -52.004  11.091  1.00  0.00     0.169 HD
ENDROOT
BRANCH   5   8
HETATM    8  N   UNL     1     -40.941 -51.671  11.352  1.00  0.00    -0.295 N 
HETATM    9  C   UNL     1     -40.483 -50.437  11.734  1.00  0.00     0.321 C 
HETATM   10  O   UNL     1     -39.731 -49.810  10.992  1.00  0.00    -0.247 OA
HETATM   11  N   UNL     1     -40.901 -49.981  12.941  1.00  0.00    -0.342 N 
HETATM   12  H   UNL     1     -41.560 -50.586  13.418  1.00  0.00     0.164 HD
HETATM   13  H   UNL     1     -40.594 -51.960  10.452  1.00  0.00     0.172 HD
BRANCH  11  14
HETATM   14  C   UNL     1     -40.522 -48.740  13.563  1.00  0.00     0.129 C 
BRANCH  14  15
HETATM   15  C   UNL     1     -39.262 -48.941  14.352  1.00  0.00     0.003 A 
HETATM   16  C   UNL     1     -38.502 -47.744  14.863  1.00  0.00     0.007 A 
HETATM   17  C   UNL     1     -37.918 -48.591  13.767  1.00  0.00     0.007 A 
ENDBRANCH  14  15
ENDBRANCH  11  14
ENDBRANCH   5   8
BRANCH   1  18
HETATM   18  O   UNL     1     -45.220 -53.427  12.331  1.00  0.00    -0.336 OA
BRANCH  18  19
HETATM   19  C   UNL     1     -45.968 -53.028  13.485  1.00  0.00     0.173 C 
HETATM   20  C   UNL     1     -46.427 -51.592  13.331  1.00  0.00     0.034 C 
ENDBRANCH  18  19
ENDBRANCH   1  18
TORSDOF 5
ENDMDL
MODEL 5
REMARK VINA RESULT:      -5.1      2.363      3.577
REMARK  5 active torsions:
REMARK  status: ('A' for Active; 'I' for Inactive)
REMARK    1  A    between atoms: C_2  and  O_3 
REMARK    2  A    between atoms: O_3  and  C_4 
REMARK    3  A    between atoms: C_8  and  N_9 
REMARK       I    between atoms: N_9  and  C_10 
REMARK       I    between atoms: C_10  and  N_12 
REMARK    4  A    between atoms: N_12  and  C_13 
REMARK    5  A    between atoms: C_13  and  C_14 
ROOT
HETATM    1  C   UNL     1     -43.162 -46.952   9.581  1.00  0.00     0.143 A 
HETATM    2  C   UNL     1     -42.378 -45.892   9.994  1.00  0.00     0.056 A 
HETATM    3  C   UNL     1     -41.392 -46.140  10.944  1.00  0.00     0.008 A 
HETATM    4  C   UNL     1     -41.218 -47.435  11.434  1.00  0.00     0.049 A 
HETATM    5  C   UNL     1     -42.038 -48.446  10.951  1.00  0.00     0.110 A 
HETATM    6  N   UNL     1     -43.010 -48.207  10.047  1.00  0.00    -0.323 N 
ATOM      7  HN  UNL     1     -43.617 -48.961   9.722  1.00  0.00     0.169 HD
ENDROOT
BRANCH   5   8
HETATM    8  N   UNL     1     -41.831 -49.758  11.404  1.00  0.00    -0.295 N 
HETATM    9  C   UNL     1     -40.642 -50.423  11.561  1.00  0.00     0.321 C 
HETATM   10  O   UNL     1     -40.638 -51.562  12.021  1.00  0.00    -0.247 OA
HETATM   11  N   UNL     1     -39.520 -49.758  11.189  1.00  0.00    -0.342 N 
HETATM   12  H   UNL     1     -39.685 -48.845  10.779  1.00  0.00     0.164 HD
HETATM   13  H   UNL     1     -42.627 -50.297  11.702  1.00  0.00     0.172 HD
BRANCH  11  14
HETATM   14  C   UNL     1     -38.169 -50.236  11.298  1.00  0.00     0.129 C 
BRANCH  14  15
HETATM   15  C   UNL     1     -37.487 -49.552  12.447  1.00  0.00     0.003 A 
HETATM   16  C   UNL     1     -37.489 -50.200  13.808  1.00  0.00     0.007 A 
HETATM   17  C   UNL     1     -38.288 -48.948  13.572  1.00  0.00     0.007 A 
ENDBRANCH  14  15
ENDBRANCH  11  14
ENDBRANCH   5   8
BRANCH   1  18
HETATM   18  O   UNL     1     -44.141 -46.698   8.637  1.00  0.00    -0.336 OA
BRANCH  18  19
HETATM   19  C   UNL     1     -45.191 -47.670   8.677  1.00  0.00     0.173 C 
HETATM   20  C   UNL     1     -46.492 -47.009   9.086  1.00  0.00     0.034 C 
ENDBRANCH  18  19
ENDBRANCH   1  18
TORSDOF 5
ENDMDL
MODEL 6
REMARK VINA RESULT:      -5.0      4.900      6.763
REMARK  5 active torsions:
REMARK  status: ('A' for Active; 'I' for Inactive)
REMARK    1  A    between atoms: C_2  and  O_3 
REMARK    2  A    between atoms: O_3  and  C_4 
REMARK    3  A    between atoms: C_8  and  N_9 
REMARK       I    between atoms: N_9  and  C_10 
REMARK       I    between atoms: C_10  and  N_12 
REMARK    4  A    between atoms: N_12  and  C_13 
REMARK    5  A    between atoms: C_13  and  C_14 
ROOT
HETATM    1  C   UNL     1     -40.069 -53.166  13.261  1.00  0.00     0.143 A 
HETATM    2  C   UNL     1     -40.017 -51.804  13.034  1.00  0.00     0.056 A 
HETATM    3  C   UNL     1     -41.173 -51.173  12.587  1.00  0.00     0.008 A 
HETATM    4  C   UNL     1     -42.337 -51.919  12.397  1.00  0.00     0.049 A 
HETATM    5  C   UNL     1     -42.306 -53.281  12.667  1.00  0.00     0.110 A 
HETATM    6  N   UNL     1     -41.182 -53.903  13.079  1.00  0.00    -0.323 N 
ATOM      7  HN  UNL     1     -41.175 -54.909  13.249  1.00  0.00     0.169 HD
ENDROOT
BRANCH   5   8
HETATM    8  N   UNL     1     -43.487 -54.024  12.525  1.00  0.00    -0.295 N 
HETATM    9  C   UNL     1     -44.507 -54.175  13.429  1.00  0.00     0.321 C 
HETATM   10  O   UNL     1     -45.502 -54.827  13.121  1.00  0.00    -0.247 OA
HETATM   11  N   UNL     1     -44.345 -53.575  14.634  1.00  0.00    -0.342 N 
HETATM   12  H   UNL     1     -43.449 -53.115  14.761  1.00  0.00     0.164 HD
HETATM   13  H   UNL     1     -43.666 -54.485  11.648  1.00  0.00     0.172 HD
BRANCH  11  14
HETATM   14  C   UNL     1     -45.292 -53.563  15.717  1.00  0.00     0.129 C 
BRANCH  14  15
HETATM   15  C   UNL     1     -45.758 -52.157  15.957  1.00  0.00     0.003 A 
HETATM   16  C   UNL     1     -47.086 -51.707  15.405  1.00  0.00     0.007 A 
HETATM   17  C   UNL     1     -45.810 -51.156  14.832  1.00  0.00     0.007 A 
ENDBRANCH  14  15
ENDBRANCH  11  14
ENDBRANCH   5   8
BRANCH   1  18
HETATM   18  O   UNL     1     -38.915 -53.787  13.705  1.00  0.00    -0.336 OA
BRANCH  18  19
HETATM   19  C   UNL     1     -39.178 -54.716  14.763  1.00  0.00     0.173 C 
HETATM   20  C   UNL     1     -39.045 -54.023  16.104  1.00  0.00     0.034 C 
ENDBRANCH  18  19
ENDBRANCH   1  18
TORSDOF 5
ENDMDL
MODEL 7
REMARK VINA RESULT:      -5.0      3.320      4.196
REMARK  5 active torsions:
REMARK  status: ('A' for Active; 'I' for Inactive)
REMARK    1  A    between atoms: C_2  and  O_3 
REMARK    2  A    between atoms: O_3  and  C_4 
REMARK    3  A    between atoms: C_8  and  N_9 
REMARK       I    between atoms: N_9  and  C_10 
REMARK       I    between atoms: C_10  and  N_12 
REMARK    4  A    between atoms: N_12  and  C_13 
REMARK    5  A    between atoms: C_13  and  C_14 
ROOT
HETATM    1  C   UNL     1     -40.129 -47.346  11.660  1.00  0.00     0.143 A 
HETATM    2  C   UNL     1     -40.091 -46.577  12.807  1.00  0.00     0.056 A 
HETATM    3  C   UNL     1     -39.189 -46.937  13.804  1.00  0.00     0.008 A 
HETATM    4  C   UNL     1     -38.353 -48.037  13.611  1.00  0.00     0.049 A 
HETATM    5  C   UNL     1     -38.444 -48.744  12.420  1.00  0.00     0.110 A 
HETATM    6  N   UNL     1     -39.333 -48.413  11.459  1.00  0.00    -0.323 N 
ATOM      7  HN  UNL     1     -39.400 -48.960  10.600  1.00  0.00     0.169 HD
ENDROOT
BRANCH   5   8
HETATM    8  N   UNL     1     -37.570 -49.819  12.203  1.00  0.00    -0.295 N 
HETATM    9  C   UNL     1     -37.678 -51.106  12.664  1.00  0.00     0.321 C 
HETATM   10  O   UNL     1     -36.842 -51.943  12.335  1.00  0.00    -0.247 OA
HETATM   11  N   UNL     1     -38.733 -51.374  13.472  1.00  0.00    -0.342 N 
HETATM   12  H   UNL     1     -39.311 -50.571  13.697  1.00  0.00     0.164 HD
HETATM   13  H   UNL     1     -36.773 -49.680  11.604  1.00  0.00     0.172 HD
BRANCH  11  14
HETATM   14  C   UNL     1     -39.071 -52.652  14.039  1.00  0.00     0.129 C 
BRANCH  14  15
HETATM   15  C   UNL     1     -40.517 -52.952  13.773  1.00  0.00     0.003 A 
HETATM   16  C   UNL     1     -41.152 -54.172  14.389  1.00  0.00     0.007 A 
HETATM   17  C   UNL     1     -40.918 -54.116  12.905  1.00  0.00     0.007 A 
ENDBRANCH  14  15
ENDBRANCH  11  14
ENDBRANCH   5   8
BRANCH   1  18
HETATM   18  O   UNL     1     -41.029 -46.982  10.674  1.00  0.00    -0.336 OA
BRANCH  18  19
HETATM   19  C   UNL     1     -41.936 -48.044  10.356  1.00  0.00     0.173 C 
HETATM   20  C   UNL     1     -43.285 -47.780  10.992  1.00  0.00     0.034 C 
ENDBRANCH  18  19
ENDBRANCH   1  18
TORSDOF 5
ENDMDL
MODEL 8
REMARK VINA RESULT:      -5.0      4.187      6.217
REMARK  5 active torsions:
REMARK  status: ('A' for Active; 'I' for Inactive)
REMARK    1  A    between atoms: C_2  and  O_3 
REMARK    2  A    between atoms: O_3  and  C_4 
REMARK    3  A    between atoms: C_8  and  N_9 
REMARK       I    between atoms: N_9  and  C_10 
REMARK       I    between atoms: C_10  and  N_12 
REMARK    4  A    between atoms: N_12  and  C_13 
REMARK    5  A    between atoms: C_13  and  C_14 
ROOT
HETATM    1  C   UNL     1     -44.329 -53.097  12.640  1.00  0.00     0.143 A 
HETATM    2  C   UNL     1     -45.140 -52.087  13.120  1.00  0.00     0.056 A 
HETATM    3  C   UNL     1     -44.565 -50.840  13.346  1.00  0.00     0.008 A 
HETATM    4  C   UNL     1     -43.211 -50.646  13.072  1.00  0.00     0.049 A 
HETATM    5  C   UNL     1     -42.472 -51.711  12.573  1.00  0.00     0.110 A 
HETATM    6  N   UNL     1     -43.019 -52.929  12.374  1.00  0.00    -0.323 N 
ATOM      7  HN  UNL     1     -42.453 -53.704  12.029  1.00  0.00     0.169 HD
ENDROOT
BRANCH   5   8
HETATM    8  N   UNL     1     -41.123 -51.505  12.249  1.00  0.00    -0.295 N 
HETATM    9  C   UNL     1     -40.013 -51.904  12.947  1.00  0.00     0.321 C 
HETATM   10  O   UNL     1     -38.894 -51.682  12.490  1.00  0.00    -0.247 OA
HETATM   11  N   UNL     1     -40.232 -52.536  14.126  1.00  0.00    -0.342 N 
HETATM   12  H   UNL     1     -41.207 -52.602  14.397  1.00  0.00     0.164 HD
HETATM   13  H   UNL     1     -40.900 -51.047  11.380  1.00  0.00     0.172 HD
BRANCH  11  14
HETATM   14  C   UNL     1     -39.229 -53.075  15.005  1.00  0.00     0.129 C 
BRANCH  14  15
HETATM   15  C   UNL     1     -39.253 -54.574  14.932  1.00  0.00     0.003 A 
HETATM   16  C   UNL     1     -39.878 -55.366  16.052  1.00  0.00     0.007 A 
HETATM   17  C   UNL     1     -38.389 -55.406  15.844  1.00  0.00     0.007 A 
ENDBRANCH  14  15
ENDBRANCH  11  14
ENDBRANCH   5   8
BRANCH   1  18
HETATM   18  O   UNL     1     -44.907 -54.334  12.418  1.00  0.00    -0.336 OA
BRANCH  18  19
HETATM   19  C   UNL     1     -45.336 -54.953  13.636  1.00  0.00     0.173 C 
HETATM   20  C   UNL     1     -44.147 -55.174  14.550  1.00  0.00     0.034 C 
ENDBRANCH  18  19
ENDBRANCH   1  18
TORSDOF 5
ENDMDL
MODEL 9
REMARK VINA RESULT:      -4.9      4.361      6.176
REMARK  5 active torsions:
REMARK  status: ('A' for Active; 'I' for Inactive)
REMARK    1  A    between atoms: C_2  and  O_3 
REMARK    2  A    between atoms: O_3  and  C_4 
REMARK    3  A    between atoms: C_8  and  N_9 
REMARK       I    between atoms: N_9  and  C_10 
REMARK       I    between atoms: C_10  and  N_12 
REMARK    4  A    between atoms: N_12  and  C_13 
REMARK    5  A    between atoms: C_13  and  C_14 
ROOT
HETATM    1  C   UNL     1     -39.725 -51.850  13.347  1.00  0.00     0.143 A 
HETATM    2  C   UNL     1     -39.022 -52.789  14.079  1.00  0.00     0.056 A 
HETATM    3  C   UNL     1     -39.617 -54.028  14.292  1.00  0.00     0.008 A 
HETATM    4  C   UNL     1     -40.880 -54.288  13.758  1.00  0.00     0.049 A 
HETATM    5  C   UNL     1     -41.509 -53.294  13.020  1.00  0.00     0.110 A 
HETATM    6  N   UNL     1     -40.947 -52.082  12.829  1.00  0.00    -0.323 N 
ATOM      7  HN  UNL     1     -41.436 -51.358  12.302  1.00  0.00     0.169 HD
ENDROOT
BRANCH   5   8
HETATM    8  N   UNL     1     -42.756 -53.570  12.440  1.00  0.00    -0.295 N 
HETATM    9  C   UNL     1     -43.962 -52.973  12.700  1.00  0.00     0.321 C 
HETATM   10  O   UNL     1     -44.956 -53.304  12.058  1.00  0.00    -0.247 OA
HETATM   11  N   UNL     1     -43.975 -52.028  13.672  1.00  0.00    -0.342 N 
HETATM   12  H   UNL     1     -43.089 -51.898  14.149  1.00  0.00     0.164 HD
HETATM   13  H   UNL     1     -42.805 -54.256  11.705  1.00  0.00     0.172 HD
BRANCH  11  14
HETATM   14  C   UNL     1     -45.109 -51.246  14.088  1.00  0.00     0.129 C 
BRANCH  14  15
HETATM   15  C   UNL     1     -45.783 -51.919  15.247  1.00  0.00     0.003 A 
HETATM   16  C   UNL     1     -47.153 -52.521  15.066  1.00  0.00     0.007 A 
HETATM   17  C   UNL     1     -46.980 -51.293  15.915  1.00  0.00     0.007 A 
ENDBRANCH  14  15
ENDBRANCH  11  14
ENDBRANCH   5   8
BRANCH   1  18
HETATM   18  O   UNL     1     -39.127 -50.620  13.140  1.00  0.00    -0.336 OA
BRANCH  18  19
HETATM   19  C   UNL     1     -38.962 -50.332  11.747  1.00  0.00     0.173 C 
HETATM   20  C   UNL     1     -37.555 -49.835  11.486  1.00  0.00     0.034 C 
ENDBRANCH  18  19
ENDBRANCH   1  18
TORSDOF 5
ENDMDL
