MODEL 1
REMARK VINA RESULT:      -6.5      0.000      0.000
REMARK  4 active torsions:
REMARK  status: ('A' for Active; 'I' for Inactive)
REMARK    1  A    between atoms: C_4  and  N_5 
REMARK       I    between atoms: N_5  and  C_6 
REMARK       I    between atoms: C_6  and  N_8 
REMARK    2  A    between atoms: N_8  and  C_9 
REMARK    3  A    between atoms: C_9  and  C_10 
REMARK    4  A    between atoms: C_10  and  C_13 
ROOT
HETATM    1  N   UNL     1     -41.465 -50.059  11.356  1.00  0.00    -0.308 N 
HETATM    2  C   UNL     1     -41.977 -50.542  12.544  1.00  0.00     0.320 C 
HETATM    3  O   UNL     1     -42.362 -49.844  13.475  1.00  0.00    -0.247 OA
HETATM    4  N   UNL     1     -42.026 -51.919  12.598  1.00  0.00    -0.342 N 
HETATM    5  H   UNL     1     -40.948 -50.714  10.791  1.00  0.00     0.170 HD
HETATM    6  H   UNL     1     -41.412 -52.435  11.986  1.00  0.00     0.164 HD
ENDROOT
BRANCH   1   7
HETATM    7  C   UNL     1     -41.386 -48.722  11.021  1.00  0.00     0.052 A 
HETATM    8  C   UNL     1     -42.337 -48.060  10.336  1.00  0.00     0.123 A 
HETATM    9  N   UNL     1     -42.247 -46.707  10.064  1.00  0.00    -0.327 N 
HETATM   10  C   UNL     1     -43.340 -46.046   9.372  1.00  0.00     0.159 C 
HETATM   11  C   UNL     1     -41.179 -45.933  10.503  1.00  0.00     0.247 A 
HETATM   12  C   UNL     1     -40.109 -46.667  11.231  1.00  0.00     0.077 A 
HETATM   13  O   UNL     1     -41.070 -44.722  10.328  1.00  0.00    -0.268 OA
HETATM   14  C   UNL     1     -40.214 -47.987  11.451  1.00  0.00     0.036 A 
ENDBRANCH   1   7
BRANCH   4  15
HETATM   15  C   UNL     1     -42.400 -52.531  13.863  1.00  0.00     0.133 C 
BRANCH  15  16
HETATM   16  C   UNL     1     -43.698 -53.379  13.852  1.00  0.00    -0.028 C 
HETATM   17  C   UNL     1     -44.074 -53.715  12.394  1.00  0.00     0.016 C 
HETATM   18  C   UNL     1     -43.463 -54.699  14.615  1.00  0.00     0.016 C 
BRANCH  16  19
HETATM   19  C   UNL     1     -44.813 -52.553  14.584  1.00  0.00    -0.005 C 
HETATM   20  C   UNL     1     -45.852 -53.357  15.384  1.00  0.00     0.005 C 
HETATM   21  C   UNL     1     -47.140 -52.528  15.379  1.00  0.00     0.000 C 
HETATM   22  C   UNL     1     -46.831 -51.259  14.600  1.00  0.00     0.000 C 
HETATM   23  C   UNL     1     -45.677 -51.649  13.692  1.00  0.00     0.005 C 
ENDBRANCH  16  19
ENDBRANCH  15  16
ENDBRANCH   4  15
TORSDOF 4
ENDMDL
MODEL 2
REMARK VINA RESULT:      -6.1      2.766      7.435
REMARK  4 active torsions:
REMARK  status: ('A' for Active; 'I' for Inactive)
REMARK    1  A    between atoms: C_4  and  N_5 
REMARK       I    between atoms: N_5  and  C_6 
REMARK       I    between atoms: C_6  and  N_8 
REMARK    2  A    between atoms: N_8  and  C_9 
REMARK    3  A    between atoms: C_9  and  C_10 
REMARK    4  A    between atoms: C_10  and  C_13 
ROOT
HETATM    1  N   UNL     1     -42.247 -52.446  11.902  1.00  0.00    -0.308 N 
HETATM    2  C   UNL     1     -41.517 -51.312  12.200  1.00  0.00     0.320 C 
HETATM    3  O   UNL     1     -41.704 -50.596  13.177  1.00  0.00    -0.247 OA
HETATM    4  N   UNL     1     -40.524 -51.045  11.281  1.00  0.00    -0.342 N 
HETATM    5  H   UNL     1     -42.177 -52.790  10.958  1.00  0.00     0.170 HD
HETATM    6  H   UNL     1     -40.621 -51.439  10.357  1.00  0.00     0.164 HD
ENDROOT
BRANCH   1   7
HETATM    7  C   UNL     1     -43.240 -52.973  12.704  1.00  0.00     0.052 A 
HETATM    8  C   UNL     1     -44.469 -52.437  12.831  1.00  0.00     0.123 A 
HETATM    9  N   UNL     1     -45.456 -53.023  13.603  1.00  0.00    -0.327 N 
HETATM   10  C   UNL     1     -46.777 -52.421  13.644  1.00  0.00     0.159 C 
HETATM   11  C   UNL     1     -45.253 -54.219  14.281  1.00  0.00     0.247 A 
HETATM   12  C   UNL     1     -43.885 -54.796  14.172  1.00  0.00     0.077 A 
HETATM   13  O   UNL     1     -46.105 -54.803  14.945  1.00  0.00    -0.268 OA
HETATM   14  C   UNL     1     -42.942 -54.185  13.439  1.00  0.00     0.036 A 
ENDBRANCH   1   7
BRANCH   4  15
HETATM   15  C   UNL     1     -39.802 -49.790  11.415  1.00  0.00     0.133 C 
BRANCH  15  16
HETATM   16  C   UNL     1     -38.390 -49.881  12.050  1.00  0.00    -0.028 C 
HETATM   17  C   UNL     1     -38.293 -51.171  12.891  1.00  0.00     0.016 C 
HETATM   18  C   UNL     1     -37.323 -49.939  10.937  1.00  0.00     0.016 C 
BRANCH  16  19
HETATM   19  C   UNL     1     -38.169 -48.587  12.908  1.00  0.00    -0.005 C 
HETATM   20  C   UNL     1     -37.598 -48.787  14.322  1.00  0.00     0.005 C 
HETATM   21  C   UNL     1     -38.122 -47.625  15.171  1.00  0.00     0.000 C 
HETATM   22  C   UNL     1     -38.966 -46.764  14.245  1.00  0.00     0.000 C 
HETATM   23  C   UNL     1     -39.412 -47.718  13.150  1.00  0.00     0.005 C 
ENDBRANCH  16  19
ENDBRANCH  15  16
ENDBRANCH   4  15
TORSDOF 4
ENDMDL
MODEL 3
REMARK VINA RESULT:      -6.1      3.163      7.611
REMARK  4 active torsions:
REMARK  status: ('A' for Active; 'I' for Inactive)
REMARK    1  A    between atoms: C_4  and  N_5 
REMARK       I    between atoms: N_5  and  C_6 
REMARK       I    between atoms: C_6  and  N_8 
REMARK    2  A    between atoms: N_8  and  C_9 
REMARK    3  A    between atoms: C_9  and  C_10 
REMARK    4  A    between atoms: C_10  and  C_13 
ROOT
HETATM    1  N   UNL     1     -42.730 -51.822  12.139  1.00  0.00    -0.308 N 
HETATM    2  C   UNL     1     -41.493 -51.787  12.753  1.00  0.00     0.320 C 
HETATM    3  O   UNL     1     -41.292 -52.042  13.934  1.00  0.00    -0.247 OA
HETATM    4  N   UNL     1     -40.470 -51.433  11.899  1.00  0.00    -0.342 N 
HETATM    5  H   UNL     1     -42.806 -51.345  11.254  1.00  0.00     0.170 HD
HETATM    6  H   UNL     1     -40.711 -50.921  11.064  1.00  0.00     0.164 HD
ENDROOT
BRANCH   1   7
HETATM    7  C   UNL     1     -43.899 -52.224  12.752  1.00  0.00     0.052 A 
HETATM    8  C   UNL     1     -44.245 -53.511  12.947  1.00  0.00     0.123 A 
HETATM    9  N   UNL     1     -45.401 -53.875  13.613  1.00  0.00    -0.327 N 
HETATM   10  C   UNL     1     -45.677 -55.283  13.839  1.00  0.00     0.159 C 
HETATM   11  C   UNL     1     -46.273 -52.936  14.149  1.00  0.00     0.247 A 
HETATM   12  C   UNL     1     -45.914 -51.513  13.906  1.00  0.00     0.077 A 
HETATM   13  O   UNL     1     -47.289 -53.204  14.785  1.00  0.00    -0.268 OA
HETATM   14  C   UNL     1     -44.801 -51.194  13.229  1.00  0.00     0.036 A 
ENDBRANCH   1   7
BRANCH   4  15
HETATM   15  C   UNL     1     -39.155 -51.212  12.479  1.00  0.00     0.133 C 
BRANCH  15  16
HETATM   16  C   UNL     1     -38.602 -49.766  12.382  1.00  0.00    -0.028 C 
HETATM   17  C   UNL     1     -37.388 -49.749  11.431  1.00  0.00     0.016 C 
HETATM   18  C   UNL     1     -39.689 -48.833  11.809  1.00  0.00     0.016 C 
BRANCH  16  19
HETATM   19  C   UNL     1     -38.234 -49.298  13.833  1.00  0.00    -0.005 C 
HETATM   20  C   UNL     1     -37.674 -47.873  13.976  1.00  0.00     0.005 C 
HETATM   21  C   UNL     1     -36.764 -47.885  15.207  1.00  0.00     0.000 C 
HETATM   22  C   UNL     1     -36.820 -49.296  15.769  1.00  0.00     0.000 C 
HETATM   23  C   UNL     1     -37.202 -50.158  14.578  1.00  0.00     0.005 C 
ENDBRANCH  16  19
ENDBRANCH  15  16
ENDBRANCH   4  15
TORSDOF 4
ENDMDL
MODEL 4
REMARK VINA RESULT:      -5.9      2.417      7.291
REMARK  4 active torsions:
REMARK  status: ('A' for Active; 'I' for Inactive)
REMARK    1  A    between atoms: C_4  and  N_5 
REMARK       I    between atoms: N_5  and  C_6 
REMARK       I    between atoms: C_6  and  N_8 
REMARK    2  A    between atoms: N_8  and  C_9 
REMARK    3  A    between atoms: C_9  and  C_10 
REMARK    4  A    between atoms: C_10  and  C_13 
ROOT
HETATM    1  N   UNL     1     -41.368 -50.902  11.364  1.00  0.00    -0.308 N 
HETATM    2  C   UNL     1     -40.911 -49.678  11.813  1.00  0.00     0.320 C 
HETATM    3  O   UNL     1     -40.692 -49.402  12.987  1.00  0.00    -0.247 OA
HETATM    4  N   UNL     1     -40.711 -48.766  10.799  1.00  0.00    -0.342 N 
HETATM    5  H   UNL     1     -41.756 -50.923  10.434  1.00  0.00     0.170 HD
HETATM    6  H   UNL     1     -41.206 -48.910   9.932  1.00  0.00     0.164 HD
ENDROOT
BRANCH   1   7
HETATM    7  C   UNL     1     -41.569 -52.007  12.167  1.00  0.00     0.052 A 
HETATM    8  C   UNL     1     -40.575 -52.747  12.694  1.00  0.00     0.123 A 
HETATM    9  N   UNL     1     -40.815 -53.816  13.537  1.00  0.00    -0.327 N 
HETATM   10  C   UNL     1     -39.690 -54.530  14.116  1.00  0.00     0.159 C 
HETATM   11  C   UNL     1     -42.099 -54.185  13.918  1.00  0.00     0.247 A 
HETATM   12  C   UNL     1     -43.203 -53.393  13.312  1.00  0.00     0.077 A 
HETATM   13  O   UNL     1     -42.366 -55.097  14.696  1.00  0.00    -0.268 OA
HETATM   14  C   UNL     1     -42.936 -52.381  12.472  1.00  0.00     0.036 A 
ENDBRANCH   1   7
BRANCH   4  15
HETATM   15  C   UNL     1     -40.383 -47.400  11.177  1.00  0.00     0.133 C 
BRANCH  15  16
HETATM   16  C   UNL     1     -41.563 -46.395  11.187  1.00  0.00    -0.028 C 
HETATM   17  C   UNL     1     -42.099 -46.254  12.627  1.00  0.00     0.016 C 
HETATM   18  C   UNL     1     -41.073 -45.013  10.707  1.00  0.00     0.016 C 
BRANCH  16  19
HETATM   19  C   UNL     1     -42.652 -46.928  10.192  1.00  0.00    -0.005 C 
HETATM   20  C   UNL     1     -43.237 -45.909   9.200  1.00  0.00     0.005 C 
HETATM   21  C   UNL     1     -44.659 -46.380   8.881  1.00  0.00     0.000 C 
HETATM   22  C   UNL     1     -44.874 -47.662   9.669  1.00  0.00     0.000 C 
HETATM   23  C   UNL     1     -43.901 -47.554  10.831  1.00  0.00     0.005 C 
ENDBRANCH  16  19
ENDBRANCH  15  16
ENDBRANCH   4  15
TORSDOF 4
ENDMDL
MODEL 5
REMARK VINA RESULT:      -5.9      1.556      2.106
REMARK  4 active torsions:
REMARK  status: ('A' for Active; 'I' for Inactive)
REMARK    1  A    between atoms: C_4  and  N_5 
REMARK       I    between atoms: N_5  and  C_6 
REMARK       I    between atoms: C_6  and  N_8 
REMARK    2  A    between atoms: N_8  and  C_9 
REMARK    3  A    between atoms: C_9  and  C_10 
REMARK    4  A    between atoms: C_10  and  C_13 
ROOT
HETATM    1  N   UNL     1     -42.137 -48.593  11.269  1.00  0.00    -0.308 N 
HETATM    2  C   UNL     1     -41.789 -49.555  12.198  1.00  0.00     0.320 C 
HETATM    3  O   UNL     1     -41.090 -49.354  13.183  1.00  0.00    -0.247 OA
HETATM    4  N   UNL     1     -42.315 -50.799  11.918  1.00  0.00    -0.342 N 
HETATM    5  H   UNL     1     -42.483 -48.928  10.384  1.00  0.00     0.170 HD
HETATM    6  H   UNL     1     -42.583 -50.992  10.965  1.00  0.00     0.164 HD
ENDROOT
BRANCH   1   7
HETATM    7  C   UNL     1     -41.808 -47.256  11.363  1.00  0.00     0.052 A 
HETATM    8  C   UNL     1     -40.785 -46.684  10.700  1.00  0.00     0.123 A 
HETATM    9  N   UNL     1     -40.518 -45.329  10.779  1.00  0.00    -0.327 N 
HETATM   10  C   UNL     1     -39.434 -44.771   9.987  1.00  0.00     0.159 C 
HETATM   11  C   UNL     1     -41.302 -44.462  11.529  1.00  0.00     0.247 A 
HETATM   12  C   UNL     1     -42.412 -45.095  12.291  1.00  0.00     0.077 A 
HETATM   13  O   UNL     1     -41.136 -43.247  11.599  1.00  0.00    -0.268 OA
HETATM   14  C   UNL     1     -42.625 -46.417  12.217  1.00  0.00     0.036 A 
ENDBRANCH   1   7
BRANCH   4  15
HETATM   15  C   UNL     1     -41.881 -51.914  12.744  1.00  0.00     0.133 C 
BRANCH  15  16
HETATM   16  C   UNL     1     -42.946 -52.507  13.702  1.00  0.00    -0.028 C 
HETATM   17  C   UNL     1     -42.959 -54.043  13.562  1.00  0.00     0.016 C 
HETATM   18  C   UNL     1     -42.590 -52.149  15.160  1.00  0.00     0.016 C 
BRANCH  16  19
HETATM   19  C   UNL     1     -44.328 -51.859  13.337  1.00  0.00    -0.005 C 
HETATM   20  C   UNL     1     -45.152 -51.290  14.504  1.00  0.00     0.005 C 
HETATM   21  C   UNL     1     -46.622 -51.392  14.089  1.00  0.00     0.000 C 
HETATM   22  C   UNL     1     -46.633 -51.997  12.694  1.00  0.00     0.000 C 
HETATM   23  C   UNL     1     -45.329 -52.771  12.611  1.00  0.00     0.005 C 
ENDBRANCH  16  19
ENDBRANCH  15  16
ENDBRANCH   4  15
TORSDOF 4
ENDMDL
MODEL 6
REMARK VINA RESULT:      -5.7      2.179      2.984
REMARK  4 active torsions:
REMARK  status: ('A' for Active; 'I' for Inactive)
REMARK    1  A    between atoms: C_4  and  N_5 
REMARK       I    between atoms: N_5  and  C_6 
REMARK       I    between atoms: C_6  and  N_8 
REMARK    2  A    between atoms: N_8  and  C_9 
REMARK    3  A    between atoms: C_9  and  C_10 
REMARK    4  A    between atoms: C_10  and  C_13 
ROOT
HETATM    1  N   UNL     1     -40.382 -49.499  11.164  1.00  0.00    -0.308 N 
HETATM    2  C   UNL     1     -41.078 -50.550  11.729  1.00  0.00     0.320 C 
HETATM    3  O   UNL     1     -42.231 -50.485  12.137  1.00  0.00    -0.247 OA
HETATM    4  N   UNL     1     -40.346 -51.717  11.793  1.00  0.00    -0.342 N 
HETATM    5  H   UNL     1     -39.380 -49.598  11.113  1.00  0.00     0.170 HD
HETATM    6  H   UNL     1     -39.340 -51.643  11.766  1.00  0.00     0.164 HD
ENDROOT
BRANCH   1   7
HETATM    7  C   UNL     1     -40.915 -48.250  10.912  1.00  0.00     0.052 A 
HETATM    8  C   UNL     1     -41.966 -48.030  10.100  1.00  0.00     0.123 A 
HETATM    9  N   UNL     1     -42.505 -46.770   9.913  1.00  0.00    -0.327 N 
HETATM   10  C   UNL     1     -43.678 -46.617   9.069  1.00  0.00     0.159 C 
HETATM   11  C   UNL     1     -42.014 -45.649  10.570  1.00  0.00     0.247 A 
HETATM   12  C   UNL     1     -40.830 -45.882  11.442  1.00  0.00     0.077 A 
HETATM   13  O   UNL     1     -42.481 -44.517  10.474  1.00  0.00    -0.268 OA
HETATM   14  C   UNL     1     -40.312 -47.113  11.577  1.00  0.00     0.036 A 
ENDBRANCH   1   7
BRANCH   4  15
HETATM   15  C   UNL     1     -40.928 -52.838  12.513  1.00  0.00     0.133 C 
BRANCH  15  16
HETATM   16  C   UNL     1     -40.368 -53.099  13.935  1.00  0.00    -0.028 C 
HETATM   17  C   UNL     1     -39.169 -54.065  13.840  1.00  0.00     0.016 C 
HETATM   18  C   UNL     1     -39.882 -51.772  14.553  1.00  0.00     0.016 C 
BRANCH  16  19
HETATM   19  C   UNL     1     -41.536 -53.677  14.809  1.00  0.00    -0.005 C 
HETATM   20  C   UNL     1     -41.172 -54.809  15.784  1.00  0.00     0.005 C 
HETATM   21  C   UNL     1     -42.435 -55.656  15.957  1.00  0.00     0.000 C 
HETATM   22  C   UNL     1     -43.511 -55.003  15.104  1.00  0.00     0.000 C 
HETATM   23  C   UNL     1     -42.736 -54.248  14.038  1.00  0.00     0.005 C 
ENDBRANCH  16  19
ENDBRANCH  15  16
ENDBRANCH   4  15
TORSDOF 4
ENDMDL
MODEL 7
REMARK VINA RESULT:      -5.6      2.991      7.450
REMARK  4 active torsions:
REMARK  status: ('A' for Active; 'I' for Inactive)
REMARK    1  A    between atoms: C_4  and  N_5 
REMARK       I    between atoms: N_5  and  C_6 
REMARK       I    between atoms: C_6  and  N_8 
REMARK    2  A    between atoms: N_8  and  C_9 
REMARK    3  A    between atoms: C_9  and  C_10 
REMARK    4  A    between atoms: C_10  and  C_13 
ROOT
HETATM    1  N   UNL     1     -41.589 -52.334  14.724  1.00  0.00    -0.308 N 
HETATM    2  C   UNL     1     -40.639 -52.132  13.742  1.00  0.00     0.320 C 
HETATM    3  O   UNL     1     -40.652 -52.663  12.638  1.00  0.00    -0.247 OA
HETATM    4  N   UNL     1     -39.646 -51.252  14.117  1.00  0.00    -0.342 N 
HETATM    5  H   UNL     1     -41.334 -52.059  15.660  1.00  0.00     0.170 HD
HETATM    6  H   UNL     1     -39.490 -51.112  15.104  1.00  0.00     0.164 HD
ENDROOT
BRANCH   1   7
HETATM    7  C   UNL     1     -42.726 -53.103  14.571  1.00  0.00     0.052 A 
HETATM    8  C   UNL     1     -43.903 -52.627  14.124  1.00  0.00     0.123 A 
HETATM    9  N   UNL     1     -45.006 -53.439  13.933  1.00  0.00    -0.327 N 
HETATM   10  C   UNL     1     -46.225 -52.865  13.391  1.00  0.00     0.159 C 
HETATM   11  C   UNL     1     -44.966 -54.808  14.166  1.00  0.00     0.247 A 
HETATM   12  C   UNL     1     -43.677 -55.334  14.693  1.00  0.00     0.077 A 
HETATM   13  O   UNL     1     -45.901 -55.581  13.973  1.00  0.00    -0.268 OA
HETATM   14  C   UNL     1     -42.636 -54.512  14.897  1.00  0.00     0.036 A 
ENDBRANCH   1   7
BRANCH   4  15
HETATM   15  C   UNL     1     -38.514 -51.092  13.218  1.00  0.00     0.133 C 
BRANCH  15  16
HETATM   16  C   UNL     1     -38.295 -49.667  12.646  1.00  0.00    -0.028 C 
HETATM   17  C   UNL     1     -37.475 -48.835  13.653  1.00  0.00     0.016 C 
HETATM   18  C   UNL     1     -37.507 -49.754  11.323  1.00  0.00     0.016 C 
BRANCH  16  19
HETATM   19  C   UNL     1     -39.708 -49.046  12.364  1.00  0.00    -0.005 C 
HETATM   20  C   UNL     1     -40.434 -49.532  11.098  1.00  0.00     0.005 C 
HETATM   21  C   UNL     1     -41.335 -48.380  10.644  1.00  0.00     0.000 C 
HETATM   22  C   UNL     1     -41.137 -47.258  11.650  1.00  0.00     0.000 C 
HETATM   23  C   UNL     1     -39.757 -47.516  12.232  1.00  0.00     0.005 C 
ENDBRANCH  16  19
ENDBRANCH  15  16
ENDBRANCH   4  15
TORSDOF 4
ENDMDL
MODEL 8
REMARK VINA RESULT:      -5.5      2.396      7.604
REMARK  4 active torsions:
REMARK  status: ('A' for Active; 'I' for Inactive)
REMARK    1  A    between atoms: C_4  and  N_5 
REMARK       I    between atoms: N_5  and  C_6 
REMARK       I    between atoms: C_6  and  N_8 
REMARK    2  A    between atoms: N_8  and  C_9 
REMARK    3  A    between atoms: C_9  and  C_10 
REMARK    4  A    between atoms: C_10  and  C_13 
ROOT
HETATM    1  N   UNL     1     -44.115 -50.562  12.911  1.00  0.00    -0.308 N 
HETATM    2  C   UNL     1     -42.936 -49.900  13.189  1.00  0.00     0.320 C 
HETATM    3  O   UNL     1     -42.020 -50.357  13.863  1.00  0.00    -0.247 OA
HETATM    4  N   UNL     1     -42.868 -48.645  12.622  1.00  0.00    -0.342 N 
HETATM    5  H   UNL     1     -44.881 -49.997  12.580  1.00  0.00     0.170 HD
HETATM    6  H   UNL     1     -43.736 -48.193  12.378  1.00  0.00     0.164 HD
ENDROOT
BRANCH   1   7
HETATM    7  C   UNL     1     -44.396 -51.860  13.291  1.00  0.00     0.052 A 
HETATM    8  C   UNL     1     -45.021 -52.190  14.437  1.00  0.00     0.123 A 
HETATM    9  N   UNL     1     -45.333 -53.499  14.760  1.00  0.00    -0.327 N 
HETATM   10  C   UNL     1     -46.063 -53.774  15.985  1.00  0.00     0.159 C 
HETATM   11  C   UNL     1     -45.042 -54.560  13.911  1.00  0.00     0.247 A 
HETATM   12  C   UNL     1     -44.319 -54.203  12.660  1.00  0.00     0.077 A 
HETATM   13  O   UNL     1     -45.333 -55.733  14.128  1.00  0.00    -0.268 OA
HETATM   14  C   UNL     1     -44.005 -52.927  12.392  1.00  0.00     0.036 A 
ENDBRANCH   1   7
BRANCH   4  15
HETATM   15  C   UNL     1     -41.738 -47.803  12.983  1.00  0.00     0.133 C 
BRANCH  15  16
HETATM   16  C   UNL     1     -40.803 -47.384  11.820  1.00  0.00    -0.028 C 
HETATM   17  C   UNL     1     -41.532 -47.601  10.478  1.00  0.00     0.016 C 
HETATM   18  C   UNL     1     -40.450 -45.888  11.951  1.00  0.00     0.016 C 
BRANCH  16  19
HETATM   19  C   UNL     1     -39.490 -48.234  11.934  1.00  0.00    -0.005 C 
HETATM   20  C   UNL     1     -39.567 -49.690  11.445  1.00  0.00     0.005 C 
HETATM   21  C   UNL     1     -38.536 -50.477  12.258  1.00  0.00     0.000 C 
HETATM   22  C   UNL     1     -37.867 -49.477  13.187  1.00  0.00     0.000 C 
HETATM   23  C   UNL     1     -38.893 -48.368  13.343  1.00  0.00     0.005 C 
ENDBRANCH  16  19
ENDBRANCH  15  16
ENDBRANCH   4  15
TORSDOF 4
ENDMDL
MODEL 9
REMARK VINA RESULT:      -5.5      2.020      3.158
REMARK  4 active torsions:
REMARK  status: ('A' for Active; 'I' for Inactive)
REMARK    1  A    between atoms: C_4  and  N_5 
REMARK       I    between atoms: N_5  and  C_6 
REMARK       I    between atoms: C_6  and  N_8 
REMARK    2  A    between atoms: N_8  and  C_9 
REMARK    3  A    between atoms: C_9  and  C_10 
REMARK    4  A    between atoms: C_10  and  C_13 
ROOT
HETATM    1  N   UNL     1     -40.851 -49.291  10.778  1.00  0.00    -0.308 N 
HETATM    2  C   UNL     1     -41.389 -50.297  11.557  1.00  0.00     0.320 C 
HETATM    3  O   UNL     1     -42.360 -50.167  12.293  1.00  0.00    -0.247 OA
HETATM    4  N   UNL     1     -40.727 -51.499  11.429  1.00  0.00    -0.342 N 
HETATM    5  H   UNL     1     -39.918 -49.442  10.430  1.00  0.00     0.170 HD
HETATM    6  H   UNL     1     -39.774 -51.478  11.097  1.00  0.00     0.164 HD
ENDROOT
BRANCH   1   7
HETATM    7  C   UNL     1     -41.378 -48.019  10.665  1.00  0.00     0.052 A 
HETATM    8  C   UNL     1     -40.823 -46.922  11.214  1.00  0.00     0.123 A 
HETATM    9  N   UNL     1     -41.351 -45.657  11.034  1.00  0.00    -0.327 N 
HETATM   10  C   UNL     1     -40.663 -44.512  11.607  1.00  0.00     0.159 C 
HETATM   11  C   UNL     1     -42.477 -45.428  10.253  1.00  0.00     0.247 A 
HETATM   12  C   UNL     1     -43.114 -46.642   9.673  1.00  0.00     0.077 A 
HETATM   13  O   UNL     1     -42.962 -44.323  10.026  1.00  0.00    -0.268 OA
HETATM   14  C   UNL     1     -42.593 -47.859   9.893  1.00  0.00     0.036 A 
ENDBRANCH   1   7
BRANCH   4  15
HETATM   15  C   UNL     1     -41.113 -52.579  12.322  1.00  0.00     0.133 C 
BRANCH  15  16
HETATM   16  C   UNL     1     -40.248 -52.751  13.597  1.00  0.00    -0.028 C 
HETATM   17  C   UNL     1     -39.698 -54.192  13.649  1.00  0.00     0.016 C 
HETATM   18  C   UNL     1     -39.057 -51.772  13.552  1.00  0.00     0.016 C 
BRANCH  16  19
HETATM   19  C   UNL     1     -41.149 -52.409  14.835  1.00  0.00    -0.005 C 
HETATM   20  C   UNL     1     -42.658 -52.662  14.679  1.00  0.00     0.005 C 
HETATM   21  C   UNL     1     -43.364 -51.661  15.598  1.00  0.00     0.000 C 
HETATM   22  C   UNL     1     -42.268 -50.860  16.283  1.00  0.00     0.000 C 
HETATM   23  C   UNL     1     -41.085 -50.958  15.334  1.00  0.00     0.005 C 
ENDBRANCH  16  19
ENDBRANCH  15  16
ENDBRANCH   4  15
TORSDOF 4
ENDMDL
