MODEL 1
REMARK VINA RESULT:      -6.1      0.000      0.000
REMARK  4 active torsions:
REMARK  status: ('A' for Active; 'I' for Inactive)
REMARK    1  A    between atoms: C_5  and  C_6 
REMARK    2  A    between atoms: C_6  and  C_7 
REMARK    3  A    between atoms: C_7  and  N_8 
REMARK       I    between atoms: N_8  and  C_9 
REMARK       I    between atoms: C_9  and  N_11 
REMARK    4  A    between atoms: C_14  and  O_15 
ROOT
HETATM    1  N   UNL     1     -41.909 -50.314  11.976  1.00  0.00    -0.343 N 
HETATM    2  C   UNL     1     -40.872 -50.490  12.852  1.00  0.00     0.318 C 
HETATM    3  O   UNL     1     -40.358 -49.529  13.423  1.00  0.00    -0.247 OA
HETATM    4  N   UNL     1     -40.431 -51.787  13.041  1.00  0.00    -0.334 N 
HETATM    5  C   UNL     1     -40.824 -52.957  12.252  1.00  0.00     0.130 C 
HETATM    6  C   UNL     1     -41.004 -54.187  13.143  1.00  0.00     0.051 C 
HETATM    7  C   UNL     1     -39.802 -54.429  14.056  1.00  0.00     0.121 C 
HETATM    8  C   UNL     1     -39.395 -53.166  14.806  1.00  0.00     0.051 C 
HETATM    9  C   UNL     1     -39.242 -51.973  13.871  1.00  0.00     0.130 C 
HETATM   10  H   UNL     1     -42.591 -51.062  11.924  1.00  0.00     0.164 HD
ENDROOT
BRANCH   1  11
HETATM   11  C   UNL     1     -42.487 -48.985  11.844  1.00  0.00     0.130 C 
BRANCH  11  12
HETATM   12  C   UNL     1     -42.063 -48.256  10.572  1.00  0.00     0.077 C 
BRANCH  12  13
HETATM   13  C   UNL     1     -43.151 -47.405   9.997  1.00  0.00     0.018 A 
HETATM   14  N   UNL     1     -44.431 -47.934   9.902  1.00  0.00    -0.357 N 
HETATM   15  C   UNL     1     -45.240 -47.058   9.344  1.00  0.00     0.046 A 
ATOM     16  HN  UNL     1     -44.705 -48.865  10.218  1.00  0.00     0.166 HD
HETATM   17  C   UNL     1     -46.679 -47.306   9.063  1.00  0.00     0.076 C 
HETATM   18  S   UNL     1     -44.530 -45.550   8.933  1.00  0.00    -0.087 SA
HETATM   19  C   UNL     1     -43.024 -46.111   9.526  1.00  0.00     0.076 A 
ENDBRANCH  12  13
ENDBRANCH  11  12
ENDBRANCH   1  11
BRANCH   7  20
HETATM   20  O   UNL     1     -38.705 -54.952  13.309  1.00  0.00    -0.395 OA
HETATM   21  H   UNL     1     -37.873 -54.712  13.750  1.00  0.00     0.210 HD
ENDBRANCH   7  20
TORSDOF 4
ENDMDL
MODEL 2
REMARK VINA RESULT:      -6.0      2.742      3.285
REMARK  4 active torsions:
REMARK  status: ('A' for Active; 'I' for Inactive)
REMARK    1  A    between atoms: C_5  and  C_6 
REMARK    2  A    between atoms: C_6  and  C_7 
REMARK    3  A    between atoms: C_7  and  N_8 
REMARK       I    between atoms: N_8  and  C_9 
REMARK       I    between atoms: C_9  and  N_11 
REMARK    4  A    between atoms: C_14  and  O_15 
ROOT
HETATM    1  N   UNL     1     -41.639 -50.991  11.762  1.00  0.00    -0.343 N 
HETATM    2  C   UNL     1     -41.433 -52.223  12.321  1.00  0.00     0.318 C 
HETATM    3  O   UNL     1     -40.299 -52.688  12.426  1.00  0.00    -0.247 OA
HETATM    4  N   UNL     1     -42.559 -52.911  12.739  1.00  0.00    -0.334 N 
HETATM    5  C   UNL     1     -43.949 -52.545  12.461  1.00  0.00     0.130 C 
HETATM    6  C   UNL     1     -44.840 -52.797  13.678  1.00  0.00     0.051 C 
HETATM    7  C   UNL     1     -44.671 -54.207  14.244  1.00  0.00     0.121 C 
HETATM    8  C   UNL     1     -43.203 -54.562  14.457  1.00  0.00     0.051 C 
HETATM    9  C   UNL     1     -42.365 -54.279  13.217  1.00  0.00     0.130 C 
HETATM   10  H   UNL     1     -42.420 -50.454  12.119  1.00  0.00     0.164 HD
ENDROOT
BRANCH   1  11
HETATM   11  C   UNL     1     -40.478 -50.181  11.425  1.00  0.00     0.130 C 
BRANCH  11  12
HETATM   12  C   UNL     1     -40.711 -48.681  11.582  1.00  0.00     0.077 C 
BRANCH  12  13
HETATM   13  C   UNL     1     -41.917 -48.197  10.842  1.00  0.00     0.018 A 
HETATM   14  N   UNL     1     -41.947 -48.325   9.459  1.00  0.00    -0.357 N 
HETATM   15  C   UNL     1     -43.065 -47.817   8.984  1.00  0.00     0.046 A 
ATOM     16  HN  UNL     1     -41.211 -48.750   8.895  1.00  0.00     0.166 HD
HETATM   17  C   UNL     1     -43.412 -47.760   7.539  1.00  0.00     0.076 C 
HETATM   18  S   UNL     1     -44.152 -47.190  10.156  1.00  0.00    -0.087 SA
HETATM   19  C   UNL     1     -43.042 -47.610  11.391  1.00  0.00     0.076 A 
ENDBRANCH  12  13
ENDBRANCH  11  12
ENDBRANCH   1  11
BRANCH   7  20
HETATM   20  O   UNL     1     -45.307 -55.164  13.399  1.00  0.00    -0.395 OA
HETATM   21  H   UNL     1     -44.877 -55.160  12.528  1.00  0.00     0.210 HD
ENDBRANCH   7  20
TORSDOF 4
ENDMDL
MODEL 3
REMARK VINA RESULT:      -6.0      2.991      3.356
REMARK  4 active torsions:
REMARK  status: ('A' for Active; 'I' for Inactive)
REMARK    1  A    between atoms: C_5  and  C_6 
REMARK    2  A    between atoms: C_6  and  C_7 
REMARK    3  A    between atoms: C_7  and  N_8 
REMARK       I    between atoms: N_8  and  C_9 
REMARK       I    between atoms: C_9  and  N_11 
REMARK    4  A    between atoms: C_14  and  O_15 
ROOT
HETATM    1  N   UNL     1     -43.023 -50.505  12.424  1.00  0.00    -0.343 N 
HETATM    2  C   UNL     1     -42.584 -51.757  12.760  1.00  0.00     0.318 C 
HETATM    3  O   UNL     1     -41.385 -52.033  12.738  1.00  0.00    -0.247 OA
HETATM    4  N   UNL     1     -43.552 -52.683  13.104  1.00  0.00    -0.334 N 
HETATM    5  C   UNL     1     -44.999 -52.520  12.949  1.00  0.00     0.130 C 
HETATM    6  C   UNL     1     -45.751 -53.109  14.143  1.00  0.00     0.051 C 
HETATM    7  C   UNL     1     -45.319 -54.541  14.458  1.00  0.00     0.121 C 
HETATM    8  C   UNL     1     -43.802 -54.671  14.546  1.00  0.00     0.051 C 
HETATM    9  C   UNL     1     -43.107 -54.057  13.337  1.00  0.00     0.130 C 
HETATM   10  H   UNL     1     -43.854 -50.172  12.898  1.00  0.00     0.164 HD
ENDROOT
BRANCH   1  11
HETATM   11  C   UNL     1     -42.034 -49.467  12.179  1.00  0.00     0.130 C 
BRANCH  11  12
HETATM   12  C   UNL     1     -42.630 -48.066  12.064  1.00  0.00     0.077 C 
BRANCH  12  13
HETATM   13  C   UNL     1     -43.255 -47.807  10.730  1.00  0.00     0.018 A 
HETATM   14  N   UNL     1     -44.631 -47.633  10.661  1.00  0.00    -0.357 N 
HETATM   15  C   UNL     1     -45.000 -47.450   9.410  1.00  0.00     0.046 A 
ATOM     16  HN  UNL     1     -45.263 -47.644  11.461  1.00  0.00     0.166 HD
HETATM   17  C   UNL     1     -46.408 -47.261   8.970  1.00  0.00     0.076 C 
HETATM   18  S   UNL     1     -43.729 -47.445   8.256  1.00  0.00    -0.087 SA
HETATM   19  C   UNL     1     -42.601 -47.725   9.514  1.00  0.00     0.076 A 
ENDBRANCH  12  13
ENDBRANCH  11  12
ENDBRANCH   1  11
BRANCH   7  20
HETATM   20  O   UNL     1     -45.849 -55.447  13.491  1.00  0.00    -0.395 OA
HETATM   21  H   UNL     1     -45.561 -55.175  12.605  1.00  0.00     0.210 HD
ENDBRANCH   7  20
TORSDOF 4
ENDMDL
MODEL 4
REMARK VINA RESULT:      -5.7      2.224      3.168
REMARK  4 active torsions:
REMARK  status: ('A' for Active; 'I' for Inactive)
REMARK    1  A    between atoms: C_5  and  C_6 
REMARK    2  A    between atoms: C_6  and  C_7 
REMARK    3  A    between atoms: C_7  and  N_8 
REMARK       I    between atoms: N_8  and  C_9 
REMARK       I    between atoms: C_9  and  N_11 
REMARK    4  A    between atoms: C_14  and  O_15 
ROOT
HETATM    1  N   UNL     1     -41.866 -50.177  11.789  1.00  0.00    -0.343 N 
HETATM    2  C   UNL     1     -40.873 -50.371  12.711  1.00  0.00     0.318 C 
HETATM    3  O   UNL     1     -40.365 -49.420  13.303  1.00  0.00    -0.247 OA
HETATM    4  N   UNL     1     -40.469 -51.678  12.922  1.00  0.00    -0.334 N 
HETATM    5  C   UNL     1     -40.851 -52.841  12.119  1.00  0.00     0.130 C 
HETATM    6  C   UNL     1     -41.097 -54.064  13.003  1.00  0.00     0.051 C 
HETATM    7  C   UNL     1     -39.943 -54.329  13.970  1.00  0.00     0.121 C 
HETATM    8  C   UNL     1     -39.543 -53.072  14.735  1.00  0.00     0.051 C 
HETATM    9  C   UNL     1     -39.322 -51.886  13.805  1.00  0.00     0.130 C 
HETATM   10  H   UNL     1     -42.561 -50.909  11.707  1.00  0.00     0.164 HD
ENDROOT
BRANCH   1  11
HETATM   11  C   UNL     1     -42.409 -48.836  11.628  1.00  0.00     0.130 C 
BRANCH  11  12
HETATM   12  C   UNL     1     -41.781 -48.054  10.477  1.00  0.00     0.077 C 
BRANCH  12  13
HETATM   13  C   UNL     1     -41.101 -46.800  10.926  1.00  0.00     0.018 A 
HETATM   14  N   UNL     1     -40.338 -46.834  12.086  1.00  0.00    -0.357 N 
HETATM   15  C   UNL     1     -39.849 -45.638  12.339  1.00  0.00     0.046 A 
ATOM     16  HN  UNL     1     -40.179 -47.664  12.658  1.00  0.00     0.166 HD
HETATM   17  C   UNL     1     -39.010 -45.308  13.521  1.00  0.00     0.076 C 
HETATM   18  S   UNL     1     -40.244 -44.419  11.196  1.00  0.00    -0.087 SA
HETATM   19  C   UNL     1     -41.151 -45.566  10.304  1.00  0.00     0.076 A 
ENDBRANCH  12  13
ENDBRANCH  11  12
ENDBRANCH   1  11
BRANCH   7  20
HETATM   20  O   UNL     1     -38.824 -54.877  13.273  1.00  0.00    -0.395 OA
HETATM   21  H   UNL     1     -38.890 -55.846  13.273  1.00  0.00     0.210 HD
ENDBRANCH   7  20
TORSDOF 4
ENDMDL
MODEL 5
REMARK VINA RESULT:      -5.6      3.350      7.342
REMARK  4 active torsions:
REMARK  status: ('A' for Active; 'I' for Inactive)
REMARK    1  A    between atoms: C_5  and  C_6 
REMARK    2  A    between atoms: C_6  and  C_7 
REMARK    3  A    between atoms: C_7  and  N_8 
REMARK       I    between atoms: N_8  and  C_9 
REMARK       I    between atoms: C_9  and  N_11 
REMARK    4  A    between atoms: C_14  and  O_15 
ROOT
HETATM    1  N   UNL     1     -43.401 -49.675  12.160  1.00  0.00    -0.343 N 
HETATM    2  C   UNL     1     -42.745 -48.475  12.112  1.00  0.00     0.318 C 
HETATM    3  O   UNL     1     -41.815 -48.233  12.881  1.00  0.00    -0.247 OA
HETATM    4  N   UNL     1     -43.192 -47.559  11.177  1.00  0.00    -0.334 N 
HETATM    5  C   UNL     1     -44.415 -47.666  10.378  1.00  0.00     0.130 C 
HETATM    6  C   UNL     1     -44.184 -47.174   8.949  1.00  0.00     0.051 C 
HETATM    7  C   UNL     1     -43.532 -45.793   8.903  1.00  0.00     0.121 C 
HETATM    8  C   UNL     1     -42.300 -45.716   9.799  1.00  0.00     0.051 C 
HETATM    9  C   UNL     1     -42.587 -46.228  11.205  1.00  0.00     0.130 C 
HETATM   10  H   UNL     1     -43.766 -50.029  11.283  1.00  0.00     0.164 HD
ENDROOT
BRANCH   1  11
HETATM   11  C   UNL     1     -42.885 -50.713  13.039  1.00  0.00     0.130 C 
BRANCH  11  12
HETATM   12  C   UNL     1     -41.947 -51.696  12.344  1.00  0.00     0.077 C 
BRANCH  12  13
HETATM   13  C   UNL     1     -40.502 -51.406  12.603  1.00  0.00     0.018 A 
HETATM   14  N   UNL     1     -39.799 -50.644  11.679  1.00  0.00    -0.357 N 
HETATM   15  C   UNL     1     -38.543 -50.525  12.058  1.00  0.00     0.046 A 
ATOM     16  HN  UNL     1     -40.196 -50.237  10.833  1.00  0.00     0.166 HD
HETATM   17  C   UNL     1     -37.501 -49.796  11.286  1.00  0.00     0.076 C 
HETATM   18  S   UNL     1     -38.141 -51.284  13.544  1.00  0.00    -0.087 SA
HETATM   19  C   UNL     1     -39.758 -51.830  13.689  1.00  0.00     0.076 A 
ENDBRANCH  12  13
ENDBRANCH  11  12
ENDBRANCH   1  11
BRANCH   7  20
HETATM   20  O   UNL     1     -44.477 -44.782   9.252  1.00  0.00    -0.395 OA
HETATM   21  H   UNL     1     -44.202 -44.359  10.082  1.00  0.00     0.210 HD
ENDBRANCH   7  20
TORSDOF 4
ENDMDL
MODEL 6
REMARK VINA RESULT:      -5.4      3.376      4.147
REMARK  4 active torsions:
REMARK  status: ('A' for Active; 'I' for Inactive)
REMARK    1  A    between atoms: C_5  and  C_6 
REMARK    2  A    between atoms: C_6  and  C_7 
REMARK    3  A    between atoms: C_7  and  N_8 
REMARK       I    between atoms: N_8  and  C_9 
REMARK       I    between atoms: C_9  and  N_11 
REMARK    4  A    between atoms: C_14  and  O_15 
ROOT
HETATM    1  N   UNL     1     -42.647 -50.479  12.169  1.00  0.00    -0.343 N 
HETATM    2  C   UNL     1     -42.272 -51.756  12.486  1.00  0.00     0.318 C 
HETATM    3  O   UNL     1     -41.098 -52.112  12.392  1.00  0.00    -0.247 OA
HETATM    4  N   UNL     1     -43.277 -52.616  12.893  1.00  0.00    -0.334 N 
HETATM    5  C   UNL     1     -44.717 -52.356  12.826  1.00  0.00     0.130 C 
HETATM    6  C   UNL     1     -45.432 -52.892  14.066  1.00  0.00     0.051 C 
HETATM    7  C   UNL     1     -45.077 -54.349  14.363  1.00  0.00     0.121 C 
HETATM    8  C   UNL     1     -43.569 -54.579  14.360  1.00  0.00     0.051 C 
HETATM    9  C   UNL     1     -42.911 -54.015  13.107  1.00  0.00     0.130 C 
HETATM   10  H   UNL     1     -43.424 -50.090  12.691  1.00  0.00     0.164 HD
ENDROOT
BRANCH   1  11
HETATM   11  C   UNL     1     -41.608 -49.509  11.858  1.00  0.00     0.130 C 
BRANCH  11  12
HETATM   12  C   UNL     1     -41.948 -48.603  10.677  1.00  0.00     0.077 C 
BRANCH  12  13
HETATM   13  C   UNL     1     -41.642 -47.163  10.940  1.00  0.00     0.018 A 
HETATM   14  N   UNL     1     -40.580 -46.573  10.266  1.00  0.00    -0.357 N 
HETATM   15  C   UNL     1     -40.444 -45.321  10.650  1.00  0.00     0.046 A 
ATOM     16  HN  UNL     1     -39.993 -47.040   9.576  1.00  0.00     0.166 HD
HETATM   17  C   UNL     1     -39.386 -44.402  10.151  1.00  0.00     0.076 C 
HETATM   18  S   UNL     1     -41.587 -44.771  11.806  1.00  0.00    -0.087 SA
HETATM   19  C   UNL     1     -42.310 -46.323  11.812  1.00  0.00     0.076 A 
ENDBRANCH  12  13
ENDBRANCH  11  12
ENDBRANCH   1  11
BRANCH   7  20
HETATM   20  O   UNL     1     -45.725 -55.219  13.436  1.00  0.00    -0.395 OA
HETATM   21  H   UNL     1     -46.664 -55.297  13.671  1.00  0.00     0.210 HD
ENDBRANCH   7  20
TORSDOF 4
ENDMDL
MODEL 7
REMARK VINA RESULT:      -5.4      3.370      4.682
REMARK  4 active torsions:
REMARK  status: ('A' for Active; 'I' for Inactive)
REMARK    1  A    between atoms: C_5  and  C_6 
REMARK    2  A    between atoms: C_6  and  C_7 
REMARK    3  A    between atoms: C_7  and  N_8 
REMARK       I    between atoms: N_8  and  C_9 
REMARK       I    between atoms: C_9  and  N_11 
REMARK    4  A    between atoms: C_14  and  O_15 
ROOT
HETATM    1  N   UNL     1     -39.689 -51.519  12.855  1.00  0.00    -0.343 N 
HETATM    2  C   UNL     1     -40.119 -52.759  13.243  1.00  0.00     0.318 C 
HETATM    3  O   UNL     1     -39.323 -53.605  13.650  1.00  0.00    -0.247 OA
HETATM    4  N   UNL     1     -41.475 -53.008  13.137  1.00  0.00    -0.334 N 
HETATM    5  C   UNL     1     -42.460 -52.156  12.466  1.00  0.00     0.130 C 
HETATM    6  C   UNL     1     -43.772 -52.109  13.250  1.00  0.00     0.051 C 
HETATM    7  C   UNL     1     -44.294 -53.501  13.604  1.00  0.00     0.121 C 
HETATM    8  C   UNL     1     -43.213 -54.368  14.241  1.00  0.00     0.051 C 
HETATM    9  C   UNL     1     -41.928 -54.368  13.423  1.00  0.00     0.130 C 
HETATM   10  H   UNL     1     -40.328 -50.748  13.007  1.00  0.00     0.164 HD
ENDROOT
BRANCH   1  11
HETATM   11  C   UNL     1     -38.292 -51.172  13.068  1.00  0.00     0.130 C 
BRANCH  11  12
HETATM   12  C   UNL     1     -37.813 -50.003  12.212  1.00  0.00     0.077 C 
BRANCH  12  13
HETATM   13  C   UNL     1     -38.635 -48.767  12.399  1.00  0.00     0.018 A 
HETATM   14  N   UNL     1     -39.336 -48.261  11.311  1.00  0.00    -0.357 N 
HETATM   15  C   UNL     1     -39.969 -47.160  11.657  1.00  0.00     0.046 A 
ATOM     16  HN  UNL     1     -39.356 -48.681  10.382  1.00  0.00     0.166 HD
HETATM   17  C   UNL     1     -40.793 -46.340  10.729  1.00  0.00     0.076 C 
HETATM   18  S   UNL     1     -39.792 -46.686  13.297  1.00  0.00    -0.087 SA
HETATM   19  C   UNL     1     -38.779 -48.040  13.567  1.00  0.00     0.076 A 
ENDBRANCH  12  13
ENDBRANCH  11  12
ENDBRANCH   1  11
BRANCH   7  20
HETATM   20  O   UNL     1     -44.839 -54.138  12.449  1.00  0.00    -0.395 OA
HETATM   21  H   UNL     1     -45.733 -53.795  12.285  1.00  0.00     0.210 HD
ENDBRANCH   7  20
TORSDOF 4
ENDMDL
MODEL 8
REMARK VINA RESULT:      -5.3      3.802      8.127
REMARK  4 active torsions:
REMARK  status: ('A' for Active; 'I' for Inactive)
REMARK    1  A    between atoms: C_5  and  C_6 
REMARK    2  A    between atoms: C_6  and  C_7 
REMARK    3  A    between atoms: C_7  and  N_8 
REMARK       I    between atoms: N_8  and  C_9 
REMARK       I    between atoms: C_9  and  N_11 
REMARK    4  A    between atoms: C_14  and  O_15 
ROOT
HETATM    1  N   UNL     1     -40.172 -48.337  11.052  1.00  0.00    -0.343 N 
HETATM    2  C   UNL     1     -41.311 -47.587  10.947  1.00  0.00     0.318 C 
HETATM    3  O   UNL     1     -42.415 -48.123  10.855  1.00  0.00    -0.247 OA
HETATM    4  N   UNL     1     -41.151 -46.213  10.934  1.00  0.00    -0.334 N 
HETATM    5  C   UNL     1     -39.882 -45.491  10.817  1.00  0.00     0.130 C 
HETATM    6  C   UNL     1     -39.863 -44.259  11.722  1.00  0.00     0.051 C 
HETATM    7  C   UNL     1     -41.097 -43.377  11.536  1.00  0.00     0.121 C 
HETATM    8  C   UNL     1     -42.389 -44.185  11.603  1.00  0.00     0.051 C 
HETATM    9  C   UNL     1     -42.345 -45.404  10.691  1.00  0.00     0.130 C 
HETATM   10  H   UNL     1     -39.414 -47.941  11.596  1.00  0.00     0.164 HD
ENDROOT
BRANCH   1  11
HETATM   11  C   UNL     1     -40.303 -49.779  11.197  1.00  0.00     0.130 C 
BRANCH  11  12
HETATM   12  C   UNL     1     -39.572 -50.342  12.413  1.00  0.00     0.077 C 
BRANCH  12  13
HETATM   13  C   UNL     1     -40.020 -51.724  12.774  1.00  0.00     0.018 A 
HETATM   14  N   UNL     1     -39.302 -52.428  13.732  1.00  0.00    -0.357 N 
HETATM   15  C   UNL     1     -39.821 -53.628  13.891  1.00  0.00     0.046 A 
ATOM     16  HN  UNL     1     -38.493 -52.069  14.238  1.00  0.00     0.166 HD
HETATM   17  C   UNL     1     -39.282 -54.658  14.818  1.00  0.00     0.076 C 
HETATM   18  S   UNL     1     -41.205 -53.970  12.934  1.00  0.00    -0.087 SA
HETATM   19  C   UNL     1     -41.097 -52.408  12.241  1.00  0.00     0.076 A 
ENDBRANCH  12  13
ENDBRANCH  11  12
ENDBRANCH   1  11
BRANCH   7  20
HETATM   20  O   UNL     1     -41.014 -42.655  10.308  1.00  0.00    -0.395 OA
HETATM   21  H   UNL     1     -41.803 -42.840   9.773  1.00  0.00     0.210 HD
ENDBRANCH   7  20
TORSDOF 4
ENDMDL
MODEL 9
REMARK VINA RESULT:      -5.2      3.374      6.545
REMARK  4 active torsions:
REMARK  status: ('A' for Active; 'I' for Inactive)
REMARK    1  A    between atoms: C_5  and  C_6 
REMARK    2  A    between atoms: C_6  and  C_7 
REMARK    3  A    between atoms: C_7  and  N_8 
REMARK       I    between atoms: N_8  and  C_9 
REMARK       I    between atoms: C_9  and  N_11 
REMARK    4  A    between atoms: C_14  and  O_15 
ROOT
HETATM    1  N   UNL     1     -41.857 -50.809  11.790  1.00  0.00    -0.343 N 
HETATM    2  C   UNL     1     -41.023 -49.725  11.736  1.00  0.00     0.318 C 
HETATM    3  O   UNL     1     -39.808 -49.854  11.878  1.00  0.00    -0.247 OA
HETATM    4  N   UNL     1     -41.619 -48.492  11.535  1.00  0.00    -0.334 N 
HETATM    5  C   UNL     1     -43.055 -48.209  11.576  1.00  0.00     0.130 C 
HETATM    6  C   UNL     1     -43.451 -47.212  10.487  1.00  0.00     0.051 C 
HETATM    7  C   UNL     1     -42.572 -45.962  10.490  1.00  0.00     0.121 C 
HETATM    8  C   UNL     1     -41.088 -46.311  10.511  1.00  0.00     0.051 C 
HETATM    9  C   UNL     1     -40.755 -47.315  11.607  1.00  0.00     0.130 C 
HETATM   10  H   UNL     1     -42.690 -50.771  11.214  1.00  0.00     0.164 HD
ENDROOT
BRANCH   1  11
HETATM   11  C   UNL     1     -41.264 -52.135  11.873  1.00  0.00     0.130 C 
BRANCH  11  12
HETATM   12  C   UNL     1     -41.824 -52.987  13.009  1.00  0.00     0.077 C 
BRANCH  12  13
HETATM   13  C   UNL     1     -43.296 -52.802  13.205  1.00  0.00     0.018 A 
HETATM   14  N   UNL     1     -43.734 -52.021  14.267  1.00  0.00    -0.357 N 
HETATM   15  C   UNL     1     -45.050 -52.002  14.299  1.00  0.00     0.046 A 
ATOM     16  HN  UNL     1     -43.125 -51.533  14.925  1.00  0.00     0.166 HD
HETATM   17  C   UNL     1     -45.853 -51.285  15.325  1.00  0.00     0.076 C 
HETATM   18  S   UNL     1     -45.834 -52.884  13.053  1.00  0.00    -0.087 SA
HETATM   19  C   UNL     1     -44.306 -53.343  12.431  1.00  0.00     0.076 A 
ENDBRANCH  12  13
ENDBRANCH  11  12
ENDBRANCH   1  11
BRANCH   7  20
HETATM   20  O   UNL     1     -42.910 -45.117  11.589  1.00  0.00    -0.395 OA
HETATM   21  H   UNL     1     -42.141 -45.031  12.176  1.00  0.00     0.210 HD
ENDBRANCH   7  20
TORSDOF 4
ENDMDL
