MODEL 1
REMARK VINA RESULT:      -5.7      0.000      0.000
REMARK  4 active torsions:
REMARK  status: ('A' for Active; 'I' for Inactive)
REMARK    1  A    between atoms: C_2  and  C_3 
REMARK    2  A    between atoms: C_3  and  N_4 
REMARK       I    between atoms: N_4  and  C_5 
REMARK       I    between atoms: C_5  and  N_7 
REMARK    3  A    between atoms: N_7  and  C_8 
REMARK    4  A    between atoms: C_11  and  N_15 
ROOT
HETATM    1  C   UNL     1     -42.016 -50.074  12.468  1.00  0.00     0.051 A 
HETATM    2  C   UNL     1     -43.054 -49.167  12.591  1.00  0.00     0.035 A 
HETATM    3  C   UNL     1     -43.130 -48.093  11.699  1.00  0.00     0.051 A 
HETATM    4  C   UNL     1     -42.219 -47.961  10.647  1.00  0.00     0.103 A 
HETATM    5  N   UNL     1     -41.234 -48.875  10.506  1.00  0.00    -0.350 N 
ATOM      6  HN  UNL     1     -40.575 -48.810   9.730  1.00  0.00     0.166 HD
HETATM    7  C   UNL     1     -41.135 -49.884  11.414  1.00  0.00     0.119 A 
ENDROOT
BRANCH   1   8
HETATM    8  N   UNL     1     -41.897 -51.119  13.410  1.00  0.00    -0.308 N 
HETATM    9  C   UNL     1     -42.509 -52.336  13.218  1.00  0.00     0.320 C 
HETATM   10  N   UNL     1     -42.243 -53.201  14.261  1.00  0.00    -0.343 N 
HETATM   11  O   UNL     1     -43.169 -52.654  12.237  1.00  0.00    -0.247 OA
HETATM   12  H   UNL     1     -42.325 -52.774  15.170  1.00  0.00     0.164 HD
HETATM   13  H   UNL     1     -41.017 -51.198  13.897  1.00  0.00     0.170 HD
BRANCH  10  14
HETATM   14  C   UNL     1     -42.675 -54.580  14.134  1.00  0.00     0.124 C 
BRANCH  14  15
HETATM   15  C   UNL     1     -44.013 -54.863  14.808  1.00  0.00     0.015 C 
HETATM   16  C   UNL     1     -45.153 -55.083  13.828  1.00  0.00     0.006 C 
ENDBRANCH  14  15
ENDBRANCH  10  14
ENDBRANCH   1   8
BRANCH   4  17
HETATM   17  N   UNL     1     -42.256 -46.876   9.793  1.00  0.00    -0.363 N 
HETATM   18  C   UNL     1     -41.770 -45.546  10.182  1.00  0.00     0.150 C 
HETATM   19  C   UNL     1     -42.945 -44.578  10.395  1.00  0.00     0.187 C 
HETATM   20  O   UNL     1     -43.798 -44.520   9.242  1.00  0.00    -0.388 OA
HETATM   21  C   UNL     1     -44.345 -45.824   8.969  1.00  0.00     0.187 C 
HETATM   22  C   UNL     1     -43.239 -46.853   8.696  1.00  0.00     0.150 C 
ENDBRANCH   4  17
TORSDOF 4
ENDMDL
MODEL 2
REMARK VINA RESULT:      -5.4      3.917      6.999
REMARK  4 active torsions:
REMARK  status: ('A' for Active; 'I' for Inactive)
REMARK    1  A    between atoms: C_2  and  C_3 
REMARK    2  A    between atoms: C_3  and  N_4 
REMARK       I    between atoms: N_4  and  C_5 
REMARK       I    between atoms: C_5  and  N_7 
REMARK    3  A    between atoms: N_7  and  C_8 
REMARK    4  A    between atoms: C_11  and  N_15 
ROOT
HETATM    1  C   UNL     1     -40.796 -48.588  10.943  1.00  0.00     0.051 A 
HETATM    2  C   UNL     1     -40.453 -49.867  11.349  1.00  0.00     0.035 A 
HETATM    3  C   UNL     1     -39.451 -50.032  12.309  1.00  0.00     0.051 A 
HETATM    4  C   UNL     1     -38.843 -48.928  12.917  1.00  0.00     0.103 A 
HETATM    5  N   UNL     1     -39.214 -47.683  12.549  1.00  0.00    -0.350 N 
ATOM      6  HN  UNL     1     -38.800 -46.866  12.997  1.00  0.00     0.166 HD
HETATM    7  C   UNL     1     -40.148 -47.534  11.570  1.00  0.00     0.119 A 
ENDROOT
BRANCH   1   8
HETATM    8  N   UNL     1     -41.756 -48.422   9.922  1.00  0.00    -0.308 N 
HETATM    9  C   UNL     1     -42.954 -47.787  10.156  1.00  0.00     0.320 C 
HETATM   10  N   UNL     1     -43.725 -47.733   9.011  1.00  0.00    -0.343 N 
HETATM   11  O   UNL     1     -43.297 -47.282  11.218  1.00  0.00    -0.247 OA
HETATM   12  H   UNL     1     -43.747 -48.601   8.499  1.00  0.00     0.164 HD
HETATM   13  H   UNL     1     -41.410 -48.268   8.987  1.00  0.00     0.170 HD
BRANCH  10  14
HETATM   14  C   UNL     1     -44.945 -46.949   9.044  1.00  0.00     0.124 C 
BRANCH  14  15
HETATM   15  C   UNL     1     -46.204 -47.789   9.231  1.00  0.00     0.015 C 
HETATM   16  C   UNL     1     -46.428 -48.803   8.121  1.00  0.00     0.006 C 
ENDBRANCH  14  15
ENDBRANCH  10  14
ENDBRANCH   1   8
BRANCH   4  17
HETATM   17  N   UNL     1     -37.817 -49.082  13.829  1.00  0.00    -0.363 N 
HETATM   18  C   UNL     1     -37.540 -50.357  14.502  1.00  0.00     0.150 C 
HETATM   19  C   UNL     1     -37.956 -50.294  15.980  1.00  0.00     0.187 C 
HETATM   20  O   UNL     1     -37.341 -49.187  16.656  1.00  0.00    -0.388 OA
HETATM   21  C   UNL     1     -37.736 -47.950  16.035  1.00  0.00     0.187 C 
HETATM   22  C   UNL     1     -37.317 -47.903  14.558  1.00  0.00     0.150 C 
ENDBRANCH   4  17
TORSDOF 4
ENDMDL
MODEL 3
REMARK VINA RESULT:      -5.3      2.393      3.101
REMARK  4 active torsions:
REMARK  status: ('A' for Active; 'I' for Inactive)
REMARK    1  A    between atoms: C_2  and  C_3 
REMARK    2  A    between atoms: C_3  and  N_4 
REMARK       I    between atoms: N_4  and  C_5 
REMARK       I    between atoms: C_5  and  N_7 
REMARK    3  A    between atoms: N_7  and  C_8 
REMARK    4  A    between atoms: C_11  and  N_15 
ROOT
HETATM    1  C   UNL     1     -40.716 -49.219  11.064  1.00  0.00     0.051 A 
HETATM    2  C   UNL     1     -39.868 -48.412  11.803  1.00  0.00     0.035 A 
HETATM    3  C   UNL     1     -39.988 -47.023  11.700  1.00  0.00     0.051 A 
HETATM    4  C   UNL     1     -40.994 -46.440  10.924  1.00  0.00     0.103 A 
HETATM    5  N   UNL     1     -41.847 -47.233  10.240  1.00  0.00    -0.350 N 
ATOM      6  HN  UNL     1     -42.602 -46.828   9.688  1.00  0.00     0.166 HD
HETATM    7  C   UNL     1     -41.684 -48.583  10.300  1.00  0.00     0.119 A 
ENDROOT
BRANCH   1   8
HETATM    8  N   UNL     1     -40.550 -50.620  11.110  1.00  0.00    -0.308 N 
HETATM    9  C   UNL     1     -41.236 -51.398  12.014  1.00  0.00     0.320 C 
HETATM   10  N   UNL     1     -40.921 -52.734  11.865  1.00  0.00    -0.343 N 
HETATM   11  O   UNL     1     -42.061 -50.990  12.822  1.00  0.00    -0.247 OA
HETATM   12  H   UNL     1     -39.935 -52.907  11.754  1.00  0.00     0.164 HD
HETATM   13  H   UNL     1     -40.390 -51.092  10.233  1.00  0.00     0.170 HD
BRANCH  10  14
HETATM   14  C   UNL     1     -41.683 -53.706  12.628  1.00  0.00     0.124 C 
BRANCH  14  15
HETATM   15  C   UNL     1     -41.011 -54.117  13.933  1.00  0.00     0.015 C 
HETATM   16  C   UNL     1     -39.505 -54.285  13.815  1.00  0.00     0.006 C 
ENDBRANCH  14  15
ENDBRANCH  10  14
ENDBRANCH   1   8
BRANCH   4  17
HETATM   17  N   UNL     1     -41.089 -45.069  10.777  1.00  0.00    -0.363 N 
HETATM   18  C   UNL     1     -39.937 -44.174  10.945  1.00  0.00     0.150 C 
HETATM   19  C   UNL     1     -40.055 -43.376  12.253  1.00  0.00     0.187 C 
HETATM   20  O   UNL     1     -41.300 -42.667  12.330  1.00  0.00    -0.388 OA
HETATM   21  C   UNL     1     -42.399 -43.595  12.281  1.00  0.00     0.187 C 
HETATM   22  C   UNL     1     -42.390 -44.409  10.979  1.00  0.00     0.150 C 
ENDBRANCH   4  17
TORSDOF 4
ENDMDL
MODEL 4
REMARK VINA RESULT:      -5.3      3.100      8.125
REMARK  4 active torsions:
REMARK  status: ('A' for Active; 'I' for Inactive)
REMARK    1  A    between atoms: C_2  and  C_3 
REMARK    2  A    between atoms: C_3  and  N_4 
REMARK       I    between atoms: N_4  and  C_5 
REMARK       I    between atoms: C_5  and  N_7 
REMARK    3  A    between atoms: N_7  and  C_8 
REMARK    4  A    between atoms: C_11  and  N_15 
ROOT
HETATM    1  C   UNL     1     -40.052 -50.912  11.882  1.00  0.00     0.051 A 
HETATM    2  C   UNL     1     -38.911 -50.589  12.597  1.00  0.00     0.035 A 
HETATM    3  C   UNL     1     -38.544 -51.383  13.688  1.00  0.00     0.051 A 
HETATM    4  C   UNL     1     -39.266 -52.533  14.021  1.00  0.00     0.103 A 
HETATM    5  N   UNL     1     -40.353 -52.867  13.291  1.00  0.00    -0.350 N 
ATOM      6  HN  UNL     1     -40.879 -53.714  13.503  1.00  0.00     0.166 HD
HETATM    7  C   UNL     1     -40.736 -52.055  12.268  1.00  0.00     0.119 A 
ENDROOT
BRANCH   1   8
HETATM    8  N   UNL     1     -40.464 -50.071  10.825  1.00  0.00    -0.308 N 
HETATM    9  C   UNL     1     -41.429 -49.107  11.004  1.00  0.00     0.320 C 
HETATM   10  N   UNL     1     -41.659 -48.405   9.838  1.00  0.00    -0.343 N 
HETATM   11  O   UNL     1     -41.991 -48.851  12.062  1.00  0.00    -0.247 OA
HETATM   12  H   UNL     1     -41.730 -48.991   9.021  1.00  0.00     0.164 HD
HETATM   13  H   UNL     1     -39.761 -49.799  10.155  1.00  0.00     0.170 HD
BRANCH  10  14
HETATM   14  C   UNL     1     -42.525 -47.242   9.898  1.00  0.00     0.124 C 
BRANCH  14  15
HETATM   15  C   UNL     1     -43.775 -47.369   9.034  1.00  0.00     0.015 C 
HETATM   16  C   UNL     1     -43.494 -47.881   7.631  1.00  0.00     0.006 C 
ENDBRANCH  14  15
ENDBRANCH  10  14
ENDBRANCH   1   8
BRANCH   4  17
HETATM   17  N   UNL     1     -38.941 -53.294  15.127  1.00  0.00    -0.363 N 
HETATM   18  C   UNL     1     -39.062 -54.757  15.145  1.00  0.00     0.150 C 
HETATM   19  C   UNL     1     -40.249 -55.194  16.018  1.00  0.00     0.187 C 
HETATM   20  O   UNL     1     -40.162 -54.648  17.342  1.00  0.00    -0.388 OA
HETATM   21  C   UNL     1     -40.167 -53.210  17.282  1.00  0.00     0.187 C 
HETATM   22  C   UNL     1     -38.981 -52.676  16.464  1.00  0.00     0.150 C 
ENDBRANCH   4  17
TORSDOF 4
ENDMDL
MODEL 5
REMARK VINA RESULT:      -5.3      2.634      4.010
REMARK  4 active torsions:
REMARK  status: ('A' for Active; 'I' for Inactive)
REMARK    1  A    between atoms: C_2  and  C_3 
REMARK    2  A    between atoms: C_3  and  N_4 
REMARK       I    between atoms: N_4  and  C_5 
REMARK       I    between atoms: C_5  and  N_7 
REMARK    3  A    between atoms: N_7  and  C_8 
REMARK    4  A    between atoms: C_11  and  N_15 
ROOT
HETATM    1  C   UNL     1     -41.313 -47.418  10.743  1.00  0.00     0.051 A 
HETATM    2  C   UNL     1     -40.180 -46.644  10.927  1.00  0.00     0.035 A 
HETATM    3  C   UNL     1     -40.316 -45.261  11.074  1.00  0.00     0.051 A 
HETATM    4  C   UNL     1     -41.577 -44.659  11.111  1.00  0.00     0.103 A 
HETATM    5  N   UNL     1     -42.681 -45.425  10.975  1.00  0.00    -0.350 N 
ATOM      6  HN  UNL     1     -43.610 -45.007  11.024  1.00  0.00     0.166 HD
HETATM    7  C   UNL     1     -42.535 -46.763  10.774  1.00  0.00     0.119 A 
ENDROOT
BRANCH   1   8
HETATM    8  N   UNL     1     -41.174 -48.806  10.523  1.00  0.00    -0.308 N 
HETATM    9  C   UNL     1     -41.089 -49.697  11.568  1.00  0.00     0.320 C 
HETATM   10  N   UNL     1     -40.969 -50.994  11.112  1.00  0.00    -0.343 N 
HETATM   11  O   UNL     1     -41.159 -49.409  12.756  1.00  0.00    -0.247 OA
HETATM   12  H   UNL     1     -40.310 -51.097  10.355  1.00  0.00     0.164 HD
HETATM   13  H   UNL     1     -41.645 -49.192   9.719  1.00  0.00     0.170 HD
BRANCH  10  14
HETATM   14  C   UNL     1     -41.037 -52.071  12.083  1.00  0.00     0.124 C 
BRANCH  14  15
HETATM   15  C   UNL     1     -42.441 -52.638  12.265  1.00  0.00     0.015 C 
HETATM   16  C   UNL     1     -42.536 -53.682  13.364  1.00  0.00     0.006 C 
ENDBRANCH  14  15
ENDBRANCH  10  14
ENDBRANCH   1   8
BRANCH   4  17
HETATM   17  N   UNL     1     -41.719 -43.288  11.204  1.00  0.00    -0.363 N 
HETATM   18  C   UNL     1     -40.623 -42.405  11.626  1.00  0.00     0.150 C 
HETATM   19  C   UNL     1     -40.876 -41.863  13.042  1.00  0.00     0.187 C 
HETATM   20  O   UNL     1     -42.152 -41.215  13.140  1.00  0.00    -0.388 OA
HETATM   21  C   UNL     1     -43.203 -42.150  12.834  1.00  0.00     0.187 C 
HETATM   22  C   UNL     1     -43.060 -42.713  11.412  1.00  0.00     0.150 C 
ENDBRANCH   4  17
TORSDOF 4
ENDMDL
MODEL 6
REMARK VINA RESULT:      -5.2      2.209      7.986
REMARK  4 active torsions:
REMARK  status: ('A' for Active; 'I' for Inactive)
REMARK    1  A    between atoms: C_2  and  C_3 
REMARK    2  A    between atoms: C_3  and  N_4 
REMARK       I    between atoms: N_4  and  C_5 
REMARK       I    between atoms: C_5  and  N_7 
REMARK    3  A    between atoms: N_7  and  C_8 
REMARK    4  A    between atoms: C_11  and  N_15 
ROOT
HETATM    1  C   UNL     1     -41.370 -49.863  12.337  1.00  0.00     0.051 A 
HETATM    2  C   UNL     1     -40.643 -50.992  12.003  1.00  0.00     0.035 A 
HETATM    3  C   UNL     1     -41.215 -52.253  12.197  1.00  0.00     0.051 A 
HETATM    4  C   UNL     1     -42.530 -52.388  12.652  1.00  0.00     0.103 A 
HETATM    5  N   UNL     1     -43.250 -51.280  12.934  1.00  0.00    -0.350 N 
ATOM      6  HN  UNL     1     -44.219 -51.358  13.245  1.00  0.00     0.166 HD
HETATM    7  C   UNL     1     -42.663 -50.060  12.798  1.00  0.00     0.119 A 
ENDROOT
BRANCH   1   8
HETATM    8  N   UNL     1     -40.769 -48.592  12.210  1.00  0.00    -0.308 N 
HETATM    9  C   UNL     1     -40.981 -47.802  11.104  1.00  0.00     0.320 C 
HETATM   10  N   UNL     1     -40.301 -46.604  11.206  1.00  0.00    -0.343 N 
HETATM   11  O   UNL     1     -41.710 -48.079  10.160  1.00  0.00    -0.247 OA
HETATM   12  H   UNL     1     -39.354 -46.704  11.535  1.00  0.00     0.164 HD
HETATM   13  H   UNL     1     -40.650 -48.054  13.056  1.00  0.00     0.170 HD
BRANCH  10  14
HETATM   14  C   UNL     1     -40.551 -45.587  10.201  1.00  0.00     0.124 C 
BRANCH  14  15
HETATM   15  C   UNL     1     -39.453 -44.533  10.117  1.00  0.00     0.015 C 
HETATM   16  C   UNL     1     -38.610 -44.633   8.857  1.00  0.00     0.006 C 
ENDBRANCH  14  15
ENDBRANCH  10  14
ENDBRANCH   1   8
BRANCH   4  17
HETATM   17  N   UNL     1     -43.085 -53.629  12.894  1.00  0.00    -0.363 N 
HETATM   18  C   UNL     1     -44.473 -53.959  12.543  1.00  0.00     0.150 C 
HETATM   19  C   UNL     1     -45.345 -54.057  13.805  1.00  0.00     0.187 C 
HETATM   20  O   UNL     1     -44.799 -54.983  14.755  1.00  0.00    -0.388 OA
HETATM   21  C   UNL     1     -43.486 -54.555  15.161  1.00  0.00     0.187 C 
HETATM   22  C   UNL     1     -42.526 -54.474  13.965  1.00  0.00     0.150 C 
ENDBRANCH   4  17
TORSDOF 4
ENDMDL
MODEL 7
REMARK VINA RESULT:      -5.2      4.141      5.886
REMARK  4 active torsions:
REMARK  status: ('A' for Active; 'I' for Inactive)
REMARK    1  A    between atoms: C_2  and  C_3 
REMARK    2  A    between atoms: C_3  and  N_4 
REMARK       I    between atoms: N_4  and  C_5 
REMARK       I    between atoms: C_5  and  N_7 
REMARK    3  A    between atoms: N_7  and  C_8 
REMARK    4  A    between atoms: C_11  and  N_15 
ROOT
HETATM    1  C   UNL     1     -41.032 -45.769  10.768  1.00  0.00     0.051 A 
HETATM    2  C   UNL     1     -40.084 -44.761  10.820  1.00  0.00     0.035 A 
HETATM    3  C   UNL     1     -40.505 -43.439  10.994  1.00  0.00     0.051 A 
HETATM    4  C   UNL     1     -41.854 -43.130  11.188  1.00  0.00     0.103 A 
HETATM    5  N   UNL     1     -42.769 -44.123  11.180  1.00  0.00    -0.350 N 
ATOM      6  HN  UNL     1     -43.756 -43.920  11.343  1.00  0.00     0.166 HD
HETATM    7  C   UNL     1     -42.356 -45.399  10.951  1.00  0.00     0.119 A 
ENDROOT
BRANCH   1   8
HETATM    8  N   UNL     1     -40.616 -47.096  10.521  1.00  0.00    -0.308 N 
HETATM    9  C   UNL     1     -40.215 -47.927  11.541  1.00  0.00     0.320 C 
HETATM   10  N   UNL     1     -39.864 -49.174  11.062  1.00  0.00    -0.343 N 
HETATM   11  O   UNL     1     -40.207 -47.640  12.731  1.00  0.00    -0.247 OA
HETATM   12  H   UNL     1     -39.293 -49.142  10.233  1.00  0.00     0.164 HD
HETATM   13  H   UNL     1     -41.081 -47.590   9.775  1.00  0.00     0.170 HD
BRANCH  10  14
HETATM   14  C   UNL     1     -39.579 -50.222  12.025  1.00  0.00     0.124 C 
BRANCH  14  15
HETATM   15  C   UNL     1     -38.090 -50.498  12.200  1.00  0.00     0.015 C 
HETATM   16  C   UNL     1     -37.244 -50.040  11.023  1.00  0.00     0.006 C 
ENDBRANCH  14  15
ENDBRANCH  10  14
ENDBRANCH   1   8
BRANCH   4  17
HETATM   17  N   UNL     1     -42.284 -41.822  11.309  1.00  0.00    -0.363 N 
HETATM   18  C   UNL     1     -41.394 -40.732  11.729  1.00  0.00     0.150 C 
HETATM   19  C   UNL     1     -41.729 -40.277  13.159  1.00  0.00     0.187 C 
HETATM   20  O   UNL     1     -43.112 -39.920  13.290  1.00  0.00    -0.388 OA
HETATM   21  C   UNL     1     -43.945 -41.053  12.984  1.00  0.00     0.187 C 
HETATM   22  C   UNL     1     -43.712 -41.551  11.549  1.00  0.00     0.150 C 
ENDBRANCH   4  17
TORSDOF 4
ENDMDL
MODEL 8
REMARK VINA RESULT:      -5.2      2.417      3.010
REMARK  4 active torsions:
REMARK  status: ('A' for Active; 'I' for Inactive)
REMARK    1  A    between atoms: C_2  and  C_3 
REMARK    2  A    between atoms: C_3  and  N_4 
REMARK       I    between atoms: N_4  and  C_5 
REMARK       I    between atoms: C_5  and  N_7 
REMARK    3  A    between atoms: N_7  and  C_8 
REMARK    4  A    between atoms: C_11  and  N_15 
ROOT
HETATM    1  C   UNL     1     -40.788 -49.272  11.027  1.00  0.00     0.051 A 
HETATM    2  C   UNL     1     -41.927 -48.557  10.699  1.00  0.00     0.035 A 
HETATM    3  C   UNL     1     -41.920 -47.165  10.836  1.00  0.00     0.051 A 
HETATM    4  C   UNL     1     -40.764 -46.483  11.227  1.00  0.00     0.103 A 
HETATM    5  N   UNL     1     -39.643 -47.183  11.503  1.00  0.00    -0.350 N 
ATOM      6  HN  UNL     1     -38.783 -46.702  11.766  1.00  0.00     0.166 HD
HETATM    7  C   UNL     1     -39.677 -48.542  11.424  1.00  0.00     0.119 A 
ENDROOT
BRANCH   1   8
HETATM    8  N   UNL     1     -40.814 -50.682  10.959  1.00  0.00    -0.308 N 
HETATM    9  C   UNL     1     -40.860 -51.458  12.094  1.00  0.00     0.320 C 
HETATM   10  N   UNL     1     -40.890 -52.803  11.780  1.00  0.00    -0.343 N 
HETATM   11  O   UNL     1     -40.918 -51.037  13.242  1.00  0.00    -0.247 OA
HETATM   12  H   UNL     1     -40.234 -53.064  11.061  1.00  0.00     0.164 HD
HETATM   13  H   UNL     1     -41.313 -51.094  10.184  1.00  0.00     0.170 HD
BRANCH  10  14
HETATM   14  C   UNL     1     -41.108 -53.752  12.856  1.00  0.00     0.124 C 
BRANCH  14  15
HETATM   15  C   UNL     1     -42.582 -53.992  13.165  1.00  0.00     0.015 C 
HETATM   16  C   UNL     1     -42.820 -54.658  14.511  1.00  0.00     0.006 C 
ENDBRANCH  14  15
ENDBRANCH  10  14
ENDBRANCH   1   8
BRANCH   4  17
HETATM   17  N   UNL     1     -40.764 -45.114  11.413  1.00  0.00    -0.363 N 
HETATM   18  C   UNL     1     -39.659 -44.405  12.071  1.00  0.00     0.150 C 
HETATM   19  C   UNL     1     -40.075 -43.930  13.473  1.00  0.00     0.187 C 
HETATM   20  O   UNL     1     -41.270 -43.136  13.429  1.00  0.00    -0.388 OA
HETATM   21  C   UNL     1     -42.356 -43.910  12.887  1.00  0.00     0.187 C 
HETATM   22  C   UNL     1     -42.047 -44.392  11.461  1.00  0.00     0.150 C 
ENDBRANCH   4  17
TORSDOF 4
ENDMDL
MODEL 9
REMARK VINA RESULT:      -5.0      4.153      5.778
REMARK  4 active torsions:
REMARK  status: ('A' for Active; 'I' for Inactive)
REMARK    1  A    between atoms: C_2  and  C_3 
REMARK    2  A    between atoms: C_3  and  N_4 
REMARK       I    between atoms: N_4  and  C_5 
REMARK       I    between atoms: C_5  and  N_7 
REMARK    3  A    between atoms: N_7  and  C_8 
REMARK    4  A    between atoms: C_11  and  N_15 
ROOT
HETATM    1  C   UNL     1     -40.725 -51.367  12.504  1.00  0.00     0.051 A 
HETATM    2  C   UNL     1     -40.554 -50.011  12.283  1.00  0.00     0.035 A 
HETATM    3  C   UNL     1     -39.479 -49.352  12.888  1.00  0.00     0.051 A 
HETATM    4  C   UNL     1     -38.539 -50.052  13.651  1.00  0.00     0.103 A 
HETATM    5  N   UNL     1     -38.688 -51.383  13.827  1.00  0.00    -0.350 N 
ATOM      6  HN  UNL     1     -38.000 -51.915  14.360  1.00  0.00     0.166 HD
HETATM    7  C   UNL     1     -39.770 -52.004  13.282  1.00  0.00     0.119 A 
ENDROOT
BRANCH   1   8
HETATM    8  N   UNL     1     -41.849 -52.020  11.952  1.00  0.00    -0.308 N 
HETATM    9  C   UNL     1     -42.919 -52.395  12.731  1.00  0.00     0.320 C 
HETATM   10  N   UNL     1     -43.900 -53.005  11.974  1.00  0.00    -0.343 N 
HETATM   11  O   UNL     1     -43.034 -52.183  13.932  1.00  0.00    -0.247 OA
HETATM   12  H   UNL     1     -43.541 -53.679  11.316  1.00  0.00     0.164 HD
HETATM   13  H   UNL     1     -42.121 -51.753  11.018  1.00  0.00     0.170 HD
BRANCH  10  14
HETATM   14  C   UNL     1     -45.167 -53.310  12.613  1.00  0.00     0.124 C 
BRANCH  14  15
HETATM   15  C   UNL     1     -46.207 -52.205  12.459  1.00  0.00     0.015 C 
HETATM   16  C   UNL     1     -46.561 -51.518  13.767  1.00  0.00     0.006 C 
ENDBRANCH  14  15
ENDBRANCH  10  14
ENDBRANCH   1   8
BRANCH   4  17
HETATM   17  N   UNL     1     -37.505 -49.401  14.294  1.00  0.00    -0.363 N 
HETATM   18  C   UNL     1     -36.735 -50.018  15.382  1.00  0.00     0.150 C 
HETATM   19  C   UNL     1     -37.096 -49.381  16.734  1.00  0.00     0.187 C 
HETATM   20  O   UNL     1     -36.934 -47.955  16.706  1.00  0.00    -0.388 OA
HETATM   21  C   UNL     1     -37.796 -47.381  15.706  1.00  0.00     0.187 C 
HETATM   22  C   UNL     1     -37.475 -47.928  14.306  1.00  0.00     0.150 C 
ENDBRANCH   4  17
TORSDOF 4
ENDMDL
