MODEL 1
REMARK VINA RESULT:      -6.1      0.000      0.000
REMARK  3 active torsions:
REMARK  status: ('A' for Active; 'I' for Inactive)
REMARK    1  A    between atoms: C_5  and  C_6 
REMARK    2  A    between atoms: C_6  and  C_7 
REMARK    3  A    between atoms: C_7  and  N_8 
REMARK       I    between atoms: N_8  and  C_9 
REMARK       I    between atoms: C_9  and  N_11 
ROOT
HETATM    1  N   UNL     1     -41.148 -51.231  11.520  1.00  0.00    -0.343 N 
HETATM    2  C   UNL     1     -40.821 -52.245  12.381  1.00  0.00     0.318 C 
HETATM    3  O   UNL     1     -39.698 -52.331  12.874  1.00  0.00    -0.247 OA
HETATM    4  N   UNL     1     -41.834 -53.131  12.674  1.00  0.00    -0.329 N 
HETATM    5  C   UNL     1     -43.229 -53.077  12.228  1.00  0.00     0.153 C 
HETATM    6  C   UNL     1     -44.185 -53.033  13.425  1.00  0.00     0.189 C 
HETATM    7  O   UNL     1     -43.932 -54.089  14.359  1.00  0.00    -0.378 OA
HETATM    8  C   UNL     1     -42.566 -54.122  14.835  1.00  0.00     0.070 C 
HETATM    9  C   UNL     1     -42.273 -52.909  15.731  1.00  0.00     0.047 C 
HETATM   10  C   UNL     1     -42.452 -55.395  15.685  1.00  0.00     0.047 C 
HETATM   11  C   UNL     1     -41.581 -54.204  13.641  1.00  0.00     0.164 C 
HETATM   12  H   UNL     1     -41.883 -51.413  10.860  1.00  0.00     0.164 HD
ENDROOT
BRANCH   1  13
HETATM   13  C   UNL     1     -40.161 -50.241  11.107  1.00  0.00     0.131 C 
BRANCH  13  14
HETATM   14  C   UNL     1     -40.570 -48.836  11.540  1.00  0.00     0.084 C 
BRANCH  14  15
HETATM   15  C   UNL     1     -41.774 -48.353  10.799  1.00  0.00     0.052 A 
HETATM   16  S   UNL     1     -43.086 -47.638  11.650  1.00  0.00    -0.087 SA
HETATM   17  C   UNL     1     -43.882 -47.359  10.160  1.00  0.00     0.076 A 
HETATM   18  C   UNL     1     -43.113 -47.829   9.113  1.00  0.00     0.012 A 
HETATM   19  C   UNL     1     -43.453 -47.763   7.668  1.00  0.00     0.068 C 
HETATM   20  N   UNL     1     -41.910 -48.405   9.490  1.00  0.00    -0.357 N 
ATOM     21  HN  UNL     1     -41.229 -48.810   8.847  1.00  0.00     0.166 HD
ENDBRANCH  14  15
ENDBRANCH  13  14
ENDBRANCH   1  13
TORSDOF 3
ENDMDL
MODEL 2
REMARK VINA RESULT:      -5.8      2.605      3.129
REMARK  3 active torsions:
REMARK  status: ('A' for Active; 'I' for Inactive)
REMARK    1  A    between atoms: C_5  and  C_6 
REMARK    2  A    between atoms: C_6  and  C_7 
REMARK    3  A    between atoms: C_7  and  N_8 
REMARK       I    between atoms: N_8  and  C_9 
REMARK       I    between atoms: C_9  and  N_11 
ROOT
HETATM    1  N   UNL     1     -43.078 -49.862  12.517  1.00  0.00    -0.343 N 
HETATM    2  C   UNL     1     -43.448 -50.287  13.765  1.00  0.00     0.318 C 
HETATM    3  O   UNL     1     -43.435 -49.526  14.731  1.00  0.00    -0.247 OA
HETATM    4  N   UNL     1     -43.859 -51.599  13.854  1.00  0.00    -0.329 N 
HETATM    5  C   UNL     1     -44.009 -52.567  12.764  1.00  0.00     0.153 C 
HETATM    6  C   UNL     1     -45.445 -53.097  12.696  1.00  0.00     0.189 C 
HETATM    7  O   UNL     1     -45.896 -53.597  13.960  1.00  0.00    -0.378 OA
HETATM    8  C   UNL     1     -45.791 -52.632  15.033  1.00  0.00     0.070 C 
HETATM    9  C   UNL     1     -46.794 -51.485  14.833  1.00  0.00     0.047 C 
HETATM   10  C   UNL     1     -46.164 -53.390  16.314  1.00  0.00     0.047 C 
HETATM   11  C   UNL     1     -44.336 -52.108  15.144  1.00  0.00     0.164 C 
HETATM   12  H   UNL     1     -42.723 -50.559  11.885  1.00  0.00     0.164 HD
ENDROOT
BRANCH   1  13
HETATM   13  C   UNL     1     -42.598 -48.505  12.291  1.00  0.00     0.131 C 
BRANCH  13  14
HETATM   14  C   UNL     1     -42.307 -48.259  10.813  1.00  0.00     0.084 C 
BRANCH  14  15
HETATM   15  C   UNL     1     -43.430 -47.544  10.136  1.00  0.00     0.052 A 
HETATM   16  S   UNL     1     -43.159 -46.022   9.383  1.00  0.00    -0.087 SA
HETATM   17  C   UNL     1     -44.792 -46.000   8.871  1.00  0.00     0.076 A 
HETATM   18  C   UNL     1     -45.444 -47.138   9.304  1.00  0.00     0.012 A 
HETATM   19  C   UNL     1     -46.864 -47.493   9.054  1.00  0.00     0.068 C 
HETATM   20  N   UNL     1     -44.656 -48.014  10.036  1.00  0.00    -0.357 N 
ATOM     21  HN  UNL     1     -44.980 -48.893  10.439  1.00  0.00     0.166 HD
ENDBRANCH  14  15
ENDBRANCH  13  14
ENDBRANCH   1  13
TORSDOF 3
ENDMDL
MODEL 3
REMARK VINA RESULT:      -5.8      1.939      2.405
REMARK  3 active torsions:
REMARK  status: ('A' for Active; 'I' for Inactive)
REMARK    1  A    between atoms: C_5  and  C_6 
REMARK    2  A    between atoms: C_6  and  C_7 
REMARK    3  A    between atoms: C_7  and  N_8 
REMARK       I    between atoms: N_8  and  C_9 
REMARK       I    between atoms: C_9  and  N_11 
ROOT
HETATM    1  N   UNL     1     -42.456 -49.831  12.040  1.00  0.00    -0.343 N 
HETATM    2  C   UNL     1     -41.334 -50.605  12.178  1.00  0.00     0.318 C 
HETATM    3  O   UNL     1     -40.210 -50.109  12.186  1.00  0.00    -0.247 OA
HETATM    4  N   UNL     1     -41.555 -51.956  12.335  1.00  0.00    -0.329 N 
HETATM    5  C   UNL     1     -42.843 -52.647  12.438  1.00  0.00     0.153 C 
HETATM    6  C   UNL     1     -42.943 -53.426  13.755  1.00  0.00     0.189 C 
HETATM    7  O   UNL     1     -41.820 -54.291  13.957  1.00  0.00    -0.378 OA
HETATM    8  C   UNL     1     -40.547 -53.607  13.898  1.00  0.00     0.070 C 
HETATM    9  C   UNL     1     -40.375 -52.673  15.106  1.00  0.00     0.047 C 
HETATM   10  C   UNL     1     -39.479 -54.707  13.976  1.00  0.00     0.047 C 
HETATM   11  C   UNL     1     -40.408 -52.842  12.558  1.00  0.00     0.164 C 
HETATM   12  H   UNL     1     -43.268 -50.271  11.645  1.00  0.00     0.164 HD
ENDROOT
BRANCH   1  13
HETATM   13  C   UNL     1     -42.360 -48.390  11.840  1.00  0.00     0.131 C 
BRANCH  13  14
HETATM   14  C   UNL     1     -42.260 -48.043  10.357  1.00  0.00     0.084 C 
BRANCH  14  15
HETATM   15  C   UNL     1     -43.518 -47.422   9.843  1.00  0.00     0.052 A 
HETATM   16  S   UNL     1     -43.494 -45.833   9.186  1.00  0.00    -0.087 SA
HETATM   17  C   UNL     1     -45.163 -45.970   8.832  1.00  0.00     0.076 A 
HETATM   18  C   UNL     1     -45.638 -47.202   9.237  1.00  0.00     0.012 A 
HETATM   19  C   UNL     1     -47.029 -47.703   9.094  1.00  0.00     0.068 C 
HETATM   20  N   UNL     1     -44.689 -48.025   9.824  1.00  0.00    -0.357 N 
ATOM     21  HN  UNL     1     -44.870 -48.960  10.188  1.00  0.00     0.166 HD
ENDBRANCH  14  15
ENDBRANCH  13  14
ENDBRANCH   1  13
TORSDOF 3
ENDMDL
MODEL 4
REMARK VINA RESULT:      -5.7      3.326      6.816
REMARK  3 active torsions:
REMARK  status: ('A' for Active; 'I' for Inactive)
REMARK    1  A    between atoms: C_5  and  C_6 
REMARK    2  A    between atoms: C_6  and  C_7 
REMARK    3  A    between atoms: C_7  and  N_8 
REMARK       I    between atoms: N_8  and  C_9 
REMARK       I    between atoms: C_9  and  N_11 
ROOT
HETATM    1  N   UNL     1     -43.113 -49.742  12.207  1.00  0.00    -0.343 N 
HETATM    2  C   UNL     1     -42.660 -48.516  12.615  1.00  0.00     0.318 C 
HETATM    3  O   UNL     1     -41.957 -48.392  13.616  1.00  0.00    -0.247 OA
HETATM    4  N   UNL     1     -43.017 -47.450  11.818  1.00  0.00    -0.329 N 
HETATM    5  C   UNL     1     -43.764 -47.485  10.558  1.00  0.00     0.153 C 
HETATM    6  C   UNL     1     -42.949 -46.860   9.421  1.00  0.00     0.189 C 
HETATM    7  O   UNL     1     -42.467 -45.553   9.756  1.00  0.00    -0.378 OA
HETATM    8  C   UNL     1     -41.693 -45.519  10.977  1.00  0.00     0.070 C 
HETATM    9  C   UNL     1     -40.354 -46.250  10.793  1.00  0.00     0.047 C 
HETATM   10  C   UNL     1     -41.407 -44.037  11.248  1.00  0.00     0.047 C 
HETATM   11  C   UNL     1     -42.513 -46.114  12.151  1.00  0.00     0.164 C 
HETATM   12  H   UNL     1     -43.964 -49.759  11.673  1.00  0.00     0.164 HD
ENDROOT
BRANCH   1  13
HETATM   13  C   UNL     1     -42.828 -50.947  12.976  1.00  0.00     0.131 C 
BRANCH  13  14
HETATM   14  C   UNL     1     -41.855 -51.859  12.235  1.00  0.00     0.084 C 
BRANCH  14  15
HETATM   15  C   UNL     1     -40.433 -51.461  12.465  1.00  0.00     0.052 A 
HETATM   16  S   UNL     1     -39.611 -51.969  13.887  1.00  0.00    -0.087 SA
HETATM   17  C   UNL     1     -38.190 -51.198  13.324  1.00  0.00     0.076 A 
HETATM   18  C   UNL     1     -38.424 -50.599  12.101  1.00  0.00     0.012 A 
HETATM   19  C   UNL     1     -37.441 -49.843  11.284  1.00  0.00     0.068 C 
HETATM   20  N   UNL     1     -39.716 -50.749  11.621  1.00  0.00    -0.357 N 
ATOM     21  HN  UNL     1     -40.062 -50.363  10.742  1.00  0.00     0.166 HD
ENDBRANCH  14  15
ENDBRANCH  13  14
ENDBRANCH   1  13
TORSDOF 3
ENDMDL
MODEL 5
REMARK VINA RESULT:      -5.6      2.082      2.811
REMARK  3 active torsions:
REMARK  status: ('A' for Active; 'I' for Inactive)
REMARK    1  A    between atoms: C_5  and  C_6 
REMARK    2  A    between atoms: C_6  and  C_7 
REMARK    3  A    between atoms: C_7  and  N_8 
REMARK       I    between atoms: N_8  and  C_9 
REMARK       I    between atoms: C_9  and  N_11 
ROOT
HETATM    1  N   UNL     1     -41.756 -50.663  12.892  1.00  0.00    -0.343 N 
HETATM    2  C   UNL     1     -42.853 -50.639  13.712  1.00  0.00     0.318 C 
HETATM    3  O   UNL     1     -43.274 -49.587  14.190  1.00  0.00    -0.247 OA
HETATM    4  N   UNL     1     -43.461 -51.855  13.934  1.00  0.00    -0.329 N 
HETATM    5  C   UNL     1     -43.112 -53.152  13.346  1.00  0.00     0.153 C 
HETATM    6  C   UNL     1     -44.304 -53.748  12.589  1.00  0.00     0.189 C 
HETATM    7  O   UNL     1     -45.488 -53.793  13.394  1.00  0.00    -0.378 OA
HETATM    8  C   UNL     1     -45.861 -52.507  13.943  1.00  0.00     0.070 C 
HETATM    9  C   UNL     1     -46.339 -51.559  12.832  1.00  0.00     0.047 C 
HETATM   10  C   UNL     1     -47.038 -52.783  14.888  1.00  0.00     0.047 C 
HETATM   11  C   UNL     1     -44.682 -51.901  14.745  1.00  0.00     0.164 C 
HETATM   12  H   UNL     1     -41.228 -51.518  12.861  1.00  0.00     0.164 HD
ENDROOT
BRANCH   1  13
HETATM   13  C   UNL     1     -41.005 -49.449  12.597  1.00  0.00     0.131 C 
BRANCH  13  14
HETATM   14  C   UNL     1     -40.878 -49.228  11.093  1.00  0.00     0.084 C 
BRANCH  14  15
HETATM   15  C   UNL     1     -41.735 -48.098  10.621  1.00  0.00     0.052 A 
HETATM   16  S   UNL     1     -41.203 -46.473  10.802  1.00  0.00    -0.087 SA
HETATM   17  C   UNL     1     -42.622 -45.935  10.010  1.00  0.00     0.076 A 
HETATM   18  C   UNL     1     -43.413 -47.013   9.664  1.00  0.00     0.012 A 
HETATM   19  C   UNL     1     -44.718 -46.960   8.955  1.00  0.00     0.068 C 
HETATM   20  N   UNL     1     -42.900 -48.249  10.026  1.00  0.00    -0.357 N 
ATOM     21  HN  UNL     1     -43.358 -49.144   9.857  1.00  0.00     0.166 HD
ENDBRANCH  14  15
ENDBRANCH  13  14
ENDBRANCH   1  13
TORSDOF 3
ENDMDL
MODEL 6
REMARK VINA RESULT:      -5.5      2.779      3.601
REMARK  3 active torsions:
REMARK  status: ('A' for Active; 'I' for Inactive)
REMARK    1  A    between atoms: C_5  and  C_6 
REMARK    2  A    between atoms: C_6  and  C_7 
REMARK    3  A    between atoms: C_7  and  N_8 
REMARK       I    between atoms: N_8  and  C_9 
REMARK       I    between atoms: C_9  and  N_11 
ROOT
HETATM    1  N   UNL     1     -41.943 -50.492  11.828  1.00  0.00    -0.343 N 
HETATM    2  C   UNL     1     -42.939 -50.280  12.744  1.00  0.00     0.318 C 
HETATM    3  O   UNL     1     -43.366 -49.151  12.977  1.00  0.00    -0.247 OA
HETATM    4  N   UNL     1     -43.442 -51.408  13.354  1.00  0.00    -0.329 N 
HETATM    5  C   UNL     1     -43.085 -52.804  13.089  1.00  0.00     0.153 C 
HETATM    6  C   UNL     1     -44.316 -53.615  12.673  1.00  0.00     0.189 C 
HETATM    7  O   UNL     1     -45.396 -53.476  13.603  1.00  0.00    -0.378 OA
HETATM    8  C   UNL     1     -45.782 -52.101  13.837  1.00  0.00     0.070 C 
HETATM    9  C   UNL     1     -46.440 -51.501  12.584  1.00  0.00     0.047 C 
HETATM   10  C   UNL     1     -46.825 -52.146  14.961  1.00  0.00     0.047 C 
HETATM   11  C   UNL     1     -44.558 -51.268  14.296  1.00  0.00     0.164 C 
HETATM   12  H   UNL     1     -41.372 -51.308  11.958  1.00  0.00     0.164 HD
ENDROOT
BRANCH   1  13
HETATM   13  C   UNL     1     -41.307 -49.381  11.132  1.00  0.00     0.131 C 
BRANCH  13  14
HETATM   14  C   UNL     1     -40.095 -48.866  11.903  1.00  0.00     0.084 C 
BRANCH  14  15
HETATM   15  C   UNL     1     -39.959 -47.382  11.801  1.00  0.00     0.052 A 
HETATM   16  S   UNL     1     -39.857 -46.422  13.224  1.00  0.00    -0.087 SA
HETATM   17  C   UNL     1     -39.671 -45.025  12.252  1.00  0.00     0.076 A 
HETATM   18  C   UNL     1     -39.704 -45.367  10.914  1.00  0.00     0.012 A 
HETATM   19  C   UNL     1     -39.565 -44.440   9.761  1.00  0.00     0.068 C 
HETATM   20  N   UNL     1     -39.878 -46.720  10.665  1.00  0.00    -0.357 N 
ATOM     21  HN  UNL     1     -39.935 -47.142   9.738  1.00  0.00     0.166 HD
ENDBRANCH  14  15
ENDBRANCH  13  14
ENDBRANCH   1  13
TORSDOF 3
ENDMDL
MODEL 7
REMARK VINA RESULT:      -5.4      2.694      4.406
REMARK  3 active torsions:
REMARK  status: ('A' for Active; 'I' for Inactive)
REMARK    1  A    between atoms: C_5  and  C_6 
REMARK    2  A    between atoms: C_6  and  C_7 
REMARK    3  A    between atoms: C_7  and  N_8 
REMARK       I    between atoms: N_8  and  C_9 
REMARK       I    between atoms: C_9  and  N_11 
ROOT
HETATM    1  N   UNL     1     -43.012 -53.813  13.420  1.00  0.00    -0.343 N 
HETATM    2  C   UNL     1     -43.792 -53.708  14.540  1.00  0.00     0.318 C 
HETATM    3  O   UNL     1     -43.344 -53.952  15.659  1.00  0.00    -0.247 OA
HETATM    4  N   UNL     1     -45.086 -53.284  14.331  1.00  0.00    -0.329 N 
HETATM    5  C   UNL     1     -45.700 -52.872  13.066  1.00  0.00     0.153 C 
HETATM    6  C   UNL     1     -46.236 -51.439  13.159  1.00  0.00     0.189 C 
HETATM    7  O   UNL     1     -47.095 -51.255  14.290  1.00  0.00    -0.378 OA
HETATM    8  C   UNL     1     -46.479 -51.620  15.547  1.00  0.00     0.070 C 
HETATM    9  C   UNL     1     -45.357 -50.634  15.910  1.00  0.00     0.047 C 
HETATM   10  C   UNL     1     -47.587 -51.508  16.602  1.00  0.00     0.047 C 
HETATM   11  C   UNL     1     -45.962 -53.080  15.490  1.00  0.00     0.164 C 
HETATM   12  H   UNL     1     -43.483 -54.001  12.552  1.00  0.00     0.164 HD
ENDROOT
BRANCH   1  13
HETATM   13  C   UNL     1     -41.632 -54.276  13.499  1.00  0.00     0.131 C 
BRANCH  13  14
HETATM   14  C   UNL     1     -40.773 -53.649  12.404  1.00  0.00     0.084 C 
BRANCH  14  15
HETATM   15  C   UNL     1     -40.767 -52.157  12.486  1.00  0.00     0.052 A 
HETATM   16  S   UNL     1     -40.338 -51.373  13.955  1.00  0.00    -0.087 SA
HETATM   17  C   UNL     1     -40.518 -49.857  13.181  1.00  0.00     0.076 A 
HETATM   18  C   UNL     1     -40.897 -50.035  11.864  1.00  0.00     0.012 A 
HETATM   19  C   UNL     1     -41.142 -48.965  10.863  1.00  0.00     0.068 C 
HETATM   20  N   UNL     1     -41.046 -51.358  11.478  1.00  0.00    -0.357 N 
ATOM     21  HN  UNL     1     -41.329 -51.667  10.548  1.00  0.00     0.166 HD
ENDBRANCH  14  15
ENDBRANCH  13  14
ENDBRANCH   1  13
TORSDOF 3
ENDMDL
MODEL 8
REMARK VINA RESULT:      -5.2      3.191      6.109
REMARK  3 active torsions:
REMARK  status: ('A' for Active; 'I' for Inactive)
REMARK    1  A    between atoms: C_5  and  C_6 
REMARK    2  A    between atoms: C_6  and  C_7 
REMARK    3  A    between atoms: C_7  and  N_8 
REMARK       I    between atoms: N_8  and  C_9 
REMARK       I    between atoms: C_9  and  N_11 
ROOT
HETATM    1  N   UNL     1     -40.274 -53.038  13.137  1.00  0.00    -0.343 N 
HETATM    2  C   UNL     1     -40.586 -51.959  12.354  1.00  0.00     0.318 C 
HETATM    3  O   UNL     1     -41.668 -51.877  11.776  1.00  0.00    -0.247 OA
HETATM    4  N   UNL     1     -39.628 -50.971  12.287  1.00  0.00    -0.329 N 
HETATM    5  C   UNL     1     -38.351 -50.911  13.004  1.00  0.00     0.153 C 
HETATM    6  C   UNL     1     -38.262 -49.642  13.859  1.00  0.00     0.189 C 
HETATM    7  O   UNL     1     -38.540 -48.459  13.100  1.00  0.00    -0.378 OA
HETATM    8  C   UNL     1     -39.819 -48.495  12.424  1.00  0.00     0.070 C 
HETATM    9  C   UNL     1     -40.972 -48.431  13.438  1.00  0.00     0.047 C 
HETATM   10  C   UNL     1     -39.864 -47.233  11.553  1.00  0.00     0.047 C 
HETATM   11  C   UNL     1     -39.917 -49.752  11.524  1.00  0.00     0.164 C 
HETATM   12  H   UNL     1     -39.299 -53.256  13.246  1.00  0.00     0.164 HD
ENDROOT
BRANCH   1  13
HETATM   13  C   UNL     1     -41.189 -54.165  13.272  1.00  0.00     0.131 C 
BRANCH  13  14
HETATM   14  C   UNL     1     -42.077 -54.012  14.504  1.00  0.00     0.084 C 
BRANCH  14  15
HETATM   15  C   UNL     1     -43.499 -53.736  14.136  1.00  0.00     0.052 A 
HETATM   16  S   UNL     1     -44.692 -54.961  14.310  1.00  0.00    -0.087 SA
HETATM   17  C   UNL     1     -45.886 -53.854  13.782  1.00  0.00     0.076 A 
HETATM   18  C   UNL     1     -45.311 -52.630  13.501  1.00  0.00     0.012 A 
HETATM   19  C   UNL     1     -46.015 -51.410  13.029  1.00  0.00     0.068 C 
HETATM   20  N   UNL     1     -43.940 -52.574  13.699  1.00  0.00    -0.357 N 
ATOM     21  HN  UNL     1     -43.357 -51.754  13.531  1.00  0.00     0.166 HD
ENDBRANCH  14  15
ENDBRANCH  13  14
ENDBRANCH   1  13
TORSDOF 3
ENDMDL
MODEL 9
REMARK VINA RESULT:      -5.2      3.144      4.397
REMARK  3 active torsions:
REMARK  status: ('A' for Active; 'I' for Inactive)
REMARK    1  A    between atoms: C_5  and  C_6 
REMARK    2  A    between atoms: C_6  and  C_7 
REMARK    3  A    between atoms: C_7  and  N_8 
REMARK       I    between atoms: N_8  and  C_9 
REMARK       I    between atoms: C_9  and  N_11 
ROOT
HETATM    1  N   UNL     1     -42.046 -50.221  12.537  1.00  0.00    -0.343 N 
HETATM    2  C   UNL     1     -43.086 -50.356  13.418  1.00  0.00     0.318 C 
HETATM    3  O   UNL     1     -43.590 -49.380  13.970  1.00  0.00    -0.247 OA
HETATM    4  N   UNL     1     -43.541 -51.642  13.614  1.00  0.00    -0.329 N 
HETATM    5  C   UNL     1     -43.089 -52.864  12.944  1.00  0.00     0.153 C 
HETATM    6  C   UNL     1     -44.252 -53.558  12.227  1.00  0.00     0.189 C 
HETATM    7  O   UNL     1     -45.372 -53.771  13.094  1.00  0.00    -0.378 OA
HETATM    8  C   UNL     1     -45.850 -52.560  13.727  1.00  0.00     0.070 C 
HETATM    9  C   UNL     1     -46.497 -51.626  12.692  1.00  0.00     0.047 C 
HETATM   10  C   UNL     1     -46.928 -53.008  14.722  1.00  0.00     0.047 C 
HETATM   11  C   UNL     1     -44.697 -51.860  14.490  1.00  0.00     0.164 C 
HETATM   12  H   UNL     1     -41.430 -51.008  12.435  1.00  0.00     0.164 HD
ENDROOT
BRANCH   1  13
HETATM   13  C   UNL     1     -41.453 -48.918  12.261  1.00  0.00     0.131 C 
BRANCH  13  14
HETATM   14  C   UNL     1     -40.215 -48.680  13.120  1.00  0.00     0.084 C 
BRANCH  14  15
HETATM   15  C   UNL     1     -39.030 -49.436  12.613  1.00  0.00     0.052 A 
HETATM   16  S   UNL     1     -38.294 -50.647  13.587  1.00  0.00    -0.087 SA
HETATM   17  C   UNL     1     -37.198 -50.983  12.316  1.00  0.00     0.076 A 
HETATM   18  C   UNL     1     -37.449 -50.157  11.238  1.00  0.00     0.012 A 
HETATM   19  C   UNL     1     -36.722 -50.148   9.942  1.00  0.00     0.068 C 
HETATM   20  N   UNL     1     -38.497 -49.267  11.421  1.00  0.00    -0.357 N 
ATOM     21  HN  UNL     1     -38.809 -48.582  10.733  1.00  0.00     0.166 HD
ENDBRANCH  14  15
ENDBRANCH  13  14
ENDBRANCH   1  13
TORSDOF 3
ENDMDL
