MODEL 1
REMARK VINA RESULT:      -6.2      0.000      0.000
REMARK  7 active torsions:
REMARK  status: ('A' for Active; 'I' for Inactive)
REMARK    1  A    between atoms: C_7  and  O_8 
REMARK    2  A    between atoms: O_8  and  C_9 
REMARK    3  A    between atoms: C_9  and  C_10 
REMARK    4  A    between atoms: C_10  and  N_11 
REMARK    5  A    between atoms: N_11  and  C_12 
REMARK    6  A    between atoms: C_13  and  C_14 
REMARK    7  A    between atoms: C_14  and  N_15 
ROOT
HETATM    1  C   UNL     1     -39.769 -50.659  12.482  1.00  0.00     0.132 A 
HETATM    2  C   UNL     1     -39.910 -49.374  12.096  1.00  0.00     0.138 A 
HETATM    3  C   UNL     1     -39.163 -48.298  12.777  1.00  0.00     0.274 A 
HETATM    4  O   UNL     1     -39.285 -47.132  12.407  1.00  0.00    -0.266 OA
HETATM    5  N   UNL     1     -38.338 -48.684  13.813  1.00  0.00    -0.269 N 
HETATM    6  C   UNL     1     -37.543 -47.678  14.496  1.00  0.00     0.164 C 
HETATM    7  C   UNL     1     -38.227 -49.986  14.274  1.00  0.00     0.332 A 
HETATM    8  O   UNL     1     -37.523 -50.263  15.246  1.00  0.00    -0.246 OA
HETATM    9  N   UNL     1     -38.947 -50.951  13.570  1.00  0.00    -0.288 N 
HETATM   10  C   UNL     1     -38.798 -52.330  14.028  1.00  0.00     0.163 C 
ENDROOT
BRANCH   1  11
HETATM   11  N   UNL     1     -40.440 -51.682  11.822  1.00  0.00    -0.373 N 
HETATM   12  H   UNL     1     -40.203 -51.783  10.838  1.00  0.00     0.161 HD
BRANCH  11  13
HETATM   13  C   UNL     1     -41.849 -52.006  12.085  1.00  0.00     0.147 C 
BRANCH  13  14
HETATM   14  C   UNL     1     -41.979 -53.327  12.843  1.00  0.00     0.187 C 
BRANCH  14  15
HETATM   15  O   UNL     1     -43.365 -53.653  12.979  1.00  0.00    -0.384 OA
BRANCH  15  16
HETATM   16  C   UNL     1     -44.201 -52.543  13.311  1.00  0.00     0.125 C 
HETATM   17  C   UNL     1     -44.421 -52.392  14.834  1.00  0.00     0.010 C 
HETATM   18  C   UNL     1     -44.858 -53.704  15.501  1.00  0.00     0.012 C 
HETATM   19  C   UNL     1     -45.405 -51.252  15.117  1.00  0.00     0.007 C 
HETATM   20  C   UNL     1     -46.732 -51.419  14.382  1.00  0.00     0.001 C 
HETATM   21  C   UNL     1     -46.528 -51.619  12.883  1.00  0.00     0.002 C 
HETATM   22  C   UNL     1     -45.533 -52.733  12.573  1.00  0.00     0.032 C 
ENDBRANCH  15  16
ENDBRANCH  14  15
ENDBRANCH  13  14
ENDBRANCH  11  13
ENDBRANCH   1  11
BRANCH   2  23
HETATM   23  C   UNL     1     -40.814 -48.955  10.949  1.00  0.00    -0.027 C 
BRANCH  23  24
HETATM   24  N   UNL     1     -41.564 -48.608   9.996  1.00  0.00    -0.365 N 
ATOM     25  HN2 UNL     1     -40.908 -48.870  10.732  1.00  0.00     0.165 HD
ATOM     26  HN1 UNL     1     -42.171 -48.327   9.225  1.00  0.00     0.165 HD
ENDBRANCH  23  24
ENDBRANCH   2  23
TORSDOF 7
ENDMDL
MODEL 2
REMARK VINA RESULT:      -6.1      2.228      3.756
REMARK  7 active torsions:
REMARK  status: ('A' for Active; 'I' for Inactive)
REMARK    1  A    between atoms: C_7  and  O_8 
REMARK    2  A    between atoms: O_8  and  C_9 
REMARK    3  A    between atoms: C_9  and  C_10 
REMARK    4  A    between atoms: C_10  and  N_11 
REMARK    5  A    between atoms: N_11  and  C_12 
REMARK    6  A    between atoms: C_13  and  C_14 
REMARK    7  A    between atoms: C_14  and  N_15 
ROOT
HETATM    1  C   UNL     1     -39.060 -48.224  13.211  1.00  0.00     0.132 A 
HETATM    2  C   UNL     1     -39.761 -48.015  12.077  1.00  0.00     0.138 A 
HETATM    3  C   UNL     1     -40.176 -46.652  11.690  1.00  0.00     0.274 A 
HETATM    4  O   UNL     1     -40.800 -46.469  10.647  1.00  0.00    -0.266 OA
HETATM    5  N   UNL     1     -39.815 -45.634  12.547  1.00  0.00    -0.269 N 
HETATM    6  C   UNL     1     -40.156 -44.264  12.203  1.00  0.00     0.164 C 
HETATM    7  C   UNL     1     -39.156 -45.827  13.751  1.00  0.00     0.332 A 
HETATM    8  O   UNL     1     -38.916 -44.887  14.509  1.00  0.00    -0.246 OA
HETATM    9  N   UNL     1     -38.780 -47.139  14.042  1.00  0.00    -0.288 N 
HETATM   10  C   UNL     1     -38.047 -47.340  15.289  1.00  0.00     0.163 C 
ENDROOT
BRANCH   1  11
HETATM   11  N   UNL     1     -38.634 -49.499  13.563  1.00  0.00    -0.373 N 
HETATM   12  H   UNL     1     -38.070 -49.970  12.861  1.00  0.00     0.161 HD
BRANCH  11  13
HETATM   13  C   UNL     1     -39.479 -50.440  14.313  1.00  0.00     0.147 C 
BRANCH  13  14
HETATM   14  C   UNL     1     -39.263 -51.876  13.835  1.00  0.00     0.187 C 
BRANCH  14  15
HETATM   15  O   UNL     1     -40.001 -52.082  12.628  1.00  0.00    -0.384 OA
BRANCH  15  16
HETATM   16  C   UNL     1     -41.047 -53.050  12.734  1.00  0.00     0.125 C 
HETATM   17  C   UNL     1     -42.425 -52.493  12.311  1.00  0.00     0.010 C 
HETATM   18  C   UNL     1     -42.760 -51.160  12.994  1.00  0.00     0.012 C 
HETATM   19  C   UNL     1     -43.516 -53.544  12.545  1.00  0.00     0.007 C 
HETATM   20  C   UNL     1     -43.546 -54.056  13.982  1.00  0.00     0.001 C 
HETATM   21  C   UNL     1     -42.179 -54.563  14.432  1.00  0.00     0.002 C 
HETATM   22  C   UNL     1     -41.069 -53.545  14.187  1.00  0.00     0.032 C 
ENDBRANCH  15  16
ENDBRANCH  14  15
ENDBRANCH  13  14
ENDBRANCH  11  13
ENDBRANCH   1  11
BRANCH   2  23
HETATM   23  C   UNL     1     -40.150 -49.140  11.132  1.00  0.00    -0.027 C 
BRANCH  23  24
HETATM   24  N   UNL     1     -40.473 -50.074  10.349  1.00  0.00    -0.365 N 
ATOM     25  HN2 UNL     1     -40.228 -49.356  11.031  1.00  0.00     0.165 HD
ATOM     26  HN1 UNL     1     -40.734 -50.829   9.714  1.00  0.00     0.165 HD
ENDBRANCH  23  24
ENDBRANCH   2  23
TORSDOF 7
ENDMDL
MODEL 3
REMARK VINA RESULT:      -6.1      2.549      3.605
REMARK  7 active torsions:
REMARK  status: ('A' for Active; 'I' for Inactive)
REMARK    1  A    between atoms: C_7  and  O_8 
REMARK    2  A    between atoms: O_8  and  C_9 
REMARK    3  A    between atoms: C_9  and  C_10 
REMARK    4  A    between atoms: C_10  and  N_11 
REMARK    5  A    between atoms: N_11  and  C_12 
REMARK    6  A    between atoms: C_13  and  C_14 
REMARK    7  A    between atoms: C_14  and  N_15 
ROOT
HETATM    1  C   UNL     1     -41.787 -47.816  11.204  1.00  0.00     0.132 A 
HETATM    2  C   UNL     1     -42.641 -46.977  10.582  1.00  0.00     0.138 A 
HETATM    3  C   UNL     1     -42.350 -45.532  10.501  1.00  0.00     0.274 A 
HETATM    4  O   UNL     1     -43.125 -44.777   9.917  1.00  0.00    -0.266 OA
HETATM    5  N   UNL     1     -41.180 -45.107  11.094  1.00  0.00    -0.269 N 
HETATM    6  C   UNL     1     -40.813 -43.704  11.012  1.00  0.00     0.164 C 
HETATM    7  C   UNL     1     -40.320 -45.935  11.798  1.00  0.00     0.332 A 
HETATM    8  O   UNL     1     -39.321 -45.489  12.364  1.00  0.00    -0.246 OA
HETATM    9  N   UNL     1     -40.650 -47.291  11.817  1.00  0.00    -0.288 N 
HETATM   10  C   UNL     1     -39.722 -48.172  12.522  1.00  0.00     0.163 C 
ENDROOT
BRANCH   1  11
HETATM   11  N   UNL     1     -42.036 -49.183  11.253  1.00  0.00    -0.373 N 
HETATM   12  H   UNL     1     -42.361 -49.589  10.380  1.00  0.00     0.161 HD
BRANCH  11  13
HETATM   13  C   UNL     1     -42.636 -49.839  12.423  1.00  0.00     0.147 C 
BRANCH  13  14
HETATM   14  C   UNL     1     -42.127 -51.273  12.573  1.00  0.00     0.187 C 
BRANCH  14  15
HETATM   15  O   UNL     1     -43.229 -52.131  12.876  1.00  0.00    -0.384 OA
BRANCH  15  16
HETATM   16  C   UNL     1     -44.309 -51.484  13.555  1.00  0.00     0.125 C 
HETATM   17  C   UNL     1     -44.248 -51.666  15.088  1.00  0.00     0.010 C 
HETATM   18  C   UNL     1     -44.060 -53.132  15.504  1.00  0.00     0.012 C 
HETATM   19  C   UNL     1     -45.484 -51.040  15.746  1.00  0.00     0.007 C 
HETATM   20  C   UNL     1     -46.793 -51.581  15.178  1.00  0.00     0.001 C 
HETATM   21  C   UNL     1     -46.847 -51.454  13.658  1.00  0.00     0.002 C 
HETATM   22  C   UNL     1     -45.616 -52.047  12.979  1.00  0.00     0.032 C 
ENDBRANCH  15  16
ENDBRANCH  14  15
ENDBRANCH  13  14
ENDBRANCH  11  13
ENDBRANCH   1  11
BRANCH   2  23
HETATM   23  C   UNL     1     -43.925 -47.451   9.923  1.00  0.00    -0.027 C 
BRANCH  23  24
HETATM   24  N   UNL     1     -44.992 -47.845   9.377  1.00  0.00    -0.365 N 
ATOM     25  HN2 UNL     1     -44.122 -47.585   9.842  1.00  0.00     0.165 HD
ATOM     26  HN1 UNL     1     -45.855 -48.163   8.935  1.00  0.00     0.165 HD
ENDBRANCH  23  24
ENDBRANCH   2  23
TORSDOF 7
ENDMDL
MODEL 4
REMARK VINA RESULT:      -6.0      2.752      4.164
REMARK  7 active torsions:
REMARK  status: ('A' for Active; 'I' for Inactive)
REMARK    1  A    between atoms: C_7  and  O_8 
REMARK    2  A    between atoms: O_8  and  C_9 
REMARK    3  A    between atoms: C_9  and  C_10 
REMARK    4  A    between atoms: C_10  and  N_11 
REMARK    5  A    between atoms: N_11  and  C_12 
REMARK    6  A    between atoms: C_13  and  C_14 
REMARK    7  A    between atoms: C_14  and  N_15 
ROOT
HETATM    1  C   UNL     1     -41.387 -47.590  10.964  1.00  0.00     0.132 A 
HETATM    2  C   UNL     1     -42.333 -46.810  10.400  1.00  0.00     0.138 A 
HETATM    3  C   UNL     1     -42.238 -45.339  10.472  1.00  0.00     0.274 A 
HETATM    4  O   UNL     1     -43.096 -44.637   9.940  1.00  0.00    -0.266 OA
HETATM    5  N   UNL     1     -41.148 -44.827  11.144  1.00  0.00    -0.269 N 
HETATM    6  C   UNL     1     -40.973 -43.387  11.215  1.00  0.00     0.164 C 
HETATM    7  C   UNL     1     -40.199 -45.602  11.792  1.00  0.00     0.332 A 
HETATM    8  O   UNL     1     -39.281 -45.089  12.433  1.00  0.00    -0.246 OA
HETATM    9  N   UNL     1     -40.344 -46.985  11.664  1.00  0.00    -0.288 N 
HETATM   10  C   UNL     1     -39.321 -47.803  12.309  1.00  0.00     0.163 C 
ENDROOT
BRANCH   1  11
HETATM   11  N   UNL     1     -41.450 -48.975  10.867  1.00  0.00    -0.373 N 
HETATM   12  H   UNL     1     -41.680 -49.329   9.943  1.00  0.00     0.161 HD
BRANCH  11  13
HETATM   13  C   UNL     1     -42.005 -49.820  11.934  1.00  0.00     0.147 C 
BRANCH  13  14
HETATM   14  C   UNL     1     -41.191 -51.104  12.100  1.00  0.00     0.187 C 
BRANCH  14  15
HETATM   15  O   UNL     1     -42.038 -52.228  11.853  1.00  0.00    -0.384 OA
BRANCH  15  16
HETATM   16  C   UNL     1     -42.687 -52.745  13.017  1.00  0.00     0.125 C 
HETATM   17  C   UNL     1     -41.712 -53.459  13.980  1.00  0.00     0.010 C 
HETATM   18  C   UNL     1     -40.828 -54.492  13.269  1.00  0.00     0.012 C 
HETATM   19  C   UNL     1     -42.483 -54.077  15.152  1.00  0.00     0.007 C 
HETATM   20  C   UNL     1     -43.596 -55.016  14.698  1.00  0.00     0.001 C 
HETATM   21  C   UNL     1     -44.539 -54.341  13.707  1.00  0.00     0.002 C 
HETATM   22  C   UNL     1     -43.795 -53.694  12.542  1.00  0.00     0.032 C 
ENDBRANCH  15  16
ENDBRANCH  14  15
ENDBRANCH  13  14
ENDBRANCH  11  13
ENDBRANCH   1  11
BRANCH   2  23
HETATM   23  C   UNL     1     -43.528 -47.380   9.653  1.00  0.00    -0.027 C 
BRANCH  23  24
HETATM   24  N   UNL     1     -44.520 -47.853   9.034  1.00  0.00    -0.365 N 
ATOM     25  HN2 UNL     1     -43.746 -47.414   9.533  1.00  0.00     0.165 HD
ATOM     26  HN1 UNL     1     -45.322 -48.238   8.533  1.00  0.00     0.165 HD
ENDBRANCH  23  24
ENDBRANCH   2  23
TORSDOF 7
ENDMDL
MODEL 5
REMARK VINA RESULT:      -6.0      2.670      6.596
REMARK  7 active torsions:
REMARK  status: ('A' for Active; 'I' for Inactive)
REMARK    1  A    between atoms: C_7  and  O_8 
REMARK    2  A    between atoms: O_8  and  C_9 
REMARK    3  A    between atoms: C_9  and  C_10 
REMARK    4  A    between atoms: C_10  and  N_11 
REMARK    5  A    between atoms: N_11  and  C_12 
REMARK    6  A    between atoms: C_13  and  C_14 
REMARK    7  A    between atoms: C_14  and  N_15 
ROOT
HETATM    1  C   UNL     1     -41.694 -51.019  12.499  1.00  0.00     0.132 A 
HETATM    2  C   UNL     1     -40.354 -51.176  12.544  1.00  0.00     0.138 A 
HETATM    3  C   UNL     1     -39.743 -52.174  13.443  1.00  0.00     0.274 A 
HETATM    4  O   UNL     1     -38.523 -52.321  13.465  1.00  0.00    -0.266 OA
HETATM    5  N   UNL     1     -40.610 -52.913  14.220  1.00  0.00    -0.269 N 
HETATM    6  C   UNL     1     -40.076 -53.942  15.095  1.00  0.00     0.164 C 
HETATM    7  C   UNL     1     -41.984 -52.727  14.245  1.00  0.00     0.332 A 
HETATM    8  O   UNL     1     -42.705 -53.372  15.007  1.00  0.00    -0.246 OA
HETATM    9  N   UNL     1     -42.491 -51.779  13.355  1.00  0.00    -0.288 N 
HETATM   10  C   UNL     1     -43.942 -51.612  13.348  1.00  0.00     0.163 C 
ENDROOT
BRANCH   1  11
HETATM   11  N   UNL     1     -42.279 -50.108  11.628  1.00  0.00    -0.373 N 
HETATM   12  H   UNL     1     -42.060 -50.254  10.646  1.00  0.00     0.161 HD
BRANCH  11  13
HETATM   13  C   UNL     1     -42.427 -48.682  11.953  1.00  0.00     0.147 C 
BRANCH  13  14
HETATM   14  C   UNL     1     -42.136 -47.806  10.734  1.00  0.00     0.187 C 
BRANCH  14  15
HETATM   15  O   UNL     1     -40.810 -47.283  10.842  1.00  0.00    -0.384 OA
BRANCH  15  16
HETATM   16  C   UNL     1     -40.689 -46.157  11.716  1.00  0.00     0.125 C 
HETATM   17  C   UNL     1     -40.480 -44.828  10.956  1.00  0.00     0.010 C 
HETATM   18  C   UNL     1     -39.355 -44.912   9.915  1.00  0.00     0.012 C 
HETATM   19  C   UNL     1     -40.256 -43.680  11.947  1.00  0.00     0.007 C 
HETATM   20  C   UNL     1     -39.107 -43.950  12.914  1.00  0.00     0.001 C 
HETATM   21  C   UNL     1     -39.274 -45.284  13.636  1.00  0.00     0.002 C 
HETATM   22  C   UNL     1     -39.524 -46.441  12.672  1.00  0.00     0.032 C 
ENDBRANCH  15  16
ENDBRANCH  14  15
ENDBRANCH  13  14
ENDBRANCH  11  13
ENDBRANCH   1  11
BRANCH   2  23
HETATM   23  C   UNL     1     -39.403 -50.364  11.680  1.00  0.00    -0.027 C 
BRANCH  23  24
HETATM   24  N   UNL     1     -38.615 -49.690  10.962  1.00  0.00    -0.365 N 
ATOM     25  HN2 UNL     1     -39.245 -50.284  11.502  1.00  0.00     0.165 HD
ATOM     26  HN1 UNL     1     -37.978 -49.144  10.382  1.00  0.00     0.165 HD
ENDBRANCH  23  24
ENDBRANCH   2  23
TORSDOF 7
ENDMDL
MODEL 6
REMARK VINA RESULT:      -6.0      2.415      6.659
REMARK  7 active torsions:
REMARK  status: ('A' for Active; 'I' for Inactive)
REMARK    1  A    between atoms: C_7  and  O_8 
REMARK    2  A    between atoms: O_8  and  C_9 
REMARK    3  A    between atoms: C_9  and  C_10 
REMARK    4  A    between atoms: C_10  and  N_11 
REMARK    5  A    between atoms: N_11  and  C_12 
REMARK    6  A    between atoms: C_13  and  C_14 
REMARK    7  A    between atoms: C_14  and  N_15 
ROOT
HETATM    1  C   UNL     1     -40.909 -53.721  14.000  1.00  0.00     0.132 A 
HETATM    2  C   UNL     1     -41.742 -53.248  13.050  1.00  0.00     0.138 A 
HETATM    3  C   UNL     1     -43.167 -53.634  13.037  1.00  0.00     0.274 A 
HETATM    4  O   UNL     1     -43.921 -53.183  12.178  1.00  0.00    -0.266 OA
HETATM    5  N   UNL     1     -43.577 -54.496  14.032  1.00  0.00    -0.269 N 
HETATM    6  C   UNL     1     -44.976 -54.882  14.101  1.00  0.00     0.164 C 
HETATM    7  C   UNL     1     -42.731 -55.052  14.978  1.00  0.00     0.332 A 
HETATM    8  O   UNL     1     -43.140 -55.868  15.804  1.00  0.00    -0.246 OA
HETATM    9  N   UNL     1     -41.402 -54.626  14.939  1.00  0.00    -0.288 N 
HETATM   10  C   UNL     1     -40.517 -55.177  15.962  1.00  0.00     0.163 C 
ENDROOT
BRANCH   1  11
HETATM   11  N   UNL     1     -39.575 -53.333  14.040  1.00  0.00    -0.373 N 
HETATM   12  H   UNL     1     -38.911 -54.096  14.136  1.00  0.00     0.161 HD
BRANCH  11  13
HETATM   13  C   UNL     1     -39.122 -52.119  14.734  1.00  0.00     0.147 C 
BRANCH  13  14
HETATM   14  C   UNL     1     -38.161 -51.311  13.861  1.00  0.00     0.187 C 
BRANCH  14  15
HETATM   15  O   UNL     1     -38.903 -50.326  13.138  1.00  0.00    -0.384 OA
BRANCH  15  16
HETATM   16  C   UNL     1     -39.077 -49.091  13.836  1.00  0.00     0.125 C 
HETATM   17  C   UNL     1     -40.081 -48.145  13.140  1.00  0.00     0.010 C 
HETATM   18  C   UNL     1     -39.783 -47.961  11.645  1.00  0.00     0.012 C 
HETATM   19  C   UNL     1     -40.146 -46.803  13.878  1.00  0.00     0.007 C 
HETATM   20  C   UNL     1     -38.778 -46.143  14.026  1.00  0.00     0.001 C 
HETATM   21  C   UNL     1     -37.761 -47.083  14.667  1.00  0.00     0.002 C 
HETATM   22  C   UNL     1     -37.695 -48.437  13.966  1.00  0.00     0.032 C 
ENDBRANCH  15  16
ENDBRANCH  14  15
ENDBRANCH  13  14
ENDBRANCH  11  13
ENDBRANCH   1  11
BRANCH   2  23
HETATM   23  C   UNL     1     -41.286 -52.291  11.960  1.00  0.00    -0.027 C 
BRANCH  23  24
HETATM   24  N   UNL     1     -40.908 -51.496  11.057  1.00  0.00    -0.365 N 
ATOM     25  HN2 UNL     1     -41.267 -52.149  11.754  1.00  0.00     0.165 HD
ATOM     26  HN1 UNL     1     -40.601 -50.852  10.327  1.00  0.00     0.165 HD
ENDBRANCH  23  24
ENDBRANCH   2  23
TORSDOF 7
ENDMDL
MODEL 7
REMARK VINA RESULT:      -6.0      2.610      6.969
REMARK  7 active torsions:
REMARK  status: ('A' for Active; 'I' for Inactive)
REMARK    1  A    between atoms: C_7  and  O_8 
REMARK    2  A    between atoms: O_8  and  C_9 
REMARK    3  A    between atoms: C_9  and  C_10 
REMARK    4  A    between atoms: C_10  and  N_11 
REMARK    5  A    between atoms: N_11  and  C_12 
REMARK    6  A    between atoms: C_13  and  C_14 
REMARK    7  A    between atoms: C_14  and  N_15 
ROOT
HETATM    1  C   UNL     1     -42.581 -53.354  14.915  1.00  0.00     0.132 A 
HETATM    2  C   UNL     1     -43.208 -53.314  13.721  1.00  0.00     0.138 A 
HETATM    3  C   UNL     1     -44.629 -53.697  13.604  1.00  0.00     0.274 A 
HETATM    4  O   UNL     1     -45.196 -53.640  12.515  1.00  0.00    -0.266 OA
HETATM    5  N   UNL     1     -45.255 -54.096  14.766  1.00  0.00    -0.269 N 
HETATM    6  C   UNL     1     -46.665 -54.445  14.727  1.00  0.00     0.164 C 
HETATM    7  C   UNL     1     -44.619 -54.213  15.992  1.00  0.00     0.332 A 
HETATM    8  O   UNL     1     -45.212 -54.638  16.984  1.00  0.00    -0.246 OA
HETATM    9  N   UNL     1     -43.281 -53.816  16.030  1.00  0.00    -0.288 N 
HETATM   10  C   UNL     1     -42.621 -53.897  17.330  1.00  0.00     0.163 C 
ENDROOT
BRANCH   1  11
HETATM   11  N   UNL     1     -41.255 -52.960  15.041  1.00  0.00    -0.373 N 
HETATM   12  H   UNL     1     -41.083 -51.974  14.859  1.00  0.00     0.161 HD
BRANCH  11  13
HETATM   13  C   UNL     1     -40.131 -53.803  14.608  1.00  0.00     0.147 C 
BRANCH  13  14
HETATM   14  C   UNL     1     -38.920 -52.954  14.224  1.00  0.00     0.187 C 
BRANCH  14  15
HETATM   15  O   UNL     1     -39.227 -52.210  13.042  1.00  0.00    -0.384 OA
BRANCH  15  16
HETATM   16  C   UNL     1     -39.354 -50.801  13.248  1.00  0.00     0.125 C 
HETATM   17  C   UNL     1     -38.839 -49.971  12.051  1.00  0.00     0.010 C 
HETATM   18  C   UNL     1     -37.435 -50.395  11.597  1.00  0.00     0.012 C 
HETATM   19  C   UNL     1     -38.906 -48.475  12.375  1.00  0.00     0.007 C 
HETATM   20  C   UNL     1     -38.162 -48.114  13.657  1.00  0.00     0.001 C 
HETATM   21  C   UNL     1     -38.626 -48.960  14.839  1.00  0.00     0.002 C 
HETATM   22  C   UNL     1     -38.592 -50.455  14.534  1.00  0.00     0.032 C 
ENDBRANCH  15  16
ENDBRANCH  14  15
ENDBRANCH  13  14
ENDBRANCH  11  13
ENDBRANCH   1  11
BRANCH   2  23
HETATM   23  C   UNL     1     -42.516 -52.865  12.445  1.00  0.00    -0.027 C 
BRANCH  23  24
HETATM   24  N   UNL     1     -41.942 -52.491  11.386  1.00  0.00    -0.365 N 
ATOM     25  HN2 UNL     1     -42.417 -52.732  12.256  1.00  0.00     0.165 HD
ATOM     26  HN1 UNL     1     -41.477 -52.191  10.528  1.00  0.00     0.165 HD
ENDBRANCH  23  24
ENDBRANCH   2  23
TORSDOF 7
ENDMDL
MODEL 8
REMARK VINA RESULT:      -5.9      1.591      3.098
REMARK  7 active torsions:
REMARK  status: ('A' for Active; 'I' for Inactive)
REMARK    1  A    between atoms: C_7  and  O_8 
REMARK    2  A    between atoms: O_8  and  C_9 
REMARK    3  A    between atoms: C_9  and  C_10 
REMARK    4  A    between atoms: C_10  and  N_11 
REMARK    5  A    between atoms: N_11  and  C_12 
REMARK    6  A    between atoms: C_13  and  C_14 
REMARK    7  A    between atoms: C_14  and  N_15 
ROOT
HETATM    1  C   UNL     1     -40.225 -49.257  11.685  1.00  0.00     0.132 A 
HETATM    2  C   UNL     1     -39.161 -49.168  12.509  1.00  0.00     0.138 A 
HETATM    3  C   UNL     1     -38.827 -47.891  13.171  1.00  0.00     0.274 A 
HETATM    4  O   UNL     1     -37.865 -47.824  13.933  1.00  0.00    -0.266 OA
HETATM    5  N   UNL     1     -39.650 -46.821  12.891  1.00  0.00    -0.269 N 
HETATM    6  C   UNL     1     -39.400 -45.547  13.543  1.00  0.00     0.164 C 
HETATM    7  C   UNL     1     -40.707 -46.866  11.996  1.00  0.00     0.332 A 
HETATM    8  O   UNL     1     -41.370 -45.861  11.735  1.00  0.00    -0.246 OA
HETATM    9  N   UNL     1     -40.975 -48.110  11.424  1.00  0.00    -0.288 N 
HETATM   10  C   UNL     1     -42.116 -48.171  10.514  1.00  0.00     0.163 C 
ENDROOT
BRANCH   1  11
HETATM   11  N   UNL     1     -40.568 -50.464  11.088  1.00  0.00    -0.373 N 
HETATM   12  H   UNL     1     -40.969 -50.382  10.157  1.00  0.00     0.161 HD
BRANCH  11  13
HETATM   13  C   UNL     1     -41.149 -51.586  11.840  1.00  0.00     0.147 C 
BRANCH  13  14
HETATM   14  C   UNL     1     -42.351 -51.131  12.668  1.00  0.00     0.187 C 
BRANCH  14  15
HETATM   15  O   UNL     1     -43.322 -52.180  12.695  1.00  0.00    -0.384 OA
BRANCH  15  16
HETATM   16  C   UNL     1     -44.270 -52.077  13.760  1.00  0.00     0.125 C 
HETATM   17  C   UNL     1     -44.541 -53.431  14.455  1.00  0.00     0.010 C 
HETATM   18  C   UNL     1     -44.865 -54.554  13.459  1.00  0.00     0.012 C 
HETATM   19  C   UNL     1     -45.638 -53.273  15.514  1.00  0.00     0.007 C 
HETATM   20  C   UNL     1     -46.924 -52.676  14.949  1.00  0.00     0.001 C 
HETATM   21  C   UNL     1     -46.665 -51.363  14.216  1.00  0.00     0.002 C 
HETATM   22  C   UNL     1     -45.559 -51.486  13.172  1.00  0.00     0.032 C 
ENDBRANCH  15  16
ENDBRANCH  14  15
ENDBRANCH  13  14
ENDBRANCH  11  13
ENDBRANCH   1  11
BRANCH   2  23
HETATM   23  C   UNL     1     -38.261 -50.353  12.821  1.00  0.00    -0.027 C 
BRANCH  23  24
HETATM   24  N   UNL     1     -37.514 -51.335  13.079  1.00  0.00    -0.365 N 
ATOM     25  HN2 UNL     1     -38.128 -50.565  12.812  1.00  0.00     0.165 HD
ATOM     26  HN1 UNL     1     -36.908 -52.129  13.290  1.00  0.00     0.165 HD
ENDBRANCH  23  24
ENDBRANCH   2  23
TORSDOF 7
ENDMDL
MODEL 9
REMARK VINA RESULT:      -5.9      2.797      6.331
REMARK  7 active torsions:
REMARK  status: ('A' for Active; 'I' for Inactive)
REMARK    1  A    between atoms: C_7  and  O_8 
REMARK    2  A    between atoms: O_8  and  C_9 
REMARK    3  A    between atoms: C_9  and  C_10 
REMARK    4  A    between atoms: C_10  and  N_11 
REMARK    5  A    between atoms: N_11  and  C_12 
REMARK    6  A    between atoms: C_13  and  C_14 
REMARK    7  A    between atoms: C_14  and  N_15 
ROOT
HETATM    1  C   UNL     1     -41.595 -51.408  12.411  1.00  0.00     0.132 A 
HETATM    2  C   UNL     1     -42.288 -52.503  12.788  1.00  0.00     0.138 A 
HETATM    3  C   UNL     1     -41.619 -53.608  13.501  1.00  0.00     0.274 A 
HETATM    4  O   UNL     1     -42.264 -54.594  13.855  1.00  0.00    -0.266 OA
HETATM    5  N   UNL     1     -40.271 -53.455  13.745  1.00  0.00    -0.269 N 
HETATM    6  C   UNL     1     -39.563 -54.488  14.481  1.00  0.00     0.164 C 
HETATM    7  C   UNL     1     -39.520 -52.375  13.309  1.00  0.00     0.332 A 
HETATM    8  O   UNL     1     -38.304 -52.321  13.499  1.00  0.00    -0.246 OA
HETATM    9  N   UNL     1     -40.223 -51.360  12.658  1.00  0.00    -0.288 N 
HETATM   10  C   UNL     1     -39.441 -50.201  12.237  1.00  0.00     0.163 C 
ENDROOT
BRANCH   1  11
HETATM   11  N   UNL     1     -42.225 -50.347  11.772  1.00  0.00    -0.373 N 
HETATM   12  H   UNL     1     -41.771 -50.033  10.918  1.00  0.00     0.161 HD
BRANCH  11  13
HETATM   13  C   UNL     1     -42.849 -49.237  12.505  1.00  0.00     0.147 C 
BRANCH  13  14
HETATM   14  C   UNL     1     -43.018 -48.010  11.608  1.00  0.00     0.187 C 
BRANCH  14  15
HETATM   15  O   UNL     1     -41.838 -47.845  10.817  1.00  0.00    -0.384 OA
BRANCH  15  16
HETATM   16  C   UNL     1     -41.507 -46.485  10.529  1.00  0.00     0.125 C 
HETATM   17  C   UNL     1     -40.050 -46.130  10.904  1.00  0.00     0.010 C 
HETATM   18  C   UNL     1     -39.686 -46.555  12.334  1.00  0.00     0.012 C 
HETATM   19  C   UNL     1     -39.790 -44.638  10.668  1.00  0.00     0.007 C 
HETATM   20  C   UNL     1     -40.783 -43.742  11.403  1.00  0.00     0.001 C 
HETATM   21  C   UNL     1     -42.227 -44.112  11.081  1.00  0.00     0.002 C 
HETATM   22  C   UNL     1     -42.507 -45.599  11.284  1.00  0.00     0.032 C 
ENDBRANCH  15  16
ENDBRANCH  14  15
ENDBRANCH  13  14
ENDBRANCH  11  13
ENDBRANCH   1  11
BRANCH   2  23
HETATM   23  C   UNL     1     -43.776 -52.663  12.524  1.00  0.00    -0.027 C 
BRANCH  23  24
HETATM   24  N   UNL     1     -45.011 -52.795  12.304  1.00  0.00    -0.365 N 
ATOM     25  HN2 UNL     1     -44.026 -52.679  12.543  1.00  0.00     0.165 HD
ATOM     26  HN1 UNL     1     -46.010 -52.902  12.125  1.00  0.00     0.165 HD
ENDBRANCH  23  24
ENDBRANCH   2  23
TORSDOF 7
ENDMDL
