MODEL 1
REMARK VINA RESULT:      -7.2      0.000      0.000
REMARK  5 active torsions:
REMARK  status: ('A' for Active; 'I' for Inactive)
REMARK    1  A    between atoms: O_1  and  C_2 
REMARK    2  A    between atoms: C_2  and  C_3 
REMARK    3  A    between atoms: C_3  and  N_4 
REMARK       I    between atoms: N_4  and  C_5 
REMARK       I    between atoms: C_5  and  N_7 
REMARK    4  A    between atoms: N_7  and  C_8 
REMARK    5  A    between atoms: C_14  and  N_15 
ROOT
HETATM    1  N   UNL     1     -40.767 -49.878  11.171  1.00  0.00    -0.344 N 
HETATM    2  C   UNL     1     -41.712 -48.878  11.120  1.00  0.00     0.298 C 
HETATM    3  O   UNL     1     -42.387 -48.543  12.083  1.00  0.00    -0.254 OA
HETATM    4  N   UNL     1     -41.776 -48.340   9.845  1.00  0.00    -0.207 NA
HETATM    5  H   UNL     1     -40.612 -50.348  10.289  1.00  0.00     0.163 HD
HETATM    6  H   UNL     1     -40.830 -48.124   9.558  1.00  0.00     0.138 HD
ENDROOT
BRANCH   4   7
HETATM    7  C   UNL     1     -42.697 -47.287   9.606  1.00  0.00     0.060 A 
HETATM    8  C   UNL     1     -43.879 -47.630   8.936  1.00  0.00     0.029 A 
HETATM    9  C   UNL     1     -44.846 -46.667   8.708  1.00  0.00     0.019 A 
HETATM   10  C   UNL     1     -44.601 -45.396   9.188  1.00  0.00     0.090 A 
HETATM   11  N   UNL     1     -43.493 -45.047   9.877  1.00  0.00    -0.351 N 
HETATM   12  C   UNL     1     -42.517 -45.968  10.088  1.00  0.00     0.125 A 
ATOM     13  HN  UNL     1     -43.390 -44.097  10.235  1.00  0.00     0.166 HD
BRANCH  12  14
HETATM   14  N   UNL     1     -41.445 -45.573  10.880  1.00  0.00    -0.366 N 
HETATM   15  C   UNL     1     -40.168 -45.168  10.304  1.00  0.00     0.124 C 
HETATM   16  C   UNL     1     -39.490 -44.323  11.378  1.00  0.00     0.021 C 
HETATM   17  C   UNL     1     -40.642 -43.772  12.194  1.00  0.00     0.021 C 
HETATM   18  C   UNL     1     -41.694 -44.876  12.141  1.00  0.00     0.124 C 
ENDBRANCH  12  14
ENDBRANCH   4   7
BRANCH   1  19
HETATM   19  C   UNL     1     -40.629 -50.664  12.385  1.00  0.00     0.161 C 
BRANCH  19  20
HETATM   20  C   UNL     1     -41.294 -52.058  12.306  1.00  0.00     0.074 C 
HETATM   21  C   UNL     1     -40.524 -53.039  13.209  1.00  0.00     0.039 C 
HETATM   22  C   UNL     1     -41.181 -54.417  13.281  1.00  0.00     0.003 C 
HETATM   23  C   UNL     1     -42.644 -54.318  13.700  1.00  0.00     0.000 C 
HETATM   24  C   UNL     1     -43.422 -53.383  12.782  1.00  0.00     0.003 C 
HETATM   25  C   UNL     1     -42.778 -51.996  12.715  1.00  0.00     0.039 C 
BRANCH  20  26
HETATM   26  O   UNL     1     -41.236 -52.535  10.953  1.00  0.00    -0.388 OA
HETATM   27  H   UNL     1     -40.966 -53.469  10.979  1.00  0.00     0.210 HD
ENDBRANCH  20  26
ENDBRANCH  19  20
ENDBRANCH   1  19
TORSDOF 5
ENDMDL
MODEL 2
REMARK VINA RESULT:      -7.0      2.064      3.974
REMARK  5 active torsions:
REMARK  status: ('A' for Active; 'I' for Inactive)
REMARK    1  A    between atoms: O_1  and  C_2 
REMARK    2  A    between atoms: C_2  and  C_3 
REMARK    3  A    between atoms: C_3  and  N_4 
REMARK       I    between atoms: N_4  and  C_5 
REMARK       I    between atoms: C_5  and  N_7 
REMARK    4  A    between atoms: N_7  and  C_8 
REMARK    5  A    between atoms: C_14  and  N_15 
ROOT
HETATM    1  N   UNL     1     -42.339 -51.427  12.091  1.00  0.00    -0.344 N 
HETATM    2  C   UNL     1     -41.951 -50.113  12.228  1.00  0.00     0.298 C 
HETATM    3  O   UNL     1     -41.879 -49.545  13.309  1.00  0.00    -0.254 OA
HETATM    4  N   UNL     1     -41.675 -49.560  10.989  1.00  0.00    -0.207 NA
HETATM    5  H   UNL     1     -42.775 -51.641  11.204  1.00  0.00     0.163 HD
HETATM    6  H   UNL     1     -41.057 -50.196  10.502  1.00  0.00     0.138 HD
ENDROOT
BRANCH   4   7
HETATM    7  C   UNL     1     -41.252 -48.206  10.938  1.00  0.00     0.060 A 
HETATM    8  C   UNL     1     -39.975 -47.930  11.442  1.00  0.00     0.029 A 
HETATM    9  C   UNL     1     -39.474 -46.642  11.384  1.00  0.00     0.019 A 
HETATM   10  C   UNL     1     -40.269 -45.679  10.794  1.00  0.00     0.090 A 
HETATM   11  N   UNL     1     -41.484 -45.923  10.258  1.00  0.00    -0.351 N 
HETATM   12  C   UNL     1     -42.008 -47.176  10.329  1.00  0.00     0.125 A 
ATOM     13  HN  UNL     1     -42.005 -45.173   9.804  1.00  0.00     0.166 HD
BRANCH  12  14
HETATM   14  N   UNL     1     -43.220 -47.383   9.681  1.00  0.00    -0.366 N 
HETATM   15  C   UNL     1     -44.410 -47.834  10.395  1.00  0.00     0.124 C 
HETATM   16  C   UNL     1     -45.587 -47.422   9.516  1.00  0.00     0.021 C 
HETATM   17  C   UNL     1     -45.063 -46.238   8.729  1.00  0.00     0.021 C 
HETATM   18  C   UNL     1     -43.582 -46.548   8.536  1.00  0.00     0.124 C 
ENDBRANCH  12  14
ENDBRANCH   4   7
BRANCH   1  19
HETATM   19  C   UNL     1     -42.799 -52.158  13.259  1.00  0.00     0.161 C 
BRANCH  19  20
HETATM   20  C   UNL     1     -44.315 -52.463  13.247  1.00  0.00     0.074 C 
HETATM   21  C   UNL     1     -44.610 -53.603  14.240  1.00  0.00     0.039 C 
HETATM   22  C   UNL     1     -46.104 -53.895  14.379  1.00  0.00     0.003 C 
HETATM   23  C   UNL     1     -46.889 -52.638  14.737  1.00  0.00     0.000 C 
HETATM   24  C   UNL     1     -46.636 -51.520  13.733  1.00  0.00     0.003 C 
HETATM   25  C   UNL     1     -45.143 -51.212  13.598  1.00  0.00     0.039 C 
BRANCH  20  26
HETATM   26  O   UNL     1     -44.704 -52.886  11.932  1.00  0.00    -0.388 OA
HETATM   27  H   UNL     1     -43.920 -53.266  11.498  1.00  0.00     0.210 HD
ENDBRANCH  20  26
ENDBRANCH  19  20
ENDBRANCH   1  19
TORSDOF 5
ENDMDL
MODEL 3
REMARK VINA RESULT:      -6.9      1.176      3.174
REMARK  5 active torsions:
REMARK  status: ('A' for Active; 'I' for Inactive)
REMARK    1  A    between atoms: O_1  and  C_2 
REMARK    2  A    between atoms: C_2  and  C_3 
REMARK    3  A    between atoms: C_3  and  N_4 
REMARK       I    between atoms: N_4  and  C_5 
REMARK       I    between atoms: C_5  and  N_7 
REMARK    4  A    between atoms: N_7  and  C_8 
REMARK    5  A    between atoms: C_14  and  N_15 
ROOT
HETATM    1  N   UNL     1     -39.924 -49.987  11.452  1.00  0.00    -0.344 N 
HETATM    2  C   UNL     1     -40.280 -48.715  11.843  1.00  0.00     0.298 C 
HETATM    3  O   UNL     1     -40.451 -48.396  13.011  1.00  0.00    -0.254 OA
HETATM    4  N   UNL     1     -40.417 -47.892  10.738  1.00  0.00    -0.207 NA
HETATM    5  H   UNL     1     -40.236 -50.238  10.523  1.00  0.00     0.163 HD
HETATM    6  H   UNL     1     -39.588 -48.006  10.168  1.00  0.00     0.138 HD
ENDROOT
BRANCH   4   7
HETATM    7  C   UNL     1     -40.777 -46.535  10.952  1.00  0.00     0.060 A 
HETATM    8  C   UNL     1     -39.782 -45.699  11.474  1.00  0.00     0.029 A 
HETATM    9  C   UNL     1     -40.043 -44.354  11.666  1.00  0.00     0.019 A 
HETATM   10  C   UNL     1     -41.292 -43.892  11.300  1.00  0.00     0.090 A 
HETATM   11  N   UNL     1     -42.255 -44.664  10.753  1.00  0.00    -0.351 N 
HETATM   12  C   UNL     1     -42.031 -45.994  10.580  1.00  0.00     0.125 A 
ATOM     13  HN  UNL     1     -43.144 -44.252  10.471  1.00  0.00     0.166 HD
BRANCH  12  14
HETATM   14  N   UNL     1     -43.025 -46.716   9.930  1.00  0.00    -0.366 N 
HETATM   15  C   UNL     1     -43.945 -47.586  10.653  1.00  0.00     0.124 C 
HETATM   16  C   UNL     1     -45.156 -47.741   9.738  1.00  0.00     0.021 C 
HETATM   17  C   UNL     1     -45.142 -46.484   8.891  1.00  0.00     0.021 C 
HETATM   18  C   UNL     1     -43.660 -46.160   8.735  1.00  0.00     0.124 C 
ENDBRANCH  12  14
ENDBRANCH   4   7
BRANCH   1  19
HETATM   19  C   UNL     1     -39.854 -51.042  12.446  1.00  0.00     0.161 C 
BRANCH  19  20
HETATM   20  C   UNL     1     -40.993 -52.082  12.334  1.00  0.00     0.074 C 
HETATM   21  C   UNL     1     -40.639 -53.316  13.187  1.00  0.00     0.039 C 
HETATM   22  C   UNL     1     -41.763 -54.351  13.226  1.00  0.00     0.003 C 
HETATM   23  C   UNL     1     -43.079 -53.729  13.680  1.00  0.00     0.000 C 
HETATM   24  C   UNL     1     -43.458 -52.535  12.812  1.00  0.00     0.003 C 
HETATM   25  C   UNL     1     -42.343 -51.488  12.778  1.00  0.00     0.039 C 
BRANCH  20  26
HETATM   26  O   UNL     1     -41.128 -52.492  10.965  1.00  0.00    -0.388 OA
HETATM   27  H   UNL     1     -40.436 -53.152  10.784  1.00  0.00     0.210 HD
ENDBRANCH  20  26
ENDBRANCH  19  20
ENDBRANCH   1  19
TORSDOF 5
ENDMDL
MODEL 4
REMARK VINA RESULT:      -6.9      2.720      7.607
REMARK  5 active torsions:
REMARK  status: ('A' for Active; 'I' for Inactive)
REMARK    1  A    between atoms: O_1  and  C_2 
REMARK    2  A    between atoms: C_2  and  C_3 
REMARK    3  A    between atoms: C_3  and  N_4 
REMARK       I    between atoms: N_4  and  C_5 
REMARK       I    between atoms: C_5  and  N_7 
REMARK    4  A    between atoms: N_7  and  C_8 
REMARK    5  A    between atoms: C_14  and  N_15 
ROOT
HETATM    1  N   UNL     1     -41.063 -50.896  11.294  1.00  0.00    -0.344 N 
HETATM    2  C   UNL     1     -41.408 -51.488  12.489  1.00  0.00     0.298 C 
HETATM    3  O   UNL     1     -41.210 -50.967  13.578  1.00  0.00    -0.254 OA
HETATM    4  N   UNL     1     -41.986 -52.726  12.263  1.00  0.00    -0.207 NA
HETATM    5  H   UNL     1     -40.862 -51.550  10.549  1.00  0.00     0.163 HD
HETATM    6  H   UNL     1     -42.704 -52.604  11.562  1.00  0.00     0.138 HD
ENDROOT
BRANCH   4   7
HETATM    7  C   UNL     1     -42.412 -53.482  13.387  1.00  0.00     0.060 A 
HETATM    8  C   UNL     1     -41.464 -54.342  13.957  1.00  0.00     0.029 A 
HETATM    9  C   UNL     1     -41.790 -55.078  15.083  1.00  0.00     0.019 A 
HETATM   10  C   UNL     1     -43.053 -54.901  15.612  1.00  0.00     0.090 A 
HETATM   11  N   UNL     1     -43.972 -54.046  15.111  1.00  0.00    -0.351 N 
HETATM   12  C   UNL     1     -43.684 -53.334  13.990  1.00  0.00     0.125 A 
ATOM     13  HN  UNL     1     -44.875 -53.936  15.572  1.00  0.00     0.166 HD
BRANCH  12  14
HETATM   14  N   UNL     1     -44.634 -52.407  13.577  1.00  0.00    -0.366 N 
HETATM   15  C   UNL     1     -45.614 -52.715  12.542  1.00  0.00     0.124 C 
HETATM   16  C   UNL     1     -46.755 -51.726  12.760  1.00  0.00     0.021 C 
HETATM   17  C   UNL     1     -46.665 -51.379  14.233  1.00  0.00     0.021 C 
HETATM   18  C   UNL     1     -45.173 -51.446  14.538  1.00  0.00     0.124 C 
ENDBRANCH  12  14
ENDBRANCH   4   7
BRANCH   1  19
HETATM   19  C   UNL     1     -40.324 -49.646  11.308  1.00  0.00     0.161 C 
BRANCH  19  20
HETATM   20  C   UNL     1     -41.172 -48.414  10.914  1.00  0.00     0.074 C 
HETATM   21  C   UNL     1     -42.403 -48.331  11.837  1.00  0.00     0.039 C 
HETATM   22  C   UNL     1     -43.241 -47.076  11.593  1.00  0.00     0.003 C 
HETATM   23  C   UNL     1     -42.395 -45.811  11.689  1.00  0.00     0.000 C 
HETATM   24  C   UNL     1     -41.201 -45.869  10.745  1.00  0.00     0.003 C 
HETATM   25  C   UNL     1     -40.348 -47.115  10.992  1.00  0.00     0.039 C 
BRANCH  20  26
HETATM   26  O   UNL     1     -41.623 -48.563   9.559  1.00  0.00    -0.388 OA
HETATM   27  H   UNL     1     -42.324 -49.238   9.552  1.00  0.00     0.210 HD
ENDBRANCH  20  26
ENDBRANCH  19  20
ENDBRANCH   1  19
TORSDOF 5
ENDMDL
MODEL 5
REMARK VINA RESULT:      -6.8      2.261      4.026
REMARK  5 active torsions:
REMARK  status: ('A' for Active; 'I' for Inactive)
REMARK    1  A    between atoms: O_1  and  C_2 
REMARK    2  A    between atoms: C_2  and  C_3 
REMARK    3  A    between atoms: C_3  and  N_4 
REMARK       I    between atoms: N_4  and  C_5 
REMARK       I    between atoms: C_5  and  N_7 
REMARK    4  A    between atoms: N_7  and  C_8 
REMARK    5  A    between atoms: C_14  and  N_15 
ROOT
HETATM    1  N   UNL     1     -41.671 -52.104  12.466  1.00  0.00    -0.344 N 
HETATM    2  C   UNL     1     -41.608 -50.728  12.437  1.00  0.00     0.298 C 
HETATM    3  O   UNL     1     -41.982 -50.021  13.363  1.00  0.00    -0.254 OA
HETATM    4  N   UNL     1     -41.082 -50.295  11.232  1.00  0.00    -0.207 NA
HETATM    5  H   UNL     1     -41.764 -52.534  11.556  1.00  0.00     0.163 HD
HETATM    6  H   UNL     1     -40.233 -50.819  11.065  1.00  0.00     0.138 HD
ENDROOT
BRANCH   4   7
HETATM    7  C   UNL     1     -40.938 -48.898  11.027  1.00  0.00     0.060 A 
HETATM    8  C   UNL     1     -42.048 -48.225  10.500  1.00  0.00     0.029 A 
HETATM    9  C   UNL     1     -42.000 -46.855  10.315  1.00  0.00     0.019 A 
HETATM   10  C   UNL     1     -40.843 -46.204  10.693  1.00  0.00     0.090 A 
HETATM   11  N   UNL     1     -39.774 -46.819  11.245  1.00  0.00    -0.351 N 
HETATM   12  C   UNL     1     -39.787 -48.168  11.411  1.00  0.00     0.125 A 
ATOM     13  HN  UNL     1     -38.962 -46.273  11.536  1.00  0.00     0.166 HD
BRANCH  12  14
HETATM   14  N   UNL     1     -38.697 -48.728  12.066  1.00  0.00    -0.366 N 
HETATM   15  C   UNL     1     -38.685 -48.930  13.510  1.00  0.00     0.124 C 
HETATM   16  C   UNL     1     -37.636 -50.010  13.757  1.00  0.00     0.021 C 
HETATM   17  C   UNL     1     -37.596 -50.789  12.458  1.00  0.00     0.021 C 
HETATM   18  C   UNL     1     -37.887 -49.741  11.389  1.00  0.00     0.124 C 
ENDBRANCH  12  14
ENDBRANCH   4   7
BRANCH   1  19
HETATM   19  C   UNL     1     -42.312 -52.763  13.590  1.00  0.00     0.161 C 
BRANCH  19  20
HETATM   20  C   UNL     1     -43.784 -53.159  13.325  1.00  0.00     0.074 C 
HETATM   21  C   UNL     1     -44.066 -54.526  13.976  1.00  0.00     0.039 C 
HETATM   22  C   UNL     1     -45.531 -54.945  13.861  1.00  0.00     0.003 C 
HETATM   23  C   UNL     1     -46.464 -53.873  14.411  1.00  0.00     0.000 C 
HETATM   24  C   UNL     1     -46.221 -52.527  13.739  1.00  0.00     0.003 C 
HETATM   25  C   UNL     1     -44.758 -52.094  13.862  1.00  0.00     0.039 C 
BRANCH  20  26
HETATM   26  O   UNL     1     -43.997 -53.270  11.910  1.00  0.00    -0.388 OA
HETATM   27  H   UNL     1     -44.764 -52.715  11.681  1.00  0.00     0.210 HD
ENDBRANCH  20  26
ENDBRANCH  19  20
ENDBRANCH   1  19
TORSDOF 5
ENDMDL
MODEL 6
REMARK VINA RESULT:      -6.7      2.746      5.243
REMARK  5 active torsions:
REMARK  status: ('A' for Active; 'I' for Inactive)
REMARK    1  A    between atoms: O_1  and  C_2 
REMARK    2  A    between atoms: C_2  and  C_3 
REMARK    3  A    between atoms: C_3  and  N_4 
REMARK       I    between atoms: N_4  and  C_5 
REMARK       I    between atoms: C_5  and  N_7 
REMARK    4  A    between atoms: N_7  and  C_8 
REMARK    5  A    between atoms: C_14  and  N_15 
ROOT
HETATM    1  N   UNL     1     -42.463 -52.632  13.871  1.00  0.00    -0.344 N 
HETATM    2  C   UNL     1     -41.525 -52.119  13.001  1.00  0.00     0.298 C 
HETATM    3  O   UNL     1     -41.489 -52.402  11.812  1.00  0.00    -0.254 OA
HETATM    4  N   UNL     1     -40.660 -51.272  13.672  1.00  0.00    -0.207 NA
HETATM    5  H   UNL     1     -42.149 -52.695  14.830  1.00  0.00     0.163 HD
HETATM    6  H   UNL     1     -41.222 -50.625  14.210  1.00  0.00     0.138 HD
ENDROOT
BRANCH   4   7
HETATM    7  C   UNL     1     -39.625 -50.644  12.929  1.00  0.00     0.060 A 
HETATM    8  C   UNL     1     -38.386 -51.298  12.907  1.00  0.00     0.029 A 
HETATM    9  C   UNL     1     -37.343 -50.772  12.167  1.00  0.00     0.019 A 
HETATM   10  C   UNL     1     -37.591 -49.618  11.451  1.00  0.00     0.090 A 
HETATM   11  N   UNL     1     -38.787 -48.991  11.416  1.00  0.00    -0.351 N 
HETATM   12  C   UNL     1     -39.819 -49.473  12.158  1.00  0.00     0.125 A 
ATOM     13  HN  UNL     1     -38.915 -48.161  10.837  1.00  0.00     0.166 HD
BRANCH  12  14
HETATM   14  N   UNL     1     -41.046 -48.838  12.009  1.00  0.00    -0.366 N 
HETATM   15  C   UNL     1     -41.511 -47.826  12.952  1.00  0.00     0.124 C 
HETATM   16  C   UNL     1     -42.556 -47.016  12.191  1.00  0.00     0.021 C 
HETATM   17  C   UNL     1     -42.162 -47.180  10.737  1.00  0.00     0.021 C 
HETATM   18  C   UNL     1     -41.573 -48.585  10.669  1.00  0.00     0.124 C 
ENDBRANCH  12  14
ENDBRANCH   4   7
BRANCH   1  19
HETATM   19  C   UNL     1     -43.390 -53.645  13.399  1.00  0.00     0.161 C 
BRANCH  19  20
HETATM   20  C   UNL     1     -44.877 -53.287  13.630  1.00  0.00     0.074 C 
HETATM   21  C   UNL     1     -45.176 -53.316  15.141  1.00  0.00     0.039 C 
HETATM   22  C   UNL     1     -46.597 -52.862  15.472  1.00  0.00     0.003 C 
HETATM   23  C   UNL     1     -46.899 -51.491  14.879  1.00  0.00     0.000 C 
HETATM   24  C   UNL     1     -46.649 -51.469  13.375  1.00  0.00     0.003 C 
HETATM   25  C   UNL     1     -45.223 -51.908  13.037  1.00  0.00     0.039 C 
BRANCH  20  26
HETATM   26  O   UNL     1     -45.706 -54.261  12.979  1.00  0.00    -0.388 OA
HETATM   27  H   UNL     1     -45.898 -54.965  13.622  1.00  0.00     0.210 HD
ENDBRANCH  20  26
ENDBRANCH  19  20
ENDBRANCH   1  19
TORSDOF 5
ENDMDL
MODEL 7
REMARK VINA RESULT:      -6.7      3.345      7.183
REMARK  5 active torsions:
REMARK  status: ('A' for Active; 'I' for Inactive)
REMARK    1  A    between atoms: O_1  and  C_2 
REMARK    2  A    between atoms: C_2  and  C_3 
REMARK    3  A    between atoms: C_3  and  N_4 
REMARK       I    between atoms: N_4  and  C_5 
REMARK       I    between atoms: C_5  and  N_7 
REMARK    4  A    between atoms: N_7  and  C_8 
REMARK    5  A    between atoms: C_14  and  N_15 
ROOT
HETATM    1  N   UNL     1     -41.677 -50.468  11.388  1.00  0.00    -0.344 N 
HETATM    2  C   UNL     1     -42.408 -51.144  12.340  1.00  0.00     0.298 C 
HETATM    3  O   UNL     1     -42.965 -50.588  13.276  1.00  0.00    -0.254 OA
HETATM    4  N   UNL     1     -42.399 -52.503  12.078  1.00  0.00    -0.207 NA
HETATM    5  H   UNL     1     -40.939 -51.015  10.965  1.00  0.00     0.163 HD
HETATM    6  H   UNL     1     -42.645 -52.628  11.104  1.00  0.00     0.138 HD
ENDROOT
BRANCH   4   7
HETATM    7  C   UNL     1     -43.110 -53.361  12.958  1.00  0.00     0.060 A 
HETATM    8  C   UNL     1     -44.407 -53.720  12.568  1.00  0.00     0.029 A 
HETATM    9  C   UNL     1     -45.146 -54.590  13.351  1.00  0.00     0.019 A 
HETATM   10  C   UNL     1     -44.541 -55.090  14.487  1.00  0.00     0.090 A 
HETATM   11  N   UNL     1     -43.277 -54.798  14.863  1.00  0.00    -0.351 N 
HETATM   12  C   UNL     1     -42.543 -53.924  14.126  1.00  0.00     0.125 A 
ATOM     13  HN  UNL     1     -42.877 -55.231  15.696  1.00  0.00     0.166 HD
BRANCH  12  14
HETATM   14  N   UNL     1     -41.221 -53.735  14.513  1.00  0.00    -0.366 N 
HETATM   15  C   UNL     1     -40.103 -54.146  13.672  1.00  0.00     0.124 C 
HETATM   16  C   UNL     1     -38.915 -53.314  14.145  1.00  0.00     0.021 C 
HETATM   17  C   UNL     1     -39.549 -52.072  14.740  1.00  0.00     0.021 C 
HETATM   18  C   UNL     1     -40.864 -52.573  15.326  1.00  0.00     0.124 C 
ENDBRANCH  12  14
ENDBRANCH   4   7
BRANCH   1  19
HETATM   19  C   UNL     1     -41.449 -49.042  11.547  1.00  0.00     0.161 C 
BRANCH  19  20
HETATM   20  C   UNL     1     -39.990 -48.680  11.910  1.00  0.00     0.074 C 
HETATM   21  C   UNL     1     -39.934 -48.215  13.377  1.00  0.00     0.039 C 
HETATM   22  C   UNL     1     -38.508 -47.944  13.858  1.00  0.00     0.003 C 
HETATM   23  C   UNL     1     -37.602 -49.148  13.628  1.00  0.00     0.000 C 
HETATM   24  C   UNL     1     -37.619 -49.585  12.168  1.00  0.00     0.003 C 
HETATM   25  C   UNL     1     -39.041 -49.872  11.684  1.00  0.00     0.039 C 
BRANCH  20  26
HETATM   26  O   UNL     1     -39.546 -47.605  11.069  1.00  0.00    -0.388 OA
HETATM   27  H   UNL     1     -38.738 -47.899  10.612  1.00  0.00     0.210 HD
ENDBRANCH  20  26
ENDBRANCH  19  20
ENDBRANCH   1  19
TORSDOF 5
ENDMDL
MODEL 8
REMARK VINA RESULT:      -6.6      1.958      6.952
REMARK  5 active torsions:
REMARK  status: ('A' for Active; 'I' for Inactive)
REMARK    1  A    between atoms: O_1  and  C_2 
REMARK    2  A    between atoms: C_2  and  C_3 
REMARK    3  A    between atoms: C_3  and  N_4 
REMARK       I    between atoms: N_4  and  C_5 
REMARK       I    between atoms: C_5  and  N_7 
REMARK    4  A    between atoms: N_7  and  C_8 
REMARK    5  A    between atoms: C_14  and  N_15 
ROOT
HETATM    1  N   UNL     1     -42.335 -48.572  10.793  1.00  0.00    -0.344 N 
HETATM    2  C   UNL     1     -42.318 -49.479  11.831  1.00  0.00     0.298 C 
HETATM    3  O   UNL     1     -42.868 -49.278  12.905  1.00  0.00    -0.254 OA
HETATM    4  N   UNL     1     -41.595 -50.604  11.475  1.00  0.00    -0.207 NA
HETATM    5  H   UNL     1     -41.534 -48.629  10.179  1.00  0.00     0.163 HD
HETATM    6  H   UNL     1     -41.935 -50.912  10.573  1.00  0.00     0.138 HD
ENDROOT
BRANCH   4   7
HETATM    7  C   UNL     1     -41.475 -51.653  12.425  1.00  0.00     0.060 A 
HETATM    8  C   UNL     1     -42.431 -52.674  12.353  1.00  0.00     0.029 A 
HETATM    9  C   UNL     1     -42.352 -53.754  13.215  1.00  0.00     0.019 A 
HETATM   10  C   UNL     1     -41.295 -53.780  14.103  1.00  0.00     0.090 A 
HETATM   11  N   UNL     1     -40.334 -52.834  14.165  1.00  0.00    -0.351 N 
HETATM   12  C   UNL     1     -40.406 -51.750  13.347  1.00  0.00     0.125 A 
ATOM     13  HN  UNL     1     -39.559 -52.931  14.821  1.00  0.00     0.166 HD
BRANCH  12  14
HETATM   14  N   UNL     1     -39.340 -50.859  13.395  1.00  0.00    -0.366 N 
HETATM   15  C   UNL     1     -38.417 -50.699  12.278  1.00  0.00     0.124 C 
HETATM   16  C   UNL     1     -37.781 -49.326  12.474  1.00  0.00     0.021 C 
HETATM   17  C   UNL     1     -38.812 -48.552  13.270  1.00  0.00     0.021 C 
HETATM   18  C   UNL     1     -39.473 -49.611  14.146  1.00  0.00     0.124 C 
ENDBRANCH  12  14
ENDBRANCH   4   7
BRANCH   1  19
HETATM   19  C   UNL     1     -42.931 -47.265  11.002  1.00  0.00     0.161 C 
BRANCH  19  20
HETATM   20  C   UNL     1     -42.017 -46.088  10.587  1.00  0.00     0.074 C 
HETATM   21  C   UNL     1     -42.391 -44.841  11.410  1.00  0.00     0.039 C 
HETATM   22  C   UNL     1     -41.461 -43.657  11.146  1.00  0.00     0.003 C 
HETATM   23  C   UNL     1     -39.999 -44.037  11.357  1.00  0.00     0.000 C 
HETATM   24  C   UNL     1     -39.611 -45.243  10.511  1.00  0.00     0.003 C 
HETATM   25  C   UNL     1     -40.529 -46.437  10.780  1.00  0.00     0.039 C 
BRANCH  20  26
HETATM   26  O   UNL     1     -42.219 -45.799   9.195  1.00  0.00    -0.388 OA
HETATM   27  H   UNL     1     -42.793 -45.016   9.135  1.00  0.00     0.210 HD
ENDBRANCH  20  26
ENDBRANCH  19  20
ENDBRANCH   1  19
TORSDOF 5
ENDMDL
MODEL 9
REMARK VINA RESULT:      -6.4      2.339      4.207
REMARK  5 active torsions:
REMARK  status: ('A' for Active; 'I' for Inactive)
REMARK    1  A    between atoms: O_1  and  C_2 
REMARK    2  A    between atoms: C_2  and  C_3 
REMARK    3  A    between atoms: C_3  and  N_4 
REMARK       I    between atoms: N_4  and  C_5 
REMARK       I    between atoms: C_5  and  N_7 
REMARK    4  A    between atoms: N_7  and  C_8 
REMARK    5  A    between atoms: C_14  and  N_15 
ROOT
HETATM    1  N   UNL     1     -41.466 -52.393  12.047  1.00  0.00    -0.344 N 
HETATM    2  C   UNL     1     -41.481 -51.020  12.157  1.00  0.00     0.298 C 
HETATM    3  O   UNL     1     -42.000 -50.428  13.094  1.00  0.00    -0.254 OA
HETATM    4  N   UNL     1     -40.845 -50.443  11.071  1.00  0.00    -0.207 NA
HETATM    5  H   UNL     1     -41.428 -52.733  11.095  1.00  0.00     0.163 HD
HETATM    6  H   UNL     1     -39.953 -50.906  10.958  1.00  0.00     0.138 HD
ENDROOT
BRANCH   4   7
HETATM    7  C   UNL     1     -40.760 -49.026  11.018  1.00  0.00     0.060 A 
HETATM    8  C   UNL     1     -41.858 -48.355  10.464  1.00  0.00     0.029 A 
HETATM    9  C   UNL     1     -41.869 -46.972  10.420  1.00  0.00     0.019 A 
HETATM   10  C   UNL     1     -40.784 -46.311  10.962  1.00  0.00     0.090 A 
HETATM   11  N   UNL     1     -39.734 -46.930  11.543  1.00  0.00    -0.351 N 
HETATM   12  C   UNL     1     -39.688 -48.288  11.573  1.00  0.00     0.125 A 
ATOM     13  HN  UNL     1     -38.980 -46.381  11.958  1.00  0.00     0.166 HD
BRANCH  12  14
HETATM   14  N   UNL     1     -38.628 -48.863  12.264  1.00  0.00    -0.366 N 
HETATM   15  C   UNL     1     -38.730 -49.225  13.673  1.00  0.00     0.124 C 
HETATM   16  C   UNL     1     -37.644 -50.272  13.900  1.00  0.00     0.021 C 
HETATM   17  C   UNL     1     -37.443 -50.897  12.535  1.00  0.00     0.021 C 
HETATM   18  C   UNL     1     -37.702 -49.752  11.562  1.00  0.00     0.124 C 
ENDBRANCH  12  14
ENDBRANCH   4   7
BRANCH   1  19
HETATM   19  C   UNL     1     -42.193 -53.192  13.018  1.00  0.00     0.161 C 
BRANCH  19  20
HETATM   20  C   UNL     1     -41.379 -53.522  14.290  1.00  0.00     0.074 C 
HETATM   21  C   UNL     1     -41.981 -54.767  14.968  1.00  0.00     0.039 C 
HETATM   22  C   UNL     1     -41.168 -55.235  16.175  1.00  0.00     0.003 C 
HETATM   23  C   UNL     1     -39.706 -55.462  15.811  1.00  0.00     0.000 C 
HETATM   24  C   UNL     1     -39.091 -54.218  15.180  1.00  0.00     0.003 C 
HETATM   25  C   UNL     1     -39.891 -53.751  13.962  1.00  0.00     0.039 C 
BRANCH  20  26
HETATM   26  O   UNL     1     -41.457 -52.417  15.203  1.00  0.00    -0.388 OA
HETATM   27  H   UNL     1     -42.269 -52.524  15.729  1.00  0.00     0.210 HD
ENDBRANCH  20  26
ENDBRANCH  19  20
ENDBRANCH   1  19
TORSDOF 5
ENDMDL
