MODEL 1
REMARK VINA RESULT:      -5.4      0.000      0.000
REMARK  3 active torsions:
REMARK  status: ('A' for Active; 'I' for Inactive)
REMARK    1  A    between atoms: C_2  and  C_3 
REMARK       I    between atoms: C_2  and  N_11 
REMARK    2  A    between atoms: C_3  and  N_4 
REMARK    3  A    between atoms: N_11  and  C_12 
ROOT
HETATM    1  O   UNL     1     -43.264 -55.744  15.500  1.00  0.00    -0.271 OA
HETATM    2  C   UNL     1     -43.547 -54.991  14.568  1.00  0.00     0.241 C 
HETATM    3  N   UNL     1     -42.632 -54.221  13.862  1.00  0.00    -0.306 N 
HETATM    4  H   UNL     1     -42.858 -54.010  12.893  1.00  0.00     0.171 HD
ENDROOT
BRANCH   2   5
HETATM    5  C   UNL     1     -44.954 -54.976  13.984  1.00  0.00     0.234 C 
BRANCH   5   6
HETATM    6  N   UNL     1     -45.648 -53.738  14.322  1.00  0.00    -0.316 N 
HETATM    7  C   UNL     1     -46.066 -53.514  15.623  1.00  0.00     0.095 A 
HETATM    8  C   UNL     1     -46.702 -52.383  15.958  1.00  0.00     0.017 A 
HETATM    9  C   UNL     1     -46.951 -51.374  14.959  1.00  0.00     0.007 A 
HETATM   10  C   UNL     1     -46.580 -51.570  13.686  1.00  0.00     0.074 A 
HETATM   11  C   UNL     1     -45.912 -52.838  13.295  1.00  0.00     0.247 A 
HETATM   12  O   UNL     1     -45.639 -53.059  12.116  1.00  0.00    -0.268 OA
ENDBRANCH   5   6
ENDBRANCH   2   5
BRANCH   3  13
HETATM   13  C   UNL     1     -41.372 -53.847  14.232  1.00  0.00     0.142 C 
HETATM   14  N   UNL     1     -40.746 -54.500  15.152  1.00  0.00    -0.370 N 
HETATM   15  C   UNL     1     -39.472 -53.798  15.432  1.00  0.00     0.132 C 
ATOM     16  HN  UNL     1     -41.071 -55.353  15.607  1.00  0.00     0.161 HD
HETATM   17  C   UNL     1     -38.987 -53.090  14.179  1.00  0.00     0.102 C 
HETATM   18  S   UNL     1     -40.534 -52.558  13.428  1.00  0.00    -0.092 SA
ENDBRANCH   3  13
TORSDOF 3
ENDMDL
MODEL 2
REMARK VINA RESULT:      -5.4      2.558      2.965
REMARK  3 active torsions:
REMARK  status: ('A' for Active; 'I' for Inactive)
REMARK    1  A    between atoms: C_2  and  C_3 
REMARK       I    between atoms: C_2  and  N_11 
REMARK    2  A    between atoms: C_3  and  N_4 
REMARK    3  A    between atoms: N_11  and  C_12 
ROOT
HETATM    1  O   UNL     1     -42.188 -53.588  13.678  1.00  0.00    -0.271 OA
HETATM    2  C   UNL     1     -42.817 -53.112  12.733  1.00  0.00     0.241 C 
HETATM    3  N   UNL     1     -42.312 -52.194  11.822  1.00  0.00    -0.306 N 
HETATM    4  H   UNL     1     -42.705 -52.210  10.885  1.00  0.00     0.171 HD
ENDROOT
BRANCH   2   5
HETATM    5  C   UNL     1     -44.199 -53.645  12.375  1.00  0.00     0.234 C 
BRANCH   5   6
HETATM    6  N   UNL     1     -45.200 -53.196  13.339  1.00  0.00    -0.316 N 
HETATM    7  C   UNL     1     -45.571 -51.863  13.378  1.00  0.00     0.095 A 
HETATM    8  C   UNL     1     -46.490 -51.428  14.251  1.00  0.00     0.017 A 
HETATM    9  C   UNL     1     -47.114 -52.356  15.161  1.00  0.00     0.007 A 
HETATM   10  C   UNL     1     -46.759 -53.648  15.165  1.00  0.00     0.074 A 
HETATM   11  C   UNL     1     -45.712 -54.133  14.230  1.00  0.00     0.247 A 
HETATM   12  O   UNL     1     -45.325 -55.300  14.280  1.00  0.00    -0.268 OA
ENDBRANCH   5   6
ENDBRANCH   2   5
BRANCH   3  13
HETATM   13  C   UNL     1     -41.225 -51.377  11.955  1.00  0.00     0.142 C 
HETATM   14  N   UNL     1     -40.054 -51.882  12.151  1.00  0.00    -0.370 N 
HETATM   15  C   UNL     1     -39.104 -50.770  12.386  1.00  0.00     0.132 C 
ATOM     16  HN  UNL     1     -39.823 -52.875  12.146  1.00  0.00     0.161 HD
HETATM   17  C   UNL     1     -39.564 -49.532  11.637  1.00  0.00     0.102 C 
HETATM   18  S   UNL     1     -41.355 -49.656  11.773  1.00  0.00    -0.092 SA
ENDBRANCH   3  13
TORSDOF 3
ENDMDL
MODEL 3
REMARK VINA RESULT:      -4.9      4.262      5.505
REMARK  3 active torsions:
REMARK  status: ('A' for Active; 'I' for Inactive)
REMARK    1  A    between atoms: C_2  and  C_3 
REMARK       I    between atoms: C_2  and  N_11 
REMARK    2  A    between atoms: C_3  and  N_4 
REMARK    3  A    between atoms: N_11  and  C_12 
ROOT
HETATM    1  O   UNL     1     -41.724 -50.710  13.466  1.00  0.00    -0.271 OA
HETATM    2  C   UNL     1     -41.443 -51.147  12.350  1.00  0.00     0.241 C 
HETATM    3  N   UNL     1     -41.038 -50.371  11.271  1.00  0.00    -0.306 N 
HETATM    4  H   UNL     1     -40.427 -50.813  10.589  1.00  0.00     0.171 HD
ENDROOT
BRANCH   2   5
HETATM    5  C   UNL     1     -41.349 -52.648  12.105  1.00  0.00     0.234 C 
BRANCH   5   6
HETATM    6  N   UNL     1     -42.391 -53.364  12.834  1.00  0.00    -0.316 N 
HETATM    7  C   UNL     1     -43.712 -53.258  12.433  1.00  0.00     0.095 A 
HETATM    8  C   UNL     1     -44.685 -53.909  13.084  1.00  0.00     0.017 A 
HETATM    9  C   UNL     1     -44.362 -54.742  14.216  1.00  0.00     0.007 A 
HETATM   10  C   UNL     1     -43.096 -54.846  14.644  1.00  0.00     0.074 A 
HETATM   11  C   UNL     1     -42.015 -54.096  13.955  1.00  0.00     0.247 A 
HETATM   12  O   UNL     1     -40.864 -54.124  14.389  1.00  0.00    -0.268 OA
ENDBRANCH   5   6
ENDBRANCH   2   5
BRANCH   3  13
HETATM   13  C   UNL     1     -41.203 -49.028  11.082  1.00  0.00     0.142 C 
HETATM   14  N   UNL     1     -42.236 -48.584  10.450  1.00  0.00    -0.370 N 
HETATM   15  C   UNL     1     -42.083 -47.120  10.285  1.00  0.00     0.132 C 
ATOM     16  HN  UNL     1     -43.022 -49.144  10.121  1.00  0.00     0.161 HD
HETATM   17  C   UNL     1     -41.277 -46.552  11.440  1.00  0.00     0.102 C 
HETATM   18  S   UNL     1     -40.097 -47.874  11.758  1.00  0.00    -0.092 SA
ENDBRANCH   3  13
TORSDOF 3
ENDMDL
MODEL 4
REMARK VINA RESULT:      -4.8      1.927      2.086
REMARK  3 active torsions:
REMARK  status: ('A' for Active; 'I' for Inactive)
REMARK    1  A    between atoms: C_2  and  C_3 
REMARK       I    between atoms: C_2  and  N_11 
REMARK    2  A    between atoms: C_3  and  N_4 
REMARK    3  A    between atoms: N_11  and  C_12 
ROOT
HETATM    1  O   UNL     1     -42.587 -53.895  13.706  1.00  0.00    -0.271 OA
HETATM    2  C   UNL     1     -43.260 -54.657  14.399  1.00  0.00     0.241 C 
HETATM    3  N   UNL     1     -42.824 -55.264  15.570  1.00  0.00    -0.306 N 
HETATM    4  H   UNL     1     -43.531 -55.482  16.268  1.00  0.00     0.171 HD
ENDROOT
BRANCH   2   5
HETATM    5  C   UNL     1     -44.741 -54.867  14.106  1.00  0.00     0.234 C 
BRANCH   5   6
HETATM    6  N   UNL     1     -45.507 -53.656  14.384  1.00  0.00    -0.316 N 
HETATM    7  C   UNL     1     -45.924 -53.385  15.676  1.00  0.00     0.095 A 
HETATM    8  C   UNL     1     -46.624 -52.278  15.957  1.00  0.00     0.017 A 
HETATM    9  C   UNL     1     -46.946 -51.344  14.906  1.00  0.00     0.007 A 
HETATM   10  C   UNL     1     -46.577 -51.589  13.642  1.00  0.00     0.074 A 
HETATM   11  C   UNL     1     -45.836 -52.834  13.313  1.00  0.00     0.247 A 
HETATM   12  O   UNL     1     -45.562 -53.105  12.144  1.00  0.00    -0.268 OA
ENDBRANCH   5   6
ENDBRANCH   2   5
BRANCH   3  13
HETATM   13  C   UNL     1     -41.541 -55.455  15.999  1.00  0.00     0.142 C 
HETATM   14  N   UNL     1     -40.573 -54.789  15.466  1.00  0.00    -0.370 N 
HETATM   15  C   UNL     1     -39.299 -55.293  16.032  1.00  0.00     0.132 C 
ATOM     16  HN  UNL     1     -40.668 -54.046  14.775  1.00  0.00     0.161 HD
HETATM   17  C   UNL     1     -39.527 -55.799  17.445  1.00  0.00     0.102 C 
HETATM   18  S   UNL     1     -41.175 -56.512  17.326  1.00  0.00    -0.092 SA
ENDBRANCH   3  13
TORSDOF 3
ENDMDL
MODEL 5
REMARK VINA RESULT:      -4.8      4.008      6.319
REMARK  3 active torsions:
REMARK  status: ('A' for Active; 'I' for Inactive)
REMARK    1  A    between atoms: C_2  and  C_3 
REMARK       I    between atoms: C_2  and  N_11 
REMARK    2  A    between atoms: C_3  and  N_4 
REMARK    3  A    between atoms: N_11  and  C_12 
ROOT
HETATM    1  O   UNL     1     -41.850 -52.108  13.895  1.00  0.00    -0.271 OA
HETATM    2  C   UNL     1     -42.026 -52.365  12.705  1.00  0.00     0.241 C 
HETATM    3  N   UNL     1     -43.231 -52.774  12.149  1.00  0.00    -0.306 N 
HETATM    4  H   UNL     1     -43.396 -52.531  11.175  1.00  0.00     0.171 HD
ENDROOT
BRANCH   2   5
HETATM    5  C   UNL     1     -40.936 -52.078  11.679  1.00  0.00     0.234 C 
BRANCH   5   6
HETATM    6  N   UNL     1     -40.403 -50.730  11.846  1.00  0.00    -0.316 N 
HETATM    7  C   UNL     1     -41.165 -49.635  11.476  1.00  0.00     0.095 A 
HETATM    8  C   UNL     1     -40.699 -48.388  11.623  1.00  0.00     0.017 A 
HETATM    9  C   UNL     1     -39.388 -48.171  12.183  1.00  0.00     0.007 A 
HETATM   10  C   UNL     1     -38.616 -49.209  12.529  1.00  0.00     0.074 A 
HETATM   11  C   UNL     1     -39.106 -50.597  12.331  1.00  0.00     0.247 A 
HETATM   12  O   UNL     1     -38.374 -51.557  12.573  1.00  0.00    -0.268 OA
ENDBRANCH   5   6
ENDBRANCH   2   5
BRANCH   3  13
HETATM   13  C   UNL     1     -44.317 -53.312  12.780  1.00  0.00     0.142 C 
HETATM   14  N   UNL     1     -44.197 -54.397  13.466  1.00  0.00    -0.370 N 
HETATM   15  C   UNL     1     -45.546 -54.810  13.919  1.00  0.00     0.132 C 
ATOM     16  HN  UNL     1     -43.324 -54.887  13.663  1.00  0.00     0.161 HD
HETATM   17  C   UNL     1     -46.426 -53.585  14.100  1.00  0.00     0.102 C 
HETATM   18  S   UNL     1     -45.861 -52.519  12.765  1.00  0.00    -0.092 SA
ENDBRANCH   3  13
TORSDOF 3
ENDMDL
MODEL 6
REMARK VINA RESULT:      -4.5      5.038      7.192
REMARK  3 active torsions:
REMARK  status: ('A' for Active; 'I' for Inactive)
REMARK    1  A    between atoms: C_2  and  C_3 
REMARK       I    between atoms: C_2  and  N_11 
REMARK    2  A    between atoms: C_3  and  N_4 
REMARK    3  A    between atoms: N_11  and  C_12 
ROOT
HETATM    1  O   UNL     1     -40.202 -48.907  13.364  1.00  0.00    -0.271 OA
HETATM    2  C   UNL     1     -39.972 -49.510  12.316  1.00  0.00     0.241 C 
HETATM    3  N   UNL     1     -40.324 -49.067  11.048  1.00  0.00    -0.306 N 
HETATM    4  H   UNL     1     -39.735 -49.365  10.275  1.00  0.00     0.171 HD
ENDROOT
BRANCH   2   5
HETATM    5  C   UNL     1     -39.097 -50.758  12.316  1.00  0.00     0.234 C 
BRANCH   5   6
HETATM    6  N   UNL     1     -39.784 -51.880  12.948  1.00  0.00    -0.316 N 
HETATM    7  C   UNL     1     -40.851 -52.485  12.307  1.00  0.00     0.095 A 
HETATM    8  C   UNL     1     -41.495 -53.519  12.866  1.00  0.00     0.017 A 
HETATM    9  C   UNL     1     -41.072 -54.022  14.149  1.00  0.00     0.007 A 
HETATM   10  C   UNL     1     -40.058 -53.443  14.806  1.00  0.00     0.074 A 
HETATM   11  C   UNL     1     -39.364 -52.270  14.215  1.00  0.00     0.247 A 
HETATM   12  O   UNL     1     -38.484 -51.684  14.846  1.00  0.00    -0.268 OA
ENDBRANCH   5   6
ENDBRANCH   2   5
BRANCH   3  13
HETATM   13  C   UNL     1     -41.260 -48.132  10.706  1.00  0.00     0.142 C 
HETATM   14  N   UNL     1     -42.444 -48.499  10.352  1.00  0.00    -0.370 N 
HETATM   15  C   UNL     1     -43.191 -47.295   9.917  1.00  0.00     0.132 C 
ATOM     16  HN  UNL     1     -42.805 -49.453  10.368  1.00  0.00     0.161 HD
HETATM   17  C   UNL     1     -42.687 -46.076  10.669  1.00  0.00     0.102 C 
HETATM   18  S   UNL     1     -40.930 -46.432  10.823  1.00  0.00    -0.092 SA
ENDBRANCH   3  13
TORSDOF 3
ENDMDL
MODEL 7
REMARK VINA RESULT:      -4.5     10.260     12.678
REMARK  3 active torsions:
REMARK  status: ('A' for Active; 'I' for Inactive)
REMARK    1  A    between atoms: C_2  and  C_3 
REMARK       I    between atoms: C_2  and  N_11 
REMARK    2  A    between atoms: C_3  and  N_4 
REMARK    3  A    between atoms: N_11  and  C_12 
ROOT
HETATM    1  O   UNL     1     -31.132 -55.399  19.024  1.00  0.00    -0.271 OA
HETATM    2  C   UNL     1     -31.227 -54.563  18.126  1.00  0.00     0.241 C 
HETATM    3  N   UNL     1     -30.350 -53.504  17.929  1.00  0.00    -0.306 N 
HETATM    4  H   UNL     1     -30.238 -53.169  16.976  1.00  0.00     0.171 HD
ENDROOT
BRANCH   2   5
HETATM    5  C   UNL     1     -32.256 -54.731  17.015  1.00  0.00     0.234 C 
BRANCH   5   6
HETATM    6  N   UNL     1     -33.586 -54.972  17.565  1.00  0.00    -0.316 N 
HETATM    7  C   UNL     1     -34.175 -54.025  18.385  1.00  0.00     0.095 A 
HETATM    8  C   UNL     1     -35.397 -54.222  18.899  1.00  0.00     0.017 A 
HETATM    9  C   UNL     1     -36.121 -55.430  18.591  1.00  0.00     0.007 A 
HETATM   10  C   UNL     1     -35.569 -56.376  17.820  1.00  0.00     0.074 A 
HETATM   11  C   UNL     1     -34.199 -56.187  17.279  1.00  0.00     0.247 A 
HETATM   12  O   UNL     1     -33.655 -57.083  16.635  1.00  0.00    -0.268 OA
ENDBRANCH   5   6
ENDBRANCH   2   5
BRANCH   3  13
HETATM   13  C   UNL     1     -29.472 -52.953  18.819  1.00  0.00     0.142 C 
HETATM   14  N   UNL     1     -28.215 -53.233  18.748  1.00  0.00    -0.370 N 
HETATM   15  C   UNL     1     -27.534 -52.605  19.904  1.00  0.00     0.132 C 
ATOM     16  HN  UNL     1     -27.767 -53.791  18.021  1.00  0.00     0.161 HD
HETATM   17  C   UNL     1     -28.273 -51.342  20.313  1.00  0.00     0.102 C 
HETATM   18  S   UNL     1     -29.987 -51.795  20.005  1.00  0.00    -0.092 SA
ENDBRANCH   3  13
TORSDOF 3
ENDMDL
MODEL 8
REMARK VINA RESULT:      -4.5      4.623      6.909
REMARK  3 active torsions:
REMARK  status: ('A' for Active; 'I' for Inactive)
REMARK    1  A    between atoms: C_2  and  C_3 
REMARK       I    between atoms: C_2  and  N_11 
REMARK    2  A    between atoms: C_3  and  N_4 
REMARK    3  A    between atoms: N_11  and  C_12 
ROOT
HETATM    1  O   UNL     1     -39.794 -52.115  12.508  1.00  0.00    -0.271 OA
HETATM    2  C   UNL     1     -40.418 -51.131  12.110  1.00  0.00     0.241 C 
HETATM    3  N   UNL     1     -41.767 -50.897  12.345  1.00  0.00    -0.306 N 
HETATM    4  H   UNL     1     -42.066 -49.926  12.385  1.00  0.00     0.171 HD
ENDROOT
BRANCH   2   5
HETATM    5  C   UNL     1     -39.691 -49.966  11.450  1.00  0.00     0.234 C 
BRANCH   5   6
HETATM    6  N   UNL     1     -39.224 -49.008  12.447  1.00  0.00    -0.316 N 
HETATM    7  C   UNL     1     -38.037 -49.238  13.123  1.00  0.00     0.095 A 
HETATM    8  C   UNL     1     -37.586 -48.371  14.039  1.00  0.00     0.017 A 
HETATM    9  C   UNL     1     -38.336 -47.173  14.327  1.00  0.00     0.007 A 
HETATM   10  C   UNL     1     -39.499 -46.933  13.708  1.00  0.00     0.074 A 
HETATM   11  C   UNL     1     -40.029 -47.908  12.721  1.00  0.00     0.247 A 
HETATM   12  O   UNL     1     -41.134 -47.734  12.206  1.00  0.00    -0.268 OA
ENDBRANCH   5   6
ENDBRANCH   2   5
BRANCH   3  13
HETATM   13  C   UNL     1     -42.733 -51.792  12.708  1.00  0.00     0.142 C 
HETATM   14  N   UNL     1     -42.976 -52.819  11.968  1.00  0.00    -0.370 N 
HETATM   15  C   UNL     1     -44.146 -53.531  12.535  1.00  0.00     0.132 C 
ATOM     16  HN  UNL     1     -42.454 -53.095  11.136  1.00  0.00     0.161 HD
HETATM   17  C   UNL     1     -44.194 -53.327  14.039  1.00  0.00     0.102 C 
HETATM   18  S   UNL     1     -43.595 -51.639  14.207  1.00  0.00    -0.092 SA
ENDBRANCH   3  13
TORSDOF 3
ENDMDL
MODEL 9
REMARK VINA RESULT:      -4.4      7.806      8.679
REMARK  3 active torsions:
REMARK  status: ('A' for Active; 'I' for Inactive)
REMARK    1  A    between atoms: C_2  and  C_3 
REMARK       I    between atoms: C_2  and  N_11 
REMARK    2  A    between atoms: C_3  and  N_4 
REMARK    3  A    between atoms: N_11  and  C_12 
ROOT
HETATM    1  O   UNL     1     -42.531 -47.207  10.589  1.00  0.00    -0.271 OA
HETATM    2  C   UNL     1     -41.377 -46.798  10.720  1.00  0.00     0.241 C 
HETATM    3  N   UNL     1     -40.276 -47.598  10.994  1.00  0.00    -0.306 N 
HETATM    4  H   UNL     1     -39.375 -47.278  10.649  1.00  0.00     0.171 HD
ENDROOT
BRANCH   2   5
HETATM    5  C   UNL     1     -41.028 -45.348  10.407  1.00  0.00     0.234 C 
BRANCH   5   6
HETATM    6  N   UNL     1     -41.522 -44.454  11.450  1.00  0.00    -0.316 N 
HETATM    7  C   UNL     1     -40.961 -44.493  12.716  1.00  0.00     0.095 A 
HETATM    8  C   UNL     1     -41.396 -43.680  13.688  1.00  0.00     0.017 A 
HETATM    9  C   UNL     1     -42.456 -42.740  13.420  1.00  0.00     0.007 A 
HETATM   10  C   UNL     1     -43.035 -42.694  12.213  1.00  0.00     0.074 A 
HETATM   11  C   UNL     1     -42.590 -43.620  11.140  1.00  0.00     0.247 A 
HETATM   12  O   UNL     1     -43.169 -43.637  10.054  1.00  0.00    -0.268 OA
ENDBRANCH   5   6
ENDBRANCH   2   5
BRANCH   3  13
HETATM   13  C   UNL     1     -40.254 -48.860  11.518  1.00  0.00     0.142 C 
HETATM   14  N   UNL     1     -40.984 -49.789  11.002  1.00  0.00    -0.370 N 
HETATM   15  C   UNL     1     -40.856 -51.001  11.846  1.00  0.00     0.132 C 
ATOM     16  HN  UNL     1     -41.552 -49.705  10.159  1.00  0.00     0.161 HD
HETATM   17  C   UNL     1     -39.486 -51.030  12.501  1.00  0.00     0.102 C 
HETATM   18  S   UNL     1     -39.186 -49.285  12.819  1.00  0.00    -0.092 SA
ENDBRANCH   3  13
TORSDOF 3
ENDMDL
