MODEL 1
REMARK VINA RESULT:      -6.4      0.000      0.000
REMARK  4 active torsions:
REMARK  status: ('A' for Active; 'I' for Inactive)
REMARK    1  A    between atoms: C_8  and  N_9 
REMARK       I    between atoms: N_9  and  C_10 
REMARK       I    between atoms: C_10  and  N_12 
REMARK    2  A    between atoms: N_12  and  C_13 
REMARK    3  A    between atoms: N_16  and  C_17 
REMARK    4  A    between atoms: C_17  and  C_18 
ROOT
HETATM    1  N   UNL     1     -44.754 -50.522  13.026  1.00  0.00    -0.295 N 
HETATM    2  C   UNL     1     -43.396 -50.305  13.016  1.00  0.00     0.322 C 
HETATM    3  O   UNL     1     -42.547 -50.853  13.704  1.00  0.00    -0.247 OA
HETATM    4  N   UNL     1     -43.055 -49.375  12.053  1.00  0.00    -0.338 N 
HETATM    5  H   UNL     1     -45.321 -49.997  12.384  1.00  0.00     0.172 HD
HETATM    6  H   UNL     1     -43.700 -48.603  11.982  1.00  0.00     0.164 HD
ENDROOT
BRANCH   4   7
HETATM    7  C   UNL     1     -41.641 -49.066  11.812  1.00  0.00     0.089 C 
HETATM    8  C   UNL     1     -41.113 -48.115  12.893  1.00  0.00     0.055 C 
HETATM    9  C   UNL     1     -41.671 -46.701  12.709  1.00  0.00     0.274 C 
HETATM   10  N   UNL     1     -41.409 -46.128  11.382  1.00  0.00     0.089 N 
HETATM   11  C   UNL     1     -41.960 -47.021  10.344  1.00  0.00     0.274 C 
HETATM   12  C   UNL     1     -41.412 -48.449  10.420  1.00  0.00     0.055 C 
BRANCH  10  13
HETATM   13  C   UNL     1     -39.991 -45.836  11.109  1.00  0.00     0.279 C 
BRANCH  13  14
HETATM   14  C   UNL     1     -39.563 -44.391  11.352  1.00  0.00     0.040 C 
HETATM   15  C   UNL     1     -39.181 -44.065  12.785  1.00  0.00     0.035 C 
HETATM   16  C   UNL     1     -39.742 -42.672  13.019  1.00  0.00     0.168 C 
HETATM   17  O   UNL     1     -40.352 -42.240  11.796  1.00  0.00    -0.391 OA
HETATM   18  C   UNL     1     -40.696 -43.421  11.071  1.00  0.00     0.173 C 
ENDBRANCH  13  14
ENDBRANCH  10  13
ENDBRANCH   4   7
BRANCH   1  19
HETATM   19  C   UNL     1     -45.376 -51.520  13.786  1.00  0.00     0.109 A 
HETATM   20  N   UNL     1     -45.157 -52.811  13.493  1.00  0.00    -0.346 N 
HETATM   21  C   UNL     1     -45.773 -53.771  14.209  1.00  0.00     0.007 A 
ATOM     22  HN  UNL     1     -44.527 -53.064  12.732  1.00  0.00     0.167 HD
HETATM   23  C   UNL     1     -46.628 -53.473  15.259  1.00  0.00     0.031 A 
HETATM   24  C   UNL     1     -45.479 -55.177  13.791  1.00  0.00     0.068 C 
HETATM   25  C   UNL     1     -46.855 -52.132  15.579  1.00  0.00    -0.057 A 
HETATM   26  C   UNL     1     -47.757 -51.757  16.717  1.00  0.00     0.048 C 
HETATM   27  C   UNL     1     -46.226 -51.140  14.818  1.00  0.00     0.055 A 
ENDBRANCH   1  19
TORSDOF 4
ENDMDL
MODEL 2
REMARK VINA RESULT:      -6.4      2.427      3.668
REMARK  4 active torsions:
REMARK  status: ('A' for Active; 'I' for Inactive)
REMARK    1  A    between atoms: C_8  and  N_9 
REMARK       I    between atoms: N_9  and  C_10 
REMARK       I    between atoms: C_10  and  N_12 
REMARK    2  A    between atoms: N_12  and  C_13 
REMARK    3  A    between atoms: N_16  and  C_17 
REMARK    4  A    between atoms: C_17  and  C_18 
ROOT
HETATM    1  N   UNL     1     -41.694 -50.501  11.670  1.00  0.00    -0.295 N 
HETATM    2  C   UNL     1     -42.505 -49.443  12.005  1.00  0.00     0.322 C 
HETATM    3  O   UNL     1     -43.476 -49.452  12.748  1.00  0.00    -0.247 OA
HETATM    4  N   UNL     1     -42.059 -48.277  11.413  1.00  0.00    -0.338 N 
HETATM    5  H   UNL     1     -40.921 -50.328  11.053  1.00  0.00     0.172 HD
HETATM    6  H   UNL     1     -41.733 -48.397  10.466  1.00  0.00     0.164 HD
ENDROOT
BRANCH   4   7
HETATM    7  C   UNL     1     -42.731 -47.008  11.714  1.00  0.00     0.089 C 
HETATM    8  C   UNL     1     -42.668 -46.072  10.501  1.00  0.00     0.055 C 
HETATM    9  C   UNL     1     -41.255 -45.518  10.300  1.00  0.00     0.274 C 
HETATM   10  N   UNL     1     -40.714 -44.828  11.479  1.00  0.00     0.089 N 
HETATM   11  C   UNL     1     -40.731 -45.746  12.635  1.00  0.00     0.274 C 
HETATM   12  C   UNL     1     -42.122 -46.307  12.942  1.00  0.00     0.055 C 
BRANCH  10  13
HETATM   13  C   UNL     1     -41.394 -43.565  11.815  1.00  0.00     0.279 C 
BRANCH  13  14
HETATM   14  C   UNL     1     -40.517 -42.317  11.760  1.00  0.00     0.040 C 
HETATM   15  C   UNL     1     -39.682 -42.062  13.002  1.00  0.00     0.035 C 
HETATM   16  C   UNL     1     -39.729 -40.555  13.188  1.00  0.00     0.168 C 
HETATM   17  O   UNL     1     -40.497 -40.010  12.107  1.00  0.00    -0.391 OA
HETATM   18  C   UNL     1     -41.352 -41.055  11.645  1.00  0.00     0.173 C 
ENDBRANCH  13  14
ENDBRANCH  10  13
ENDBRANCH   4   7
BRANCH   1  19
HETATM   19  C   UNL     1     -41.804 -51.775  12.240  1.00  0.00     0.109 A 
HETATM   20  N   UNL     1     -43.005 -52.368  12.312  1.00  0.00    -0.346 N 
HETATM   21  C   UNL     1     -43.116 -53.585  12.881  1.00  0.00     0.007 A 
ATOM     22  HN  UNL     1     -43.831 -51.901  11.937  1.00  0.00     0.167 HD
HETATM   23  C   UNL     1     -42.019 -54.262  13.392  1.00  0.00     0.031 A 
HETATM   24  C   UNL     1     -44.499 -54.151  12.930  1.00  0.00     0.068 C 
HETATM   25  C   UNL     1     -40.762 -53.657  13.313  1.00  0.00    -0.057 A 
HETATM   26  C   UNL     1     -39.541 -54.355  13.835  1.00  0.00     0.048 C 
HETATM   27  C   UNL     1     -40.659 -52.386  12.738  1.00  0.00     0.055 A 
ENDBRANCH   1  19
TORSDOF 4
ENDMDL
MODEL 3
REMARK VINA RESULT:      -6.3      1.878      2.379
REMARK  4 active torsions:
REMARK  status: ('A' for Active; 'I' for Inactive)
REMARK    1  A    between atoms: C_8  and  N_9 
REMARK       I    between atoms: N_9  and  C_10 
REMARK       I    between atoms: C_10  and  N_12 
REMARK    2  A    between atoms: N_12  and  C_13 
REMARK    3  A    between atoms: N_16  and  C_17 
REMARK    4  A    between atoms: C_17  and  C_18 
ROOT
HETATM    1  N   UNL     1     -43.169 -51.256  13.027  1.00  0.00    -0.295 N 
HETATM    2  C   UNL     1     -42.099 -50.772  12.312  1.00  0.00     0.322 C 
HETATM    3  O   UNL     1     -41.018 -51.313  12.129  1.00  0.00    -0.247 OA
HETATM    4  N   UNL     1     -42.401 -49.550  11.743  1.00  0.00    -0.338 N 
HETATM    5  H   UNL     1     -44.000 -50.694  13.073  1.00  0.00     0.172 HD
HETATM    6  H   UNL     1     -42.938 -48.941  12.342  1.00  0.00     0.164 HD
ENDROOT
BRANCH   4   7
HETATM    7  C   UNL     1     -41.427 -48.900  10.860  1.00  0.00     0.089 C 
HETATM    8  C   UNL     1     -40.285 -48.293  11.684  1.00  0.00     0.055 C 
HETATM    9  C   UNL     1     -40.749 -47.044  12.438  1.00  0.00     0.274 C 
HETATM   10  N   UNL     1     -41.333 -46.010  11.573  1.00  0.00     0.089 N 
HETATM   11  C   UNL     1     -42.463 -46.585  10.815  1.00  0.00     0.274 C 
HETATM   12  C   UNL     1     -42.073 -47.811   9.985  1.00  0.00     0.055 C 
BRANCH  10  13
HETATM   13  C   UNL     1     -40.376 -45.364  10.658  1.00  0.00     0.279 C 
BRANCH  13  14
HETATM   14  C   UNL     1     -39.898 -43.978  11.084  1.00  0.00     0.040 C 
HETATM   15  C   UNL     1     -39.315 -43.901  12.483  1.00  0.00     0.035 C 
HETATM   16  C   UNL     1     -39.818 -42.575  13.030  1.00  0.00     0.168 C 
HETATM   17  O   UNL     1     -40.587 -41.945  11.998  1.00  0.00    -0.391 OA
HETATM   18  C   UNL     1     -41.046 -42.987  11.136  1.00  0.00     0.173 C 
ENDBRANCH  13  14
ENDBRANCH  10  13
ENDBRANCH   4   7
BRANCH   1  19
HETATM   19  C   UNL     1     -43.215 -52.539  13.585  1.00  0.00     0.109 A 
HETATM   20  N   UNL     1     -42.148 -53.014  14.246  1.00  0.00    -0.346 N 
HETATM   21  C   UNL     1     -42.183 -54.257  14.764  1.00  0.00     0.007 A 
ATOM     22  HN  UNL     1     -41.314 -52.436  14.357  1.00  0.00     0.167 HD
HETATM   23  C   UNL     1     -43.298 -55.073  14.648  1.00  0.00     0.031 A 
HETATM   24  C   UNL     1     -40.937 -54.700  15.464  1.00  0.00     0.068 C 
HETATM   25  C   UNL     1     -44.418 -54.585  13.970  1.00  0.00    -0.057 A 
HETATM   26  C   UNL     1     -45.655 -55.420  13.832  1.00  0.00     0.048 C 
HETATM   27  C   UNL     1     -44.366 -53.299  13.419  1.00  0.00     0.055 A 
ENDBRANCH   1  19
TORSDOF 4
ENDMDL
MODEL 4
REMARK VINA RESULT:      -6.2      4.377      9.250
REMARK  4 active torsions:
REMARK  status: ('A' for Active; 'I' for Inactive)
REMARK    1  A    between atoms: C_8  and  N_9 
REMARK       I    between atoms: N_9  and  C_10 
REMARK       I    between atoms: C_10  and  N_12 
REMARK    2  A    between atoms: N_12  and  C_13 
REMARK    3  A    between atoms: N_16  and  C_17 
REMARK    4  A    between atoms: C_17  and  C_18 
ROOT
HETATM    1  N   UNL     1     -41.248 -49.686  11.348  1.00  0.00    -0.295 N 
HETATM    2  C   UNL     1     -41.915 -50.396  12.318  1.00  0.00     0.322 C 
HETATM    3  O   UNL     1     -42.897 -50.046  12.957  1.00  0.00    -0.247 OA
HETATM    4  N   UNL     1     -41.358 -51.650  12.479  1.00  0.00    -0.338 N 
HETATM    5  H   UNL     1     -40.460 -50.121  10.902  1.00  0.00     0.172 HD
HETATM    6  H   UNL     1     -40.350 -51.658  12.436  1.00  0.00     0.164 HD
ENDROOT
BRANCH   4   7
HETATM    7  C   UNL     1     -41.978 -52.606  13.402  1.00  0.00     0.089 C 
HETATM    8  C   UNL     1     -41.714 -52.191  14.855  1.00  0.00     0.055 C 
HETATM    9  C   UNL     1     -40.255 -52.439  15.246  1.00  0.00     0.274 C 
HETATM   10  N   UNL     1     -39.814 -53.827  15.045  1.00  0.00     0.089 N 
HETATM   11  C   UNL     1     -40.025 -54.209  13.634  1.00  0.00     0.274 C 
HETATM   12  C   UNL     1     -41.476 -54.043  13.173  1.00  0.00     0.055 C 
BRANCH  10  13
HETATM   13  C   UNL     1     -40.447 -54.807  15.944  1.00  0.00     0.279 C 
BRANCH  13  14
HETATM   14  C   UNL     1     -39.603 -56.038  16.265  1.00  0.00     0.040 C 
HETATM   15  C   UNL     1     -40.320 -57.123  17.047  1.00  0.00     0.035 C 
HETATM   16  C   UNL     1     -39.276 -57.639  18.024  1.00  0.00     0.168 C 
HETATM   17  O   UNL     1     -38.059 -56.924  17.775  1.00  0.00    -0.391 OA
HETATM   18  C   UNL     1     -38.430 -55.688  17.162  1.00  0.00     0.173 C 
ENDBRANCH  13  14
ENDBRANCH  10  13
ENDBRANCH   4   7
BRANCH   1  19
HETATM   19  C   UNL     1     -41.677 -48.447  10.858  1.00  0.00     0.109 A 
HETATM   20  N   UNL     1     -42.872 -48.349  10.256  1.00  0.00    -0.346 N 
HETATM   21  C   UNL     1     -43.276 -47.162   9.764  1.00  0.00     0.007 A 
ATOM     22  HN  UNL     1     -43.472 -49.169  10.172  1.00  0.00     0.167 HD
HETATM   23  C   UNL     1     -42.499 -46.018   9.867  1.00  0.00     0.031 A 
HETATM   24  C   UNL     1     -44.614 -47.162   9.095  1.00  0.00     0.068 C 
HETATM   25  C   UNL     1     -41.256 -46.107  10.500  1.00  0.00    -0.057 A 
HETATM   26  C   UNL     1     -40.385 -44.896  10.653  1.00  0.00     0.048 C 
HETATM   27  C   UNL     1     -40.836 -47.348  10.992  1.00  0.00     0.055 A 
ENDBRANCH   1  19
TORSDOF 4
ENDMDL
MODEL 5
REMARK VINA RESULT:      -6.2      4.260      9.259
REMARK  4 active torsions:
REMARK  status: ('A' for Active; 'I' for Inactive)
REMARK    1  A    between atoms: C_8  and  N_9 
REMARK       I    between atoms: N_9  and  C_10 
REMARK       I    between atoms: C_10  and  N_12 
REMARK    2  A    between atoms: N_12  and  C_13 
REMARK    3  A    between atoms: N_16  and  C_17 
REMARK    4  A    between atoms: C_17  and  C_18 
ROOT
HETATM    1  N   UNL     1     -42.273 -49.421  11.596  1.00  0.00    -0.295 N 
HETATM    2  C   UNL     1     -41.192 -50.270  11.602  1.00  0.00     0.322 C 
HETATM    3  O   UNL     1     -40.123 -50.122  11.026  1.00  0.00    -0.247 OA
HETATM    4  N   UNL     1     -41.428 -51.361  12.416  1.00  0.00    -0.338 N 
HETATM    5  H   UNL     1     -43.080 -49.680  12.136  1.00  0.00     0.172 HD
HETATM    6  H   UNL     1     -42.368 -51.724  12.351  1.00  0.00     0.164 HD
ENDROOT
BRANCH   4   7
HETATM    7  C   UNL     1     -40.364 -52.346  12.637  1.00  0.00     0.089 C 
HETATM    8  C   UNL     1     -40.944 -53.766  12.636  1.00  0.00     0.055 C 
HETATM    9  C   UNL     1     -41.748 -54.037  13.910  1.00  0.00     0.274 C 
HETATM   10  N   UNL     1     -40.988 -53.818  15.149  1.00  0.00     0.089 N 
HETATM   11  C   UNL     1     -40.470 -52.436  15.170  1.00  0.00     0.274 C 
HETATM   12  C   UNL     1     -39.606 -52.095  13.953  1.00  0.00     0.055 C 
BRANCH  10  13
HETATM   13  C   UNL     1     -39.895 -54.780  15.376  1.00  0.00     0.279 C 
BRANCH  13  14
HETATM   14  C   UNL     1     -39.852 -55.404  16.769  1.00  0.00     0.040 C 
HETATM   15  C   UNL     1     -38.670 -56.319  17.028  1.00  0.00     0.035 C 
HETATM   16  C   UNL     1     -39.246 -57.460  17.849  1.00  0.00     0.168 C 
HETATM   17  O   UNL     1     -40.635 -57.178  18.065  1.00  0.00    -0.391 OA
HETATM   18  C   UNL     1     -41.045 -56.310  17.009  1.00  0.00     0.173 C 
ENDBRANCH  13  14
ENDBRANCH  10  13
ENDBRANCH   4   7
BRANCH   1  19
HETATM   19  C   UNL     1     -42.269 -48.161  10.987  1.00  0.00     0.109 A 
HETATM   20  N   UNL     1     -41.176 -47.386  11.073  1.00  0.00    -0.346 N 
HETATM   21  C   UNL     1     -41.179 -46.163  10.507  1.00  0.00     0.007 A 
ATOM     22  HN  UNL     1     -40.347 -47.721  11.564  1.00  0.00     0.167 HD
HETATM   23  C   UNL     1     -42.279 -45.672   9.820  1.00  0.00     0.031 A 
HETATM   24  C   UNL     1     -39.922 -45.371  10.676  1.00  0.00     0.068 C 
HETATM   25  C   UNL     1     -43.418 -46.474   9.716  1.00  0.00    -0.057 A 
HETATM   26  C   UNL     1     -44.627 -45.997   8.969  1.00  0.00     0.048 C 
HETATM   27  C   UNL     1     -43.413 -47.735  10.323  1.00  0.00     0.055 A 
ENDBRANCH   1  19
TORSDOF 4
ENDMDL
MODEL 6
REMARK VINA RESULT:      -6.2      3.830      9.222
REMARK  4 active torsions:
REMARK  status: ('A' for Active; 'I' for Inactive)
REMARK    1  A    between atoms: C_8  and  N_9 
REMARK       I    between atoms: N_9  and  C_10 
REMARK       I    between atoms: C_10  and  N_12 
REMARK    2  A    between atoms: N_12  and  C_13 
REMARK    3  A    between atoms: N_16  and  C_17 
REMARK    4  A    between atoms: C_17  and  C_18 
ROOT
HETATM    1  N   UNL     1     -41.297 -49.383  11.026  1.00  0.00    -0.295 N 
HETATM    2  C   UNL     1     -40.727 -49.650  12.249  1.00  0.00     0.322 C 
HETATM    3  O   UNL     1     -40.326 -48.844  13.077  1.00  0.00    -0.247 OA
HETATM    4  N   UNL     1     -40.690 -51.010  12.487  1.00  0.00    -0.338 N 
HETATM    5  H   UNL     1     -41.590 -50.161  10.462  1.00  0.00     0.172 HD
HETATM    6  H   UNL     1     -40.451 -51.561  11.676  1.00  0.00     0.164 HD
ENDROOT
BRANCH   4   7
HETATM    7  C   UNL     1     -40.203 -51.507  13.778  1.00  0.00     0.089 C 
HETATM    8  C   UNL     1     -39.741 -52.964  13.647  1.00  0.00     0.055 C 
HETATM    9  C   UNL     1     -40.933 -53.912  13.494  1.00  0.00     0.274 C 
HETATM   10  N   UNL     1     -41.919 -53.806  14.578  1.00  0.00     0.089 N 
HETATM   11  C   UNL     1     -42.398 -52.412  14.672  1.00  0.00     0.274 C 
HETATM   12  C   UNL     1     -41.271 -51.398  14.882  1.00  0.00     0.055 C 
BRANCH  10  13
HETATM   13  C   UNL     1     -41.440 -54.274  15.890  1.00  0.00     0.279 C 
BRANCH  13  14
HETATM   14  C   UNL     1     -40.780 -55.652  15.891  1.00  0.00     0.040 C 
HETATM   15  C   UNL     1     -41.354 -56.638  16.892  1.00  0.00     0.035 C 
HETATM   16  C   UNL     1     -40.143 -57.387  17.422  1.00  0.00     0.168 C 
HETATM   17  O   UNL     1     -38.989 -56.884  16.737  1.00  0.00    -0.391 OA
HETATM   18  C   UNL     1     -39.319 -55.568  16.292  1.00  0.00     0.173 C 
ENDBRANCH  13  14
ENDBRANCH  10  13
ENDBRANCH   4   7
BRANCH   1  19
HETATM   19  C   UNL     1     -41.609 -48.094  10.579  1.00  0.00     0.109 A 
HETATM   20  N   UNL     1     -40.698 -47.115  10.687  1.00  0.00    -0.346 N 
HETATM   21  C   UNL     1     -41.007 -45.869  10.278  1.00  0.00     0.007 A 
ATOM     22  HN  UNL     1     -39.777 -47.313  11.077  1.00  0.00     0.167 HD
HETATM   23  C   UNL     1     -42.242 -45.557   9.731  1.00  0.00     0.031 A 
HETATM   24  C   UNL     1     -39.931 -44.845  10.460  1.00  0.00     0.068 C 
HETATM   25  C   UNL     1     -43.194 -46.572   9.604  1.00  0.00    -0.057 A 
HETATM   26  C   UNL     1     -44.539 -46.291   9.003  1.00  0.00     0.048 C 
HETATM   27  C   UNL     1     -42.873 -47.859  10.049  1.00  0.00     0.055 A 
ENDBRANCH   1  19
TORSDOF 4
ENDMDL
MODEL 7
REMARK VINA RESULT:      -6.1      3.379      9.382
REMARK  4 active torsions:
REMARK  status: ('A' for Active; 'I' for Inactive)
REMARK    1  A    between atoms: C_8  and  N_9 
REMARK       I    between atoms: N_9  and  C_10 
REMARK       I    between atoms: C_10  and  N_12 
REMARK    2  A    between atoms: N_12  and  C_13 
REMARK    3  A    between atoms: N_16  and  C_17 
REMARK    4  A    between atoms: C_17  and  C_18 
ROOT
HETATM    1  N   UNL     1     -41.272 -47.781  11.324  1.00  0.00    -0.295 N 
HETATM    2  C   UNL     1     -40.389 -48.812  11.545  1.00  0.00     0.322 C 
HETATM    3  O   UNL     1     -39.168 -48.762  11.545  1.00  0.00    -0.247 OA
HETATM    4  N   UNL     1     -41.064 -49.982  11.832  1.00  0.00    -0.338 N 
HETATM    5  H   UNL     1     -42.255 -47.981  11.372  1.00  0.00     0.172 HD
HETATM    6  H   UNL     1     -41.893 -50.124  11.275  1.00  0.00     0.164 HD
ENDROOT
BRANCH   4   7
HETATM    7  C   UNL     1     -40.308 -51.187  12.191  1.00  0.00     0.089 C 
HETATM    8  C   UNL     1     -41.116 -52.444  11.851  1.00  0.00     0.055 C 
HETATM    9  C   UNL     1     -42.284 -52.633  12.824  1.00  0.00     0.274 C 
HETATM   10  N   UNL     1     -41.879 -52.677  14.236  1.00  0.00     0.089 N 
HETATM   11  C   UNL     1     -41.141 -51.444  14.574  1.00  0.00     0.274 C 
HETATM   12  C   UNL     1     -39.920 -51.205  13.681  1.00  0.00     0.055 C 
BRANCH  10  13
HETATM   13  C   UNL     1     -41.093 -53.866  14.611  1.00  0.00     0.279 C 
BRANCH  13  14
HETATM   14  C   UNL     1     -41.554 -54.580  15.879  1.00  0.00     0.040 C 
HETATM   15  C   UNL     1     -40.517 -55.485  16.521  1.00  0.00     0.035 C 
HETATM   16  C   UNL     1     -41.309 -56.691  16.996  1.00  0.00     0.168 C 
HETATM   17  O   UNL     1     -42.687 -56.456  16.680  1.00  0.00    -0.391 OA
HETATM   18  C   UNL     1     -42.705 -55.527  15.595  1.00  0.00     0.173 C 
ENDBRANCH  13  14
ENDBRANCH  10  13
ENDBRANCH   4   7
BRANCH   1  19
HETATM   19  C   UNL     1     -40.883 -46.445  11.164  1.00  0.00     0.109 A 
HETATM   20  N   UNL     1     -40.005 -46.121  10.202  1.00  0.00    -0.346 N 
HETATM   21  C   UNL     1     -39.613 -44.840  10.062  1.00  0.00     0.007 A 
ATOM     22  HN  UNL     1     -39.637 -46.840   9.580  1.00  0.00     0.167 HD
HETATM   23  C   UNL     1     -40.097 -43.827  10.877  1.00  0.00     0.031 A 
HETATM   24  C   UNL     1     -38.618 -44.585   8.975  1.00  0.00     0.068 C 
HETATM   25  C   UNL     1     -41.018 -44.153  11.875  1.00  0.00    -0.057 A 
HETATM   26  C   UNL     1     -41.585 -43.093  12.771  1.00  0.00     0.048 C 
HETATM   27  C   UNL     1     -41.406 -45.489  12.026  1.00  0.00     0.055 A 
ENDBRANCH   1  19
TORSDOF 4
ENDMDL
MODEL 8
REMARK VINA RESULT:      -5.9      2.586      9.159
REMARK  4 active torsions:
REMARK  status: ('A' for Active; 'I' for Inactive)
REMARK    1  A    between atoms: C_8  and  N_9 
REMARK       I    between atoms: N_9  and  C_10 
REMARK       I    between atoms: C_10  and  N_12 
REMARK    2  A    between atoms: N_12  and  C_13 
REMARK    3  A    between atoms: N_16  and  C_17 
REMARK    4  A    between atoms: C_17  and  C_18 
ROOT
HETATM    1  N   UNL     1     -40.554 -47.656  12.545  1.00  0.00    -0.295 N 
HETATM    2  C   UNL     1     -41.027 -48.792  11.931  1.00  0.00     0.322 C 
HETATM    3  O   UNL     1     -41.561 -48.882  10.835  1.00  0.00    -0.247 OA
HETATM    4  N   UNL     1     -40.782 -49.908  12.708  1.00  0.00    -0.338 N 
HETATM    5  H   UNL     1     -40.125 -47.751  13.448  1.00  0.00     0.172 HD
HETATM    6  H   UNL     1     -40.924 -49.759  13.696  1.00  0.00     0.164 HD
ENDROOT
BRANCH   4   7
HETATM    7  C   UNL     1     -41.125 -51.239  12.196  1.00  0.00     0.089 C 
HETATM    8  C   UNL     1     -42.625 -51.506  12.369  1.00  0.00     0.055 C 
HETATM    9  C   UNL     1     -42.978 -51.751  13.839  1.00  0.00     0.274 C 
HETATM   10  N   UNL     1     -42.211 -52.839  14.460  1.00  0.00     0.089 N 
HETATM   11  C   UNL     1     -40.767 -52.557  14.334  1.00  0.00     0.274 C 
HETATM   12  C   UNL     1     -40.315 -52.352  12.885  1.00  0.00     0.055 C 
BRANCH  10  13
HETATM   13  C   UNL     1     -42.520 -54.182  13.939  1.00  0.00     0.279 C 
BRANCH  13  14
HETATM   14  C   UNL     1     -43.762 -54.843  14.533  1.00  0.00     0.040 C 
HETATM   15  C   UNL     1     -45.026 -54.696  13.707  1.00  0.00     0.035 C 
HETATM   16  C   UNL     1     -46.126 -54.479  14.733  1.00  0.00     0.168 C 
HETATM   17  O   UNL     1     -45.524 -54.542  16.032  1.00  0.00    -0.391 OA
HETATM   18  C   UNL     1     -44.145 -54.215  15.860  1.00  0.00     0.173 C 
ENDBRANCH  13  14
ENDBRANCH  10  13
ENDBRANCH   4   7
BRANCH   1  19
HETATM   19  C   UNL     1     -40.520 -46.398  11.932  1.00  0.00     0.109 A 
HETATM   20  N   UNL     1     -39.727 -46.200  10.868  1.00  0.00    -0.346 N 
HETATM   21  C   UNL     1     -39.677 -44.983  10.291  1.00  0.00     0.007 A 
ATOM     22  HN  UNL     1     -39.166 -46.966  10.497  1.00  0.00     0.167 HD
HETATM   23  C   UNL     1     -40.433 -43.916  10.754  1.00  0.00     0.031 A 
HETATM   24  C   UNL     1     -38.749 -44.859   9.125  1.00  0.00     0.068 C 
HETATM   25  C   UNL     1     -41.269 -44.115  11.855  1.00  0.00    -0.057 A 
HETATM   26  C   UNL     1     -42.119 -42.999  12.384  1.00  0.00     0.048 C 
HETATM   27  C   UNL     1     -41.301 -45.377  12.460  1.00  0.00     0.055 A 
ENDBRANCH   1  19
TORSDOF 4
ENDMDL
MODEL 9
REMARK VINA RESULT:      -5.8      4.820      5.780
REMARK  4 active torsions:
REMARK  status: ('A' for Active; 'I' for Inactive)
REMARK    1  A    between atoms: C_8  and  N_9 
REMARK       I    between atoms: N_9  and  C_10 
REMARK       I    between atoms: C_10  and  N_12 
REMARK    2  A    between atoms: N_12  and  C_13 
REMARK    3  A    between atoms: N_16  and  C_17 
REMARK    4  A    between atoms: C_17  and  C_18 
ROOT
HETATM    1  N   UNL     1     -39.100 -52.941  15.473  1.00  0.00    -0.295 N 
HETATM    2  C   UNL     1     -39.192 -52.750  14.114  1.00  0.00     0.322 C 
HETATM    3  O   UNL     1     -39.355 -53.599  13.250  1.00  0.00    -0.247 OA
HETATM    4  N   UNL     1     -39.124 -51.406  13.802  1.00  0.00    -0.338 N 
HETATM    5  H   UNL     1     -38.980 -52.133  16.057  1.00  0.00     0.172 HD
HETATM    6  H   UNL     1     -38.451 -50.892  14.350  1.00  0.00     0.164 HD
ENDROOT
BRANCH   4   7
HETATM    7  C   UNL     1     -39.296 -50.974  12.411  1.00  0.00     0.089 C 
HETATM    8  C   UNL     1     -38.520 -49.676  12.157  1.00  0.00     0.055 C 
HETATM    9  C   UNL     1     -39.202 -48.482  12.831  1.00  0.00     0.274 C 
HETATM   10  N   UNL     1     -40.606 -48.300  12.438  1.00  0.00     0.089 N 
HETATM   11  C   UNL     1     -41.361 -49.536  12.727  1.00  0.00     0.274 C 
HETATM   12  C   UNL     1     -40.777 -50.775  12.044  1.00  0.00     0.055 C 
BRANCH  10  13
HETATM   13  C   UNL     1     -40.801 -47.894  11.035  1.00  0.00     0.279 C 
BRANCH  13  14
HETATM   14  C   UNL     1     -42.090 -47.127  10.750  1.00  0.00     0.040 C 
HETATM   15  C   UNL     1     -42.908 -47.652   9.585  1.00  0.00     0.035 C 
HETATM   16  C   UNL     1     -43.432 -46.404   8.896  1.00  0.00     0.168 C 
HETATM   17  O   UNL     1     -42.975 -45.271   9.647  1.00  0.00    -0.391 OA
HETATM   18  C   UNL     1     -41.805 -45.692  10.348  1.00  0.00     0.173 C 
ENDBRANCH  13  14
ENDBRANCH  10  13
ENDBRANCH   4   7
BRANCH   1  19
HETATM   19  C   UNL     1     -39.292 -54.179  16.098  1.00  0.00     0.109 A 
HETATM   20  N   UNL     1     -40.500 -54.762  16.060  1.00  0.00    -0.346 N 
HETATM   21  C   UNL     1     -40.691 -55.942  16.681  1.00  0.00     0.007 A 
ATOM     22  HN  UNL     1     -41.270 -54.314  15.563  1.00  0.00     0.167 HD
HETATM   23  C   UNL     1     -39.671 -56.592  17.358  1.00  0.00     0.031 A 
HETATM   24  C   UNL     1     -42.077 -56.499  16.597  1.00  0.00     0.068 C 
HETATM   25  C   UNL     1     -38.407 -55.999  17.396  1.00  0.00    -0.057 A 
HETATM   26  C   UNL     1     -37.265 -56.669  18.099  1.00  0.00     0.048 C 
HETATM   27  C   UNL     1     -38.221 -54.764  16.764  1.00  0.00     0.055 A 
ENDBRANCH   1  19
TORSDOF 4
ENDMDL
