MODEL 1
REMARK VINA RESULT:      -5.3      0.000      0.000
REMARK  4 active torsions:
REMARK  status: ('A' for Active; 'I' for Inactive)
REMARK    1  A    between atoms: N_7  and  C_8 
REMARK    2  A    between atoms: C_8  and  C_9 
REMARK    3  A    between atoms: C_9  and  N_10 
REMARK    4  A    between atoms: N_10  and  C_11 
ROOT
HETATM    1  N   UNL     1     -43.470 -51.919  13.950  1.00  0.00     0.090 N 
HETATM    2  H   UNL     1     -43.960 -51.265  14.562  1.00  0.00     0.316 HD
ENDROOT
BRANCH   1   3
HETATM    3  C   UNL     1     -42.784 -51.163  12.883  1.00  0.00     0.290 C 
BRANCH   3   4
HETATM    4  C   UNL     1     -41.673 -51.953  12.159  1.00  0.00     0.162 C 
BRANCH   4   5
HETATM    5  N   UNL     1     -40.334 -51.502  12.554  1.00  0.00    -0.310 N 
HETATM    6  C   UNL     1     -39.542 -52.099  13.528  1.00  0.00     0.018 A 
HETATM    7  C   UNL     1     -39.996 -53.274  14.318  1.00  0.00     0.069 C 
HETATM    8  C   UNL     1     -38.345 -51.505  13.671  1.00  0.00     0.080 A 
HETATM    9  S   UNL     1     -38.135 -50.175  12.581  1.00  0.00    -0.039 SA
HETATM   10  C   UNL     1     -39.743 -50.434  11.887  1.00  0.00     0.290 A 
HETATM   11  O   UNL     1     -40.199 -49.771  10.969  1.00  0.00    -0.260 OA
ENDBRANCH   4   5
ENDBRANCH   3   4
ENDBRANCH   1   3
BRANCH   1  12
HETATM   12  C   UNL     1     -44.437 -52.919  13.420  1.00  0.00     0.228 C 
HETATM   13  C   UNL     1     -45.749 -52.252  12.937  1.00  0.00     0.036 C 
HETATM   14  C   UNL     1     -46.561 -51.657  14.087  1.00  0.00     0.002 C 
HETATM   15  C   UNL     1     -46.881 -52.694  15.157  1.00  0.00     0.001 C 
HETATM   16  C   UNL     1     -45.639 -53.452  15.630  1.00  0.00     0.011 C 
HETATM   17  C   UNL     1     -44.796 -54.043  14.471  1.00  0.00    -0.017 C 
HETATM   18  C   UNL     1     -45.591 -55.183  13.780  1.00  0.00     0.017 C 
HETATM   19  C   UNL     1     -43.536 -54.705  15.068  1.00  0.00     0.017 C 
ENDBRANCH   1  12
TORSDOF 4
ENDMDL
MODEL 2
REMARK VINA RESULT:      -5.1      1.594      2.597
REMARK  4 active torsions:
REMARK  status: ('A' for Active; 'I' for Inactive)
REMARK    1  A    between atoms: N_7  and  C_8 
REMARK    2  A    between atoms: C_8  and  C_9 
REMARK    3  A    between atoms: C_9  and  N_10 
REMARK    4  A    between atoms: N_10  and  C_11 
ROOT
HETATM    1  N   UNL     1     -43.623 -51.537  12.713  1.00  0.00     0.090 N 
HETATM    2  H   UNL     1     -43.235 -52.477  12.792  1.00  0.00     0.316 HD
ENDROOT
BRANCH   1   3
HETATM    3  C   UNL     1     -42.517 -50.566  12.587  1.00  0.00     0.290 C 
BRANCH   3   4
HETATM    4  C   UNL     1     -41.175 -51.187  12.144  1.00  0.00     0.162 C 
BRANCH   4   5
HETATM    5  N   UNL     1     -40.422 -51.731  13.280  1.00  0.00    -0.310 N 
HETATM    6  C   UNL     1     -40.356 -53.075  13.627  1.00  0.00     0.018 A 
HETATM    7  C   UNL     1     -41.089 -54.131  12.879  1.00  0.00     0.069 C 
HETATM    8  C   UNL     1     -39.571 -53.307  14.693  1.00  0.00     0.080 A 
HETATM    9  S   UNL     1     -38.856 -51.856  15.312  1.00  0.00    -0.039 SA
HETATM   10  C   UNL     1     -39.650 -50.881  14.065  1.00  0.00     0.290 A 
HETATM   11  O   UNL     1     -39.496 -49.676  13.948  1.00  0.00    -0.260 OA
ENDBRANCH   4   5
ENDBRANCH   3   4
ENDBRANCH   1   3
BRANCH   1  12
HETATM   12  C   UNL     1     -44.501 -51.264  13.884  1.00  0.00     0.228 C 
HETATM   13  C   UNL     1     -43.841 -51.706  15.214  1.00  0.00     0.036 C 
HETATM   14  C   UNL     1     -43.694 -53.223  15.319  1.00  0.00     0.002 C 
HETATM   15  C   UNL     1     -45.029 -53.939  15.150  1.00  0.00     0.001 C 
HETATM   16  C   UNL     1     -45.779 -53.495  13.893  1.00  0.00     0.011 C 
HETATM   17  C   UNL     1     -45.916 -51.957  13.764  1.00  0.00    -0.017 C 
HETATM   18  C   UNL     1     -46.863 -51.426  14.875  1.00  0.00     0.017 C 
HETATM   19  C   UNL     1     -46.610 -51.635  12.425  1.00  0.00     0.017 C 
ENDBRANCH   1  12
TORSDOF 4
ENDMDL
MODEL 3
REMARK VINA RESULT:      -5.1      1.215      1.995
REMARK  4 active torsions:
REMARK  status: ('A' for Active; 'I' for Inactive)
REMARK    1  A    between atoms: N_7  and  C_8 
REMARK    2  A    between atoms: C_8  and  C_9 
REMARK    3  A    between atoms: C_9  and  N_10 
REMARK    4  A    between atoms: N_10  and  C_11 
ROOT
HETATM    1  N   UNL     1     -43.370 -51.730  14.375  1.00  0.00     0.090 N 
HETATM    2  H   UNL     1     -43.890 -51.234  15.099  1.00  0.00     0.316 HD
ENDROOT
BRANCH   1   3
HETATM    3  C   UNL     1     -42.734 -50.746  13.475  1.00  0.00     0.290 C 
BRANCH   3   4
HETATM    4  C   UNL     1     -41.956 -51.372  12.299  1.00  0.00     0.162 C 
BRANCH   4   5
HETATM    5  N   UNL     1     -40.597 -50.830  12.191  1.00  0.00    -0.310 N 
HETATM    6  C   UNL     1     -40.261 -49.621  11.593  1.00  0.00     0.018 A 
HETATM    7  C   UNL     1     -41.272 -48.739  10.953  1.00  0.00     0.069 C 
HETATM    8  C   UNL     1     -38.947 -49.347  11.659  1.00  0.00     0.080 A 
HETATM    9  S   UNL     1     -38.058 -50.580  12.489  1.00  0.00    -0.039 SA
HETATM   10  C   UNL     1     -39.534 -51.515  12.772  1.00  0.00     0.290 A 
HETATM   11  O   UNL     1     -39.562 -52.566  13.392  1.00  0.00    -0.260 OA
ENDBRANCH   4   5
ENDBRANCH   3   4
ENDBRANCH   1   3
BRANCH   1  12
HETATM   12  C   UNL     1     -44.285 -52.661  13.659  1.00  0.00     0.228 C 
HETATM   13  C   UNL     1     -45.551 -51.937  13.136  1.00  0.00     0.036 C 
HETATM   14  C   UNL     1     -46.462 -51.460  14.266  1.00  0.00     0.002 C 
HETATM   15  C   UNL     1     -46.873 -52.602  15.188  1.00  0.00     0.001 C 
HETATM   16  C   UNL     1     -45.677 -53.416  15.685  1.00  0.00     0.011 C 
HETATM   17  C   UNL     1     -44.733 -53.887  14.550  1.00  0.00    -0.017 C 
HETATM   18  C   UNL     1     -45.463 -54.942  13.674  1.00  0.00     0.017 C 
HETATM   19  C   UNL     1     -43.530 -54.618  15.182  1.00  0.00     0.017 C 
ENDBRANCH   1  12
TORSDOF 4
ENDMDL
MODEL 4
REMARK VINA RESULT:      -5.0      1.510      2.550
REMARK  4 active torsions:
REMARK  status: ('A' for Active; 'I' for Inactive)
REMARK    1  A    between atoms: N_7  and  C_8 
REMARK    2  A    between atoms: C_8  and  C_9 
REMARK    3  A    between atoms: C_9  and  N_10 
REMARK    4  A    between atoms: N_10  and  C_11 
ROOT
HETATM    1  N   UNL     1     -43.405 -52.911  14.889  1.00  0.00     0.090 N 
HETATM    2  H   UNL     1     -43.245 -52.331  14.065  1.00  0.00     0.316 HD
ENDROOT
BRANCH   1   3
HETATM    3  C   UNL     1     -42.637 -54.166  14.753  1.00  0.00     0.290 C 
BRANCH   3   4
HETATM    4  C   UNL     1     -41.755 -54.237  13.489  1.00  0.00     0.162 C 
BRANCH   4   5
HETATM    5  N   UNL     1     -40.748 -53.170  13.463  1.00  0.00    -0.310 N 
HETATM    6  C   UNL     1     -39.482 -53.250  14.029  1.00  0.00     0.018 A 
HETATM    7  C   UNL     1     -39.012 -54.450  14.770  1.00  0.00     0.069 C 
HETATM    8  C   UNL     1     -38.746 -52.142  13.835  1.00  0.00     0.080 A 
HETATM    9  S   UNL     1     -39.593 -50.942  12.916  1.00  0.00    -0.039 SA
HETATM   10  C   UNL     1     -41.014 -51.989  12.778  1.00  0.00     0.290 A 
HETATM   11  O   UNL     1     -42.022 -51.684  12.160  1.00  0.00    -0.260 OA
ENDBRANCH   4   5
ENDBRANCH   3   4
ENDBRANCH   1   3
BRANCH   1  12
HETATM   12  C   UNL     1     -44.866 -53.142  15.056  1.00  0.00     0.228 C 
HETATM   13  C   UNL     1     -45.435 -54.060  13.945  1.00  0.00     0.036 C 
HETATM   14  C   UNL     1     -45.410 -53.398  12.569  1.00  0.00     0.002 C 
HETATM   15  C   UNL     1     -46.155 -52.068  12.561  1.00  0.00     0.001 C 
HETATM   16  C   UNL     1     -45.700 -51.134  13.684  1.00  0.00     0.011 C 
HETATM   17  C   UNL     1     -45.700 -51.800  15.083  1.00  0.00    -0.017 C 
HETATM   18  C   UNL     1     -47.162 -52.092  15.517  1.00  0.00     0.017 C 
HETATM   19  C   UNL     1     -45.146 -50.790  16.109  1.00  0.00     0.017 C 
ENDBRANCH   1  12
TORSDOF 4
ENDMDL
MODEL 5
REMARK VINA RESULT:      -5.0      1.643      3.002
REMARK  4 active torsions:
REMARK  status: ('A' for Active; 'I' for Inactive)
REMARK    1  A    between atoms: N_7  and  C_8 
REMARK    2  A    between atoms: C_8  and  C_9 
REMARK    3  A    between atoms: C_9  and  N_10 
REMARK    4  A    between atoms: N_10  and  C_11 
ROOT
HETATM    1  N   UNL     1     -43.273 -51.494  12.618  1.00  0.00     0.090 N 
HETATM    2  H   UNL     1     -42.741 -52.329  12.370  1.00  0.00     0.316 HD
ENDROOT
BRANCH   1   3
HETATM    3  C   UNL     1     -42.361 -50.332  12.656  1.00  0.00     0.290 C 
BRANCH   3   4
HETATM    4  C   UNL     1     -41.193 -50.409  11.651  1.00  0.00     0.162 C 
BRANCH   4   5
HETATM    5  N   UNL     1     -39.895 -50.203  12.303  1.00  0.00    -0.310 N 
HETATM    6  C   UNL     1     -39.239 -48.983  12.415  1.00  0.00     0.018 A 
HETATM    7  C   UNL     1     -39.786 -47.726  11.841  1.00  0.00     0.069 C 
HETATM    8  C   UNL     1     -38.078 -49.068  13.087  1.00  0.00     0.080 A 
HETATM    9  S   UNL     1     -37.750 -50.679  13.633  1.00  0.00    -0.039 SA
HETATM   10  C   UNL     1     -39.260 -51.273  12.925  1.00  0.00     0.290 A 
HETATM   11  O   UNL     1     -39.641 -52.430  13.013  1.00  0.00    -0.260 OA
ENDBRANCH   4   5
ENDBRANCH   3   4
ENDBRANCH   1   3
BRANCH   1  12
HETATM   12  C   UNL     1     -43.975 -51.721  13.911  1.00  0.00     0.228 C 
HETATM   13  C   UNL     1     -43.162 -52.644  14.854  1.00  0.00     0.036 C 
HETATM   14  C   UNL     1     -43.065 -54.076  14.331  1.00  0.00     0.002 C 
HETATM   15  C   UNL     1     -44.439 -54.687  14.080  1.00  0.00     0.001 C 
HETATM   16  C   UNL     1     -45.331 -53.793  13.216  1.00  0.00     0.011 C 
HETATM   17  C   UNL     1     -45.421 -52.332  13.725  1.00  0.00    -0.017 C 
HETATM   18  C   UNL     1     -46.189 -52.299  15.074  1.00  0.00     0.017 C 
HETATM   19  C   UNL     1     -46.274 -51.517  12.731  1.00  0.00     0.017 C 
ENDBRANCH   1  12
TORSDOF 4
ENDMDL
MODEL 6
REMARK VINA RESULT:      -4.9      1.774      2.033
REMARK  4 active torsions:
REMARK  status: ('A' for Active; 'I' for Inactive)
REMARK    1  A    between atoms: N_7  and  C_8 
REMARK    2  A    between atoms: C_8  and  C_9 
REMARK    3  A    between atoms: C_9  and  N_10 
REMARK    4  A    between atoms: N_10  and  C_11 
ROOT
HETATM    1  N   UNL     1     -43.598 -51.534  14.066  1.00  0.00     0.090 N 
HETATM    2  H   UNL     1     -44.136 -50.793  14.517  1.00  0.00     0.316 HD
ENDROOT
BRANCH   1   3
HETATM    3  C   UNL     1     -42.724 -50.940  13.035  1.00  0.00     0.290 C 
BRANCH   3   4
HETATM    4  C   UNL     1     -41.271 -50.699  13.497  1.00  0.00     0.162 C 
BRANCH   4   5
HETATM    5  N   UNL     1     -40.675 -51.905  14.082  1.00  0.00    -0.310 N 
HETATM    6  C   UNL     1     -40.471 -52.120  15.440  1.00  0.00     0.018 A 
HETATM    7  C   UNL     1     -40.817 -51.105  16.471  1.00  0.00     0.069 C 
HETATM    8  C   UNL     1     -39.937 -53.323  15.710  1.00  0.00     0.080 A 
HETATM    9  S   UNL     1     -39.676 -54.263  14.278  1.00  0.00    -0.039 SA
HETATM   10  C   UNL     1     -40.327 -52.970  13.259  1.00  0.00     0.290 A 
HETATM   11  O   UNL     1     -40.445 -53.058  12.047  1.00  0.00    -0.260 OA
ENDBRANCH   4   5
ENDBRANCH   3   4
ENDBRANCH   1   3
BRANCH   1  12
HETATM   12  C   UNL     1     -44.531 -52.556  13.515  1.00  0.00     0.228 C 
HETATM   13  C   UNL     1     -45.889 -51.934  13.105  1.00  0.00     0.036 C 
HETATM   14  C   UNL     1     -46.693 -51.438  14.306  1.00  0.00     0.002 C 
HETATM   15  C   UNL     1     -46.926 -52.542  15.332  1.00  0.00     0.001 C 
HETATM   16  C   UNL     1     -45.634 -53.257  15.729  1.00  0.00     0.011 C 
HETATM   17  C   UNL     1     -44.799 -53.746  14.519  1.00  0.00    -0.017 C 
HETATM   18  C   UNL     1     -45.558 -54.891  13.795  1.00  0.00     0.017 C 
HETATM   19  C   UNL     1     -43.490 -54.371  15.045  1.00  0.00     0.017 C 
ENDBRANCH   1  12
TORSDOF 4
ENDMDL
MODEL 7
REMARK VINA RESULT:      -4.9      2.946      6.404
REMARK  4 active torsions:
REMARK  status: ('A' for Active; 'I' for Inactive)
REMARK    1  A    between atoms: N_7  and  C_8 
REMARK    2  A    between atoms: C_8  and  C_9 
REMARK    3  A    between atoms: C_9  and  N_10 
REMARK    4  A    between atoms: N_10  and  C_11 
ROOT
HETATM    1  N   UNL     1     -40.494 -51.825  11.898  1.00  0.00     0.090 N 
HETATM    2  H   UNL     1     -40.351 -51.299  11.035  1.00  0.00     0.316 HD
ENDROOT
BRANCH   1   3
HETATM    3  C   UNL     1     -41.877 -52.341  11.928  1.00  0.00     0.290 C 
BRANCH   3   4
HETATM    4  C   UNL     1     -42.388 -52.705  13.338  1.00  0.00     0.162 C 
BRANCH   4   5
HETATM    5  N   UNL     1     -43.820 -52.424  13.492  1.00  0.00    -0.310 N 
HETATM    6  C   UNL     1     -44.354 -51.273  14.058  1.00  0.00     0.018 A 
HETATM    7  C   UNL     1     -43.504 -50.186  14.614  1.00  0.00     0.069 C 
HETATM    8  C   UNL     1     -45.698 -51.253  14.047  1.00  0.00     0.080 A 
HETATM    9  S   UNL     1     -46.370 -52.670  13.310  1.00  0.00    -0.039 SA
HETATM   10  C   UNL     1     -44.756 -53.323  12.991  1.00  0.00     0.290 A 
HETATM   11  O   UNL     1     -44.555 -54.379  12.412  1.00  0.00    -0.260 OA
ENDBRANCH   4   5
ENDBRANCH   3   4
ENDBRANCH   1   3
BRANCH   1  12
HETATM   12  C   UNL     1     -40.175 -50.957  13.065  1.00  0.00     0.228 C 
HETATM   13  C   UNL     1     -40.065 -49.465  12.660  1.00  0.00     0.036 C 
HETATM   14  C   UNL     1     -38.858 -49.188  11.765  1.00  0.00     0.002 C 
HETATM   15  C   UNL     1     -37.553 -49.638  12.412  1.00  0.00     0.001 C 
HETATM   16  C   UNL     1     -37.611 -51.084  12.909  1.00  0.00     0.011 C 
HETATM   17  C   UNL     1     -38.843 -51.382  13.801  1.00  0.00    -0.017 C 
HETATM   18  C   UNL     1     -38.709 -50.614  15.144  1.00  0.00     0.017 C 
HETATM   19  C   UNL     1     -38.833 -52.881  14.167  1.00  0.00     0.017 C 
ENDBRANCH   1  12
TORSDOF 4
ENDMDL
MODEL 8
REMARK VINA RESULT:      -4.8      3.870      4.535
REMARK  4 active torsions:
REMARK  status: ('A' for Active; 'I' for Inactive)
REMARK    1  A    between atoms: N_7  and  C_8 
REMARK    2  A    between atoms: C_8  and  C_9 
REMARK    3  A    between atoms: C_9  and  N_10 
REMARK    4  A    between atoms: N_10  and  C_11 
ROOT
HETATM    1  N   UNL     1     -43.855 -52.955  15.651  1.00  0.00     0.090 N 
HETATM    2  H   UNL     1     -43.993 -52.683  16.625  1.00  0.00     0.316 HD
ENDROOT
BRANCH   1   3
HETATM    3  C   UNL     1     -42.408 -53.077  15.383  1.00  0.00     0.290 C 
BRANCH   3   4
HETATM    4  C   UNL     1     -41.982 -54.443  14.805  1.00  0.00     0.162 C 
BRANCH   4   5
HETATM    5  N   UNL     1     -41.214 -55.232  15.774  1.00  0.00    -0.310 N 
HETATM    6  C   UNL     1     -39.828 -55.332  15.807  1.00  0.00     0.018 A 
HETATM    7  C   UNL     1     -38.953 -54.652  14.815  1.00  0.00     0.069 C 
HETATM    8  C   UNL     1     -39.377 -56.095  16.818  1.00  0.00     0.080 A 
HETATM    9  S   UNL     1     -40.665 -56.719  17.795  1.00  0.00    -0.039 SA
HETATM   10  C   UNL     1     -41.877 -55.903  16.796  1.00  0.00     0.290 A 
HETATM   11  O   UNL     1     -43.077 -55.941  17.020  1.00  0.00    -0.260 OA
ENDBRANCH   4   5
ENDBRANCH   3   4
ENDBRANCH   1   3
BRANCH   1  12
HETATM   12  C   UNL     1     -44.528 -51.969  14.761  1.00  0.00     0.228 C 
HETATM   13  C   UNL     1     -44.947 -50.691  15.530  1.00  0.00     0.036 C 
HETATM   14  C   UNL     1     -46.058 -50.957  16.546  1.00  0.00     0.002 C 
HETATM   15  C   UNL     1     -47.285 -51.589  15.898  1.00  0.00     0.001 C 
HETATM   16  C   UNL     1     -46.938 -52.816  15.054  1.00  0.00     0.011 C 
HETATM   17  C   UNL     1     -45.798 -52.565  14.034  1.00  0.00    -0.017 C 
HETATM   18  C   UNL     1     -46.292 -51.584  12.937  1.00  0.00     0.017 C 
HETATM   19  C   UNL     1     -45.486 -53.891  13.309  1.00  0.00     0.017 C 
ENDBRANCH   1  12
TORSDOF 4
ENDMDL
MODEL 9
REMARK VINA RESULT:      -4.7      1.504      1.752
REMARK  4 active torsions:
REMARK  status: ('A' for Active; 'I' for Inactive)
REMARK    1  A    between atoms: N_7  and  C_8 
REMARK    2  A    between atoms: C_8  and  C_9 
REMARK    3  A    between atoms: C_9  and  N_10 
REMARK    4  A    between atoms: N_10  and  C_11 
ROOT
HETATM    1  N   UNL     1     -43.405 -51.738  13.956  1.00  0.00     0.090 N 
HETATM    2  H   UNL     1     -43.753 -51.339  14.829  1.00  0.00     0.316 HD
ENDROOT
BRANCH   1   3
HETATM    3  C   UNL     1     -43.112 -50.645  13.007  1.00  0.00     0.290 C 
BRANCH   3   4
HETATM    4  C   UNL     1     -41.779 -50.807  12.245  1.00  0.00     0.162 C 
BRANCH   4   5
HETATM    5  N   UNL     1     -40.937 -49.611  12.354  1.00  0.00    -0.310 N 
HETATM    6  C   UNL     1     -39.932 -49.421  13.295  1.00  0.00     0.018 A 
HETATM    7  C   UNL     1     -39.616 -50.429  14.341  1.00  0.00     0.069 C 
HETATM    8  C   UNL     1     -39.291 -48.248  13.154  1.00  0.00     0.080 A 
HETATM    9  S   UNL     1     -39.900 -47.321  11.822  1.00  0.00    -0.039 SA
HETATM   10  C   UNL     1     -41.078 -48.583  11.426  1.00  0.00     0.290 A 
HETATM   11  O   UNL     1     -41.846 -48.519  10.480  1.00  0.00    -0.260 OA
ENDBRANCH   4   5
ENDBRANCH   3   4
ENDBRANCH   1   3
BRANCH   1  12
HETATM   12  C   UNL     1     -44.398 -52.713  13.427  1.00  0.00     0.228 C 
HETATM   13  C   UNL     1     -45.722 -52.021  13.017  1.00  0.00     0.036 C 
HETATM   14  C   UNL     1     -46.487 -51.463  14.216  1.00  0.00     0.002 C 
HETATM   15  C   UNL     1     -46.774 -52.537  15.260  1.00  0.00     0.001 C 
HETATM   16  C   UNL     1     -45.522 -53.319  15.659  1.00  0.00     0.011 C 
HETATM   17  C   UNL     1     -44.725 -53.872  14.449  1.00  0.00    -0.017 C 
HETATM   18  C   UNL     1     -45.553 -54.982  13.748  1.00  0.00     0.017 C 
HETATM   19  C   UNL     1     -43.449 -54.563  14.975  1.00  0.00     0.017 C 
ENDBRANCH   1  12
TORSDOF 4
ENDMDL
