MODEL 1
REMARK VINA RESULT:      -6.9      0.000      0.000
REMARK  4 active torsions:
REMARK  status: ('A' for Active; 'I' for Inactive)
REMARK    1  A    between atoms: C_2  and  N_3 
REMARK    2  A    between atoms: C_2  and  C_19 
REMARK       I    between atoms: N_3  and  C_4 
REMARK       I    between atoms: C_4  and  N_6 
REMARK    3  A    between atoms: N_6  and  C_7 
REMARK    4  A    between atoms: C_11  and  C_15 
ROOT
HETATM    1  N   UNL     1     -42.590 -52.337  12.193  1.00  0.00    -0.338 N 
HETATM    2  C   UNL     1     -42.124 -51.070  12.395  1.00  0.00     0.321 C 
HETATM    3  O   UNL     1     -42.341 -50.459  13.434  1.00  0.00    -0.247 OA
HETATM    4  N   UNL     1     -41.455 -50.569  11.302  1.00  0.00    -0.306 N 
HETATM    5  H   UNL     1     -42.286 -52.850  11.379  1.00  0.00     0.164 HD
HETATM    6  H   UNL     1     -41.266 -51.203  10.541  1.00  0.00     0.171 HD
ENDROOT
BRANCH   4   7
HETATM    7  C   UNL     1     -41.047 -49.228  11.152  1.00  0.00     0.067 A 
HETATM    8  C   UNL     1     -39.876 -48.699  11.650  1.00  0.00     0.120 A 
HETATM    9  N   UNL     1     -39.544 -47.396  11.569  1.00  0.00    -0.353 N 
HETATM   10  C   UNL     1     -40.418 -46.574  10.968  1.00  0.00     0.088 A 
ATOM     11  HN  UNL     1     -38.665 -47.048  11.950  1.00  0.00     0.166 HD
HETATM   12  N   UNL     1     -41.574 -46.990  10.407  1.00  0.00    -0.353 N 
HETATM   13  C   UNL     1     -41.857 -48.308  10.514  1.00  0.00     0.120 A 
ATOM     14  HN  UNL     1     -42.200 -46.343   9.927  1.00  0.00     0.166 HD
BRANCH  10  15
HETATM   15  C   UNL     1     -40.100 -45.082  10.978  1.00  0.00     0.007 C 
HETATM   16  C   UNL     1     -39.305 -44.694  12.244  1.00  0.00     0.022 C 
HETATM   17  C   UNL     1     -39.261 -44.727   9.743  1.00  0.00     0.022 C 
HETATM   18  C   UNL     1     -41.416 -44.287  10.973  1.00  0.00     0.022 C 
ENDBRANCH  10  15
ENDBRANCH   4   7
BRANCH   1  19
HETATM   19  C   UNL     1     -43.341 -53.055  13.226  1.00  0.00     0.086 C 
HETATM   20  C   UNL     1     -42.429 -54.174  13.739  1.00  0.00     0.032 C 
BRANCH  19  21
HETATM   21  C   UNL     1     -44.711 -53.588  12.695  1.00  0.00     0.012 C 
HETATM   22  C   UNL     1     -45.795 -52.502  12.508  1.00  0.00     0.033 C 
HETATM   23  C   UNL     1     -46.393 -52.032  13.833  1.00  0.00     0.168 C 
HETATM   24  O   UNL     1     -46.915 -53.140  14.568  1.00  0.00    -0.391 OA
HETATM   25  C   UNL     1     -45.908 -54.097  14.881  1.00  0.00     0.168 C 
HETATM   26  C   UNL     1     -45.320 -54.681  13.599  1.00  0.00     0.033 C 
ENDBRANCH  19  21
ENDBRANCH   1  19
TORSDOF 4
ENDMDL
MODEL 2
REMARK VINA RESULT:      -6.2      1.544      2.117
REMARK  4 active torsions:
REMARK  status: ('A' for Active; 'I' for Inactive)
REMARK    1  A    between atoms: C_2  and  N_3 
REMARK    2  A    between atoms: C_2  and  C_19 
REMARK       I    between atoms: N_3  and  C_4 
REMARK       I    between atoms: C_4  and  N_6 
REMARK    3  A    between atoms: N_6  and  C_7 
REMARK    4  A    between atoms: C_11  and  C_15 
ROOT
HETATM    1  N   UNL     1     -44.627 -50.930  12.653  1.00  0.00    -0.338 N 
HETATM    2  C   UNL     1     -43.501 -50.157  12.649  1.00  0.00     0.321 C 
HETATM    3  O   UNL     1     -42.545 -50.405  13.373  1.00  0.00    -0.247 OA
HETATM    4  N   UNL     1     -43.599 -49.079  11.801  1.00  0.00    -0.306 N 
HETATM    5  H   UNL     1     -45.338 -50.768  11.956  1.00  0.00     0.164 HD
HETATM    6  H   UNL     1     -44.403 -49.037  11.193  1.00  0.00     0.171 HD
ENDROOT
BRANCH   4   7
HETATM    7  C   UNL     1     -42.680 -48.011  11.744  1.00  0.00     0.067 A 
HETATM    8  C   UNL     1     -42.660 -46.941  12.612  1.00  0.00     0.120 A 
HETATM    9  N   UNL     1     -41.828 -45.888  12.489  1.00  0.00    -0.353 N 
HETATM   10  C   UNL     1     -40.975 -45.894  11.453  1.00  0.00     0.088 A 
ATOM     11  HN  UNL     1     -41.846 -45.118  13.157  1.00  0.00     0.166 HD
HETATM   12  N   UNL     1     -40.879 -46.909  10.567  1.00  0.00    -0.353 N 
HETATM   13  C   UNL     1     -41.736 -47.942  10.737  1.00  0.00     0.120 A 
ATOM     14  HN  UNL     1     -40.197 -46.896   9.809  1.00  0.00     0.166 HD
BRANCH  10  15
HETATM   15  C   UNL     1     -40.115 -44.652  11.245  1.00  0.00     0.007 C 
HETATM   16  C   UNL     1     -40.990 -43.383  11.141  1.00  0.00     0.022 C 
HETATM   17  C   UNL     1     -39.152 -44.489  12.429  1.00  0.00     0.022 C 
HETATM   18  C   UNL     1     -39.324 -44.801   9.934  1.00  0.00     0.022 C 
ENDBRANCH  10  15
ENDBRANCH   4   7
BRANCH   1  19
HETATM   19  C   UNL     1     -44.739 -52.124  13.495  1.00  0.00     0.086 C 
HETATM   20  C   UNL     1     -44.119 -53.281  12.706  1.00  0.00     0.032 C 
BRANCH  19  21
HETATM   21  C   UNL     1     -46.215 -52.406  13.924  1.00  0.00     0.012 C 
HETATM   22  C   UNL     1     -46.824 -51.344  14.869  1.00  0.00     0.033 C 
HETATM   23  C   UNL     1     -46.297 -51.455  16.298  1.00  0.00     0.168 C 
HETATM   24  O   UNL     1     -46.516 -52.768  16.813  1.00  0.00    -0.391 OA
HETATM   25  C   UNL     1     -45.848 -53.764  16.043  1.00  0.00     0.168 C 
HETATM   26  C   UNL     1     -46.387 -53.775  14.615  1.00  0.00     0.033 C 
ENDBRANCH  19  21
ENDBRANCH   1  19
TORSDOF 4
ENDMDL
MODEL 3
REMARK VINA RESULT:      -5.9      2.951      7.822
REMARK  4 active torsions:
REMARK  status: ('A' for Active; 'I' for Inactive)
REMARK    1  A    between atoms: C_2  and  N_3 
REMARK    2  A    between atoms: C_2  and  C_19 
REMARK       I    between atoms: N_3  and  C_4 
REMARK       I    between atoms: C_4  and  N_6 
REMARK    3  A    between atoms: N_6  and  C_7 
REMARK    4  A    between atoms: C_11  and  C_15 
ROOT
HETATM    1  N   UNL     1     -41.554 -47.992  10.133  1.00  0.00    -0.338 N 
HETATM    2  C   UNL     1     -41.664 -48.960  11.090  1.00  0.00     0.321 C 
HETATM    3  O   UNL     1     -42.437 -48.851  12.034  1.00  0.00    -0.247 OA
HETATM    4  N   UNL     1     -40.791 -50.004  10.893  1.00  0.00    -0.306 N 
HETATM    5  H   UNL     1     -41.002 -48.174   9.309  1.00  0.00     0.164 HD
HETATM    6  H   UNL     1     -40.270 -50.019  10.029  1.00  0.00     0.171 HD
ENDROOT
BRANCH   4   7
HETATM    7  C   UNL     1     -40.543 -51.035  11.822  1.00  0.00     0.067 A 
HETATM    8  C   UNL     1     -41.265 -52.205  11.914  1.00  0.00     0.120 A 
HETATM    9  N   UNL     1     -41.066 -53.139  12.864  1.00  0.00    -0.353 N 
HETATM   10  C   UNL     1     -40.107 -52.901  13.772  1.00  0.00     0.088 A 
ATOM     11  HN  UNL     1     -41.623 -53.993  12.893  1.00  0.00     0.166 HD
HETATM   12  N   UNL     1     -39.312 -51.810  13.752  1.00  0.00    -0.353 N 
HETATM   13  C   UNL     1     -39.551 -50.904  12.776  1.00  0.00     0.120 A 
ATOM     14  HN  UNL     1     -38.569 -51.676  14.439  1.00  0.00     0.166 HD
BRANCH  10  15
HETATM   15  C   UNL     1     -39.959 -53.899  14.915  1.00  0.00     0.007 C 
HETATM   16  C   UNL     1     -41.319 -54.537  15.274  1.00  0.00     0.022 C 
HETATM   17  C   UNL     1     -38.987 -55.014  14.502  1.00  0.00     0.022 C 
HETATM   18  C   UNL     1     -39.428 -53.166  16.158  1.00  0.00     0.022 C 
ENDBRANCH  10  15
ENDBRANCH   4   7
BRANCH   1  19
HETATM   19  C   UNL     1     -42.385 -46.785  10.160  1.00  0.00     0.086 C 
HETATM   20  C   UNL     1     -43.254 -46.818   8.899  1.00  0.00     0.032 C 
BRANCH  19  21
HETATM   21  C   UNL     1     -41.527 -45.483  10.269  1.00  0.00     0.012 C 
HETATM   22  C   UNL     1     -40.126 -45.685  10.891  1.00  0.00     0.033 C 
HETATM   23  C   UNL     1     -40.176 -45.883  12.404  1.00  0.00     0.168 C 
HETATM   24  O   UNL     1     -40.848 -44.790  13.031  1.00  0.00    -0.391 OA
HETATM   25  C   UNL     1     -42.195 -44.662  12.582  1.00  0.00     0.168 C 
HETATM   26  C   UNL     1     -42.225 -44.373  11.084  1.00  0.00     0.033 C 
ENDBRANCH  19  21
ENDBRANCH   1  19
TORSDOF 4
ENDMDL
MODEL 4
REMARK VINA RESULT:      -5.8      1.616      2.061
REMARK  4 active torsions:
REMARK  status: ('A' for Active; 'I' for Inactive)
REMARK    1  A    between atoms: C_2  and  N_3 
REMARK    2  A    between atoms: C_2  and  C_19 
REMARK       I    between atoms: N_3  and  C_4 
REMARK       I    between atoms: C_4  and  N_6 
REMARK    3  A    between atoms: N_6  and  C_7 
REMARK    4  A    between atoms: C_11  and  C_15 
ROOT
HETATM    1  N   UNL     1     -42.234 -51.435  12.010  1.00  0.00    -0.338 N 
HETATM    2  C   UNL     1     -41.990 -50.122  12.292  1.00  0.00     0.321 C 
HETATM    3  O   UNL     1     -41.659 -49.752  13.412  1.00  0.00    -0.247 OA
HETATM    4  N   UNL     1     -42.207 -49.298  11.213  1.00  0.00    -0.306 N 
HETATM    5  H   UNL     1     -42.381 -51.715  11.052  1.00  0.00     0.164 HD
HETATM    6  H   UNL     1     -42.390 -49.734  10.323  1.00  0.00     0.171 HD
ENDROOT
BRANCH   4   7
HETATM    7  C   UNL     1     -42.230 -47.889  11.267  1.00  0.00     0.067 A 
HETATM    8  C   UNL     1     -41.369 -47.059  10.582  1.00  0.00     0.120 A 
HETATM    9  N   UNL     1     -41.352 -45.719  10.713  1.00  0.00    -0.353 N 
HETATM   10  C   UNL     1     -42.230 -45.172  11.567  1.00  0.00     0.088 A 
ATOM     11  HN  UNL     1     -40.699 -45.142  10.183  1.00  0.00     0.166 HD
HETATM   12  N   UNL     1     -43.147 -45.884  12.257  1.00  0.00    -0.353 N 
HETATM   13  C   UNL     1     -43.122 -47.226  12.088  1.00  0.00     0.120 A 
ATOM     14  HN  UNL     1     -43.823 -45.433  12.875  1.00  0.00     0.166 HD
BRANCH  10  15
HETATM   15  C   UNL     1     -42.136 -43.668  11.805  1.00  0.00     0.007 C 
HETATM   16  C   UNL     1     -42.479 -43.316  13.269  1.00  0.00     0.022 C 
HETATM   17  C   UNL     1     -40.708 -43.189  11.505  1.00  0.00     0.022 C 
HETATM   18  C   UNL     1     -43.140 -42.949  10.888  1.00  0.00     0.022 C 
ENDBRANCH  10  15
ENDBRANCH   4   7
BRANCH   1  19
HETATM   19  C   UNL     1     -42.075 -52.483  13.023  1.00  0.00     0.086 C 
HETATM   20  C   UNL     1     -40.694 -53.108  12.799  1.00  0.00     0.032 C 
BRANCH  19  21
HETATM   21  C   UNL     1     -43.230 -53.534  12.969  1.00  0.00     0.012 C 
HETATM   22  C   UNL     1     -44.577 -52.983  12.445  1.00  0.00     0.033 C 
HETATM   23  C   UNL     1     -45.299 -52.116  13.474  1.00  0.00     0.168 C 
HETATM   24  O   UNL     1     -45.492 -52.836  14.691  1.00  0.00    -0.391 OA
HETATM   25  C   UNL     1     -44.257 -53.238  15.277  1.00  0.00     0.168 C 
HETATM   26  C   UNL     1     -43.513 -54.185  14.339  1.00  0.00     0.033 C 
ENDBRANCH  19  21
ENDBRANCH   1  19
TORSDOF 4
ENDMDL
MODEL 5
REMARK VINA RESULT:      -5.7      1.426      1.958
REMARK  4 active torsions:
REMARK  status: ('A' for Active; 'I' for Inactive)
REMARK    1  A    between atoms: C_2  and  N_3 
REMARK    2  A    between atoms: C_2  and  C_19 
REMARK       I    between atoms: N_3  and  C_4 
REMARK       I    between atoms: C_4  and  N_6 
REMARK    3  A    between atoms: N_6  and  C_7 
REMARK    4  A    between atoms: C_11  and  C_15 
ROOT
HETATM    1  N   UNL     1     -40.603 -52.806  13.487  1.00  0.00    -0.338 N 
HETATM    2  C   UNL     1     -40.657 -51.442  13.488  1.00  0.00     0.321 C 
HETATM    3  O   UNL     1     -41.330 -50.822  14.301  1.00  0.00    -0.247 OA
HETATM    4  N   UNL     1     -39.930 -50.881  12.464  1.00  0.00    -0.306 N 
HETATM    5  H   UNL     1     -39.943 -53.274  12.884  1.00  0.00     0.164 HD
HETATM    6  H   UNL     1     -39.346 -51.495  11.916  1.00  0.00     0.171 HD
ENDROOT
BRANCH   4   7
HETATM    7  C   UNL     1     -39.967 -49.519  12.101  1.00  0.00     0.067 A 
HETATM    8  C   UNL     1     -39.361 -48.499  12.802  1.00  0.00     0.120 A 
HETATM    9  N   UNL     1     -39.480 -47.195  12.486  1.00  0.00    -0.353 N 
HETATM   10  C   UNL     1     -40.239 -46.884  11.424  1.00  0.00     0.088 A 
ATOM     11  HN  UNL     1     -39.011 -46.472  13.032  1.00  0.00     0.166 HD
HETATM   12  N   UNL     1     -40.843 -47.804  10.640  1.00  0.00    -0.353 N 
HETATM   13  C   UNL     1     -40.690 -49.099  11.001  1.00  0.00     0.120 A 
ATOM     14  HN  UNL     1     -41.386 -47.535   9.820  1.00  0.00     0.166 HD
BRANCH  10  15
HETATM   15  C   UNL     1     -40.469 -45.405  11.134  1.00  0.00     0.007 C 
HETATM   16  C   UNL     1     -39.543 -44.912  10.001  1.00  0.00     0.022 C 
HETATM   17  C   UNL     1     -41.928 -45.186  10.707  1.00  0.00     0.022 C 
HETATM   18  C   UNL     1     -40.159 -44.589  12.400  1.00  0.00     0.022 C 
ENDBRANCH  10  15
ENDBRANCH   4   7
BRANCH   1  19
HETATM   19  C   UNL     1     -41.317 -53.606  14.486  1.00  0.00     0.086 C 
HETATM   20  C   UNL     1     -40.273 -54.496  15.168  1.00  0.00     0.032 C 
BRANCH  19  21
HETATM   21  C   UNL     1     -42.490 -54.424  13.857  1.00  0.00     0.012 C 
HETATM   22  C   UNL     1     -43.442 -53.598  12.961  1.00  0.00     0.033 C 
HETATM   23  C   UNL     1     -44.383 -52.705  13.766  1.00  0.00     0.168 C 
HETATM   24  O   UNL     1     -45.127 -53.479  14.707  1.00  0.00    -0.391 OA
HETATM   25  C   UNL     1     -44.281 -54.144  15.641  1.00  0.00     0.168 C 
HETATM   26  C   UNL     1     -43.367 -55.127  14.916  1.00  0.00     0.033 C 
ENDBRANCH  19  21
ENDBRANCH   1  19
TORSDOF 4
ENDMDL
MODEL 6
REMARK VINA RESULT:      -5.5      2.012      2.709
REMARK  4 active torsions:
REMARK  status: ('A' for Active; 'I' for Inactive)
REMARK    1  A    between atoms: C_2  and  N_3 
REMARK    2  A    between atoms: C_2  and  C_19 
REMARK       I    between atoms: N_3  and  C_4 
REMARK       I    between atoms: C_4  and  N_6 
REMARK    3  A    between atoms: N_6  and  C_7 
REMARK    4  A    between atoms: C_11  and  C_15 
ROOT
HETATM    1  N   UNL     1     -43.580 -51.424  12.848  1.00  0.00    -0.338 N 
HETATM    2  C   UNL     1     -42.652 -50.502  12.456  1.00  0.00     0.321 C 
HETATM    3  O   UNL     1     -41.450 -50.711  12.559  1.00  0.00    -0.247 OA
HETATM    4  N   UNL     1     -43.222 -49.336  12.001  1.00  0.00    -0.306 N 
HETATM    5  H   UNL     1     -44.553 -51.268  12.633  1.00  0.00     0.164 HD
HETATM    6  H   UNL     1     -44.224 -49.323  11.881  1.00  0.00     0.171 HD
ENDROOT
BRANCH   4   7
HETATM    7  C   UNL     1     -42.516 -48.148  11.724  1.00  0.00     0.067 A 
HETATM    8  C   UNL     1     -41.651 -47.972  10.666  1.00  0.00     0.120 A 
HETATM    9  N   UNL     1     -40.920 -46.858  10.468  1.00  0.00    -0.353 N 
HETATM   10  C   UNL     1     -41.050 -45.868  11.365  1.00  0.00     0.088 A 
ATOM     11  HN  UNL     1     -40.294 -46.770   9.668  1.00  0.00     0.166 HD
HETATM   12  N   UNL     1     -41.898 -45.915  12.415  1.00  0.00    -0.353 N 
HETATM   13  C   UNL     1     -42.610 -47.056  12.566  1.00  0.00     0.120 A 
ATOM     14  HN  UNL     1     -41.996 -45.131  13.060  1.00  0.00     0.166 HD
BRANCH  10  15
HETATM   15  C   UNL     1     -40.139 -44.655  11.208  1.00  0.00     0.007 C 
HETATM   16  C   UNL     1     -39.154 -44.545  12.393  1.00  0.00     0.022 C 
HETATM   17  C   UNL     1     -39.332 -44.782   9.909  1.00  0.00     0.022 C 
HETATM   18  C   UNL     1     -40.999 -43.380  11.177  1.00  0.00     0.022 C 
ENDBRANCH  10  15
ENDBRANCH   4   7
BRANCH   1  19
HETATM   19  C   UNL     1     -43.189 -52.734  13.377  1.00  0.00     0.086 C 
HETATM   20  C   UNL     1     -43.951 -53.785  12.564  1.00  0.00     0.032 C 
BRANCH  19  21
HETATM   21  C   UNL     1     -43.451 -52.851  14.913  1.00  0.00     0.012 C 
HETATM   22  C   UNL     1     -42.477 -52.036  15.796  1.00  0.00     0.033 C 
HETATM   23  C   UNL     1     -41.094 -52.677  15.895  1.00  0.00     0.168 C 
HETATM   24  O   UNL     1     -41.197 -54.019  16.371  1.00  0.00    -0.391 OA
HETATM   25  C   UNL     1     -41.974 -54.837  15.501  1.00  0.00     0.168 C 
HETATM   26  C   UNL     1     -43.404 -54.308  15.420  1.00  0.00     0.033 C 
ENDBRANCH  19  21
ENDBRANCH   1  19
TORSDOF 4
ENDMDL
MODEL 7
REMARK VINA RESULT:      -5.4      2.520      8.279
REMARK  4 active torsions:
REMARK  status: ('A' for Active; 'I' for Inactive)
REMARK    1  A    between atoms: C_2  and  N_3 
REMARK    2  A    between atoms: C_2  and  C_19 
REMARK       I    between atoms: N_3  and  C_4 
REMARK       I    between atoms: C_4  and  N_6 
REMARK    3  A    between atoms: N_6  and  C_7 
REMARK    4  A    between atoms: C_11  and  C_15 
ROOT
HETATM    1  N   UNL     1     -40.017 -46.151  11.454  1.00  0.00    -0.338 N 
HETATM    2  C   UNL     1     -40.858 -47.226  11.419  1.00  0.00     0.321 C 
HETATM    3  O   UNL     1     -41.955 -47.172  10.879  1.00  0.00    -0.247 OA
HETATM    4  N   UNL     1     -40.353 -48.316  12.091  1.00  0.00    -0.306 N 
HETATM    5  H   UNL     1     -39.076 -46.271  11.797  1.00  0.00     0.164 HD
HETATM    6  H   UNL     1     -39.400 -48.263  12.416  1.00  0.00     0.171 HD
ENDROOT
BRANCH   4   7
HETATM    7  C   UNL     1     -41.081 -49.486  12.390  1.00  0.00     0.067 A 
HETATM    8  C   UNL     1     -41.878 -49.658  13.501  1.00  0.00     0.120 A 
HETATM    9  N   UNL     1     -42.497 -50.813  13.812  1.00  0.00    -0.353 N 
HETATM   10  C   UNL     1     -42.315 -51.852  12.983  1.00  0.00     0.088 A 
ATOM     11  HN  UNL     1     -43.080 -50.894  14.644  1.00  0.00     0.166 HD
HETATM   12  N   UNL     1     -41.591 -51.785  11.845  1.00  0.00    -0.353 N 
HETATM   13  C   UNL     1     -40.993 -50.601  11.578  1.00  0.00     0.120 A 
ATOM     14  HN  UNL     1     -41.500 -52.586  11.219  1.00  0.00     0.166 HD
BRANCH  10  15
HETATM   15  C   UNL     1     -42.918 -53.192  13.394  1.00  0.00     0.007 C 
HETATM   16  C   UNL     1     -43.478 -53.129  14.832  1.00  0.00     0.022 C 
HETATM   17  C   UNL     1     -44.061 -53.556  12.436  1.00  0.00     0.022 C 
HETATM   18  C   UNL     1     -41.823 -54.271  13.350  1.00  0.00     0.022 C 
ENDBRANCH  10  15
ENDBRANCH   4   7
BRANCH   1  19
HETATM   19  C   UNL     1     -40.365 -44.881  10.810  1.00  0.00     0.086 C 
HETATM   20  C   UNL     1     -39.332 -44.650   9.701  1.00  0.00     0.032 C 
BRANCH  19  21
HETATM   21  C   UNL     1     -40.428 -43.700  11.832  1.00  0.00     0.012 C 
HETATM   22  C   UNL     1     -41.050 -44.066  13.200  1.00  0.00     0.033 C 
HETATM   23  C   UNL     1     -42.569 -44.208  13.138  1.00  0.00     0.168 C 
HETATM   24  O   UNL     1     -43.163 -43.018  12.620  1.00  0.00    -0.391 OA
HETATM   25  C   UNL     1     -42.717 -42.727  11.298  1.00  0.00     0.168 C 
HETATM   26  C   UNL     1     -41.211 -42.483  11.294  1.00  0.00     0.033 C 
ENDBRANCH  19  21
ENDBRANCH   1  19
TORSDOF 4
ENDMDL
MODEL 8
REMARK VINA RESULT:      -5.4      1.234      2.240
REMARK  4 active torsions:
REMARK  status: ('A' for Active; 'I' for Inactive)
REMARK    1  A    between atoms: C_2  and  N_3 
REMARK    2  A    between atoms: C_2  and  C_19 
REMARK       I    between atoms: N_3  and  C_4 
REMARK       I    between atoms: C_4  and  N_6 
REMARK    3  A    between atoms: N_6  and  C_7 
REMARK    4  A    between atoms: C_11  and  C_15 
ROOT
HETATM    1  N   UNL     1     -42.951 -51.990  12.330  1.00  0.00    -0.338 N 
HETATM    2  C   UNL     1     -42.450 -50.737  12.533  1.00  0.00     0.321 C 
HETATM    3  O   UNL     1     -42.769 -50.063  13.505  1.00  0.00    -0.247 OA
HETATM    4  N   UNL     1     -41.617 -50.326  11.518  1.00  0.00    -0.306 N 
HETATM    5  H   UNL     1     -42.570 -52.559  11.589  1.00  0.00     0.164 HD
HETATM    6  H   UNL     1     -41.363 -51.008  10.820  1.00  0.00     0.171 HD
ENDROOT
BRANCH   4   7
HETATM    7  C   UNL     1     -41.122 -49.015  11.362  1.00  0.00     0.067 A 
HETATM    8  C   UNL     1     -40.162 -48.433  12.161  1.00  0.00     0.120 A 
HETATM    9  N   UNL     1     -39.765 -47.151  12.048  1.00  0.00    -0.353 N 
HETATM   10  C   UNL     1     -40.349 -46.406  11.098  1.00  0.00     0.088 A 
ATOM     11  HN  UNL     1     -39.048 -46.763  12.661  1.00  0.00     0.166 HD
HETATM   12  N   UNL     1     -41.270 -46.883  10.232  1.00  0.00    -0.353 N 
HETATM   13  C   UNL     1     -41.632 -48.178  10.387  1.00  0.00     0.120 A 
ATOM     14  HN  UNL     1     -41.671 -46.298   9.499  1.00  0.00     0.166 HD
BRANCH  10  15
HETATM   15  C   UNL     1     -39.987 -44.926  11.044  1.00  0.00     0.007 C 
HETATM   16  C   UNL     1     -41.255 -44.044  11.070  1.00  0.00     0.022 C 
HETATM   17  C   UNL     1     -39.113 -44.566  12.254  1.00  0.00     0.022 C 
HETATM   18  C   UNL     1     -39.227 -44.640   9.738  1.00  0.00     0.022 C 
ENDBRANCH  10  15
ENDBRANCH   4   7
BRANCH   1  19
HETATM   19  C   UNL     1     -43.869 -52.617  13.285  1.00  0.00     0.086 C 
HETATM   20  C   UNL     1     -45.198 -51.863  13.181  1.00  0.00     0.032 C 
BRANCH  19  21
HETATM   21  C   UNL     1     -43.291 -52.627  14.737  1.00  0.00     0.012 C 
HETATM   22  C   UNL     1     -42.335 -53.804  15.041  1.00  0.00     0.033 C 
HETATM   23  C   UNL     1     -43.071 -55.128  15.232  1.00  0.00     0.168 C 
HETATM   24  O   UNL     1     -44.059 -55.008  16.256  1.00  0.00    -0.391 OA
HETATM   25  C   UNL     1     -45.042 -54.026  15.940  1.00  0.00     0.168 C 
HETATM   26  C   UNL     1     -44.391 -52.651  15.819  1.00  0.00     0.033 C 
ENDBRANCH  19  21
ENDBRANCH   1  19
TORSDOF 4
ENDMDL
MODEL 9
REMARK VINA RESULT:      -5.3      3.796      5.360
REMARK  4 active torsions:
REMARK  status: ('A' for Active; 'I' for Inactive)
REMARK    1  A    between atoms: C_2  and  N_3 
REMARK    2  A    between atoms: C_2  and  C_19 
REMARK       I    between atoms: N_3  and  C_4 
REMARK       I    between atoms: C_4  and  N_6 
REMARK    3  A    between atoms: N_6  and  C_7 
REMARK    4  A    between atoms: C_11  and  C_15 
ROOT
HETATM    1  N   UNL     1     -39.344 -48.494  11.213  1.00  0.00    -0.338 N 
HETATM    2  C   UNL     1     -39.614 -47.257  11.723  1.00  0.00     0.321 C 
HETATM    3  O   UNL     1     -39.314 -46.951  12.870  1.00  0.00    -0.247 OA
HETATM    4  N   UNL     1     -40.291 -46.453  10.835  1.00  0.00    -0.306 N 
HETATM    5  H   UNL     1     -39.493 -48.667  10.230  1.00  0.00     0.164 HD
HETATM    6  H   UNL     1     -40.400 -46.791   9.891  1.00  0.00     0.171 HD
ENDROOT
BRANCH   4   7
HETATM    7  C   UNL     1     -40.873 -45.210  11.156  1.00  0.00     0.067 A 
HETATM    8  C   UNL     1     -42.143 -45.040  11.663  1.00  0.00     0.120 A 
HETATM    9  N   UNL     1     -42.712 -43.839  11.882  1.00  0.00    -0.353 N 
HETATM   10  C   UNL     1     -41.988 -42.750  11.581  1.00  0.00     0.088 A 
ATOM     11  HN  UNL     1     -43.655 -43.761  12.262  1.00  0.00     0.166 HD
HETATM   12  N   UNL     1     -40.720 -42.798  11.119  1.00  0.00    -0.353 N 
HETATM   13  C   UNL     1     -40.195 -44.029  10.919  1.00  0.00     0.120 A 
ATOM     14  HN  UNL     1     -40.186 -41.949  10.931  1.00  0.00     0.166 HD
BRANCH  10  15
HETATM   15  C   UNL     1     -42.671 -41.394  11.718  1.00  0.00     0.007 C 
HETATM   16  C   UNL     1     -42.662 -40.915  13.187  1.00  0.00     0.022 C 
HETATM   17  C   UNL     1     -41.934 -40.358  10.858  1.00  0.00     0.022 C 
HETATM   18  C   UNL     1     -44.135 -41.518  11.261  1.00  0.00     0.022 C 
ENDBRANCH  10  15
ENDBRANCH   4   7
BRANCH   1  19
HETATM   19  C   UNL     1     -38.640 -49.513  11.997  1.00  0.00     0.086 C 
HETATM   20  C   UNL     1     -37.399 -49.912  11.191  1.00  0.00     0.032 C 
BRANCH  19  21
HETATM   21  C   UNL     1     -39.557 -50.732  12.337  1.00  0.00     0.012 C 
HETATM   22  C   UNL     1     -40.965 -50.353  12.851  1.00  0.00     0.033 C 
HETATM   23  C   UNL     1     -40.951 -49.851  14.294  1.00  0.00     0.168 C 
HETATM   24  O   UNL     1     -40.346 -50.816  15.155  1.00  0.00    -0.391 OA
HETATM   25  C   UNL     1     -38.994 -51.084  14.793  1.00  0.00     0.168 C 
HETATM   26  C   UNL     1     -38.933 -51.676  13.387  1.00  0.00     0.033 C 
ENDBRANCH  19  21
ENDBRANCH   1  19
TORSDOF 4
ENDMDL
