MODEL 1
REMARK VINA RESULT:      -5.8      0.000      0.000
REMARK  4 active torsions:
REMARK  status: ('A' for Active; 'I' for Inactive)
REMARK    1  A    between atoms: C_2  and  N_3 
REMARK    2  A    between atoms: C_2  and  C_15 
REMARK       I    between atoms: N_3  and  C_4 
REMARK    3  A    between atoms: C_4  and  C_6 
REMARK    4  A    between atoms: C_6  and  C_7 
ROOT
HETATM    1  N   UNL     1     -44.914 -52.570  12.566  1.00  0.00    -0.356 N 
HETATM    2  C   UNL     1     -44.340 -53.818  12.682  1.00  0.00     0.222 C 
HETATM    3  O   UNL     1     -44.944 -54.838  13.004  1.00  0.00    -0.273 OA
HETATM    4  H   UNL     1     -44.321 -51.808  12.260  1.00  0.00     0.162 HD
ENDROOT
BRANCH   1   5
HETATM    5  C   UNL     1     -46.312 -52.213  12.841  1.00  0.00     0.084 C 
HETATM    6  C   UNL     1     -47.046 -51.621  11.634  1.00  0.00     0.032 C 
BRANCH   5   7
HETATM    7  C   UNL     1     -46.477 -51.321  14.094  1.00  0.00     0.012 C 
HETATM    8  C   UNL     1     -45.145 -50.846  14.728  1.00  0.00     0.011 C 
HETATM    9  C   UNL     1     -45.251 -51.331  16.186  1.00  0.00    -0.014 C 
HETATM   10  C   UNL     1     -45.123 -52.865  16.206  1.00  0.00     0.005 C 
HETATM   11  C   UNL     1     -46.736 -51.120  16.475  1.00  0.00     0.010 C 
HETATM   12  C   UNL     1     -46.493 -53.330  15.694  1.00  0.00     0.005 C 
HETATM   13  C   UNL     1     -47.180 -52.007  15.308  1.00  0.00    -0.008 C 
ENDBRANCH   5   7
ENDBRANCH   1   5
BRANCH   2  14
HETATM   14  C   UNL     1     -42.842 -53.844  12.414  1.00  0.00     0.147 C 
BRANCH  14  15
HETATM   15  C   UNL     1     -42.070 -53.172  13.498  1.00  0.00     0.022 A 
HETATM   16  C   UNL     1     -41.439 -51.894  13.479  1.00  0.00     0.039 A 
HETATM   17  C   UNL     1     -41.363 -50.895  12.385  1.00  0.00     0.071 C 
HETATM   18  N   UNL     1     -40.863 -51.612  14.654  1.00  0.00    -0.264 N 
HETATM   19  O   UNL     1     -41.096 -52.709  15.458  1.00  0.00    -0.225 OA
ATOM     20  HN  UNL     1     -40.357 -50.763  14.903  1.00  0.00     0.194 HD
HETATM   21  C   UNL     1     -41.812 -53.638  14.771  1.00  0.00     0.176 A 
HETATM   22 CL   UNL     1     -42.298 -55.139  15.458  1.00  0.00    -0.054 Cl
ENDBRANCH  14  15
ENDBRANCH   2  14
TORSDOF 4
ENDMDL
MODEL 2
REMARK VINA RESULT:      -5.8      1.349      1.873
REMARK  4 active torsions:
REMARK  status: ('A' for Active; 'I' for Inactive)
REMARK    1  A    between atoms: C_2  and  N_3 
REMARK    2  A    between atoms: C_2  and  C_15 
REMARK       I    between atoms: N_3  and  C_4 
REMARK    3  A    between atoms: C_4  and  C_6 
REMARK    4  A    between atoms: C_6  and  C_7 
ROOT
HETATM    1  N   UNL     1     -44.908 -52.582  12.576  1.00  0.00    -0.356 N 
HETATM    2  C   UNL     1     -44.326 -53.826  12.697  1.00  0.00     0.222 C 
HETATM    3  O   UNL     1     -44.926 -54.852  13.007  1.00  0.00    -0.273 OA
HETATM    4  H   UNL     1     -44.316 -51.815  12.282  1.00  0.00     0.162 HD
ENDROOT
BRANCH   1   5
HETATM    5  C   UNL     1     -46.313 -52.237  12.830  1.00  0.00     0.084 C 
HETATM    6  C   UNL     1     -47.032 -51.650  11.612  1.00  0.00     0.032 C 
BRANCH   5   7
HETATM    7  C   UNL     1     -46.505 -51.349  14.081  1.00  0.00     0.012 C 
HETATM    8  C   UNL     1     -45.188 -50.849  14.726  1.00  0.00     0.011 C 
HETATM    9  C   UNL     1     -45.297 -51.336  16.183  1.00  0.00    -0.014 C 
HETATM   10  C   UNL     1     -45.141 -52.867  16.204  1.00  0.00     0.005 C 
HETATM   11  C   UNL     1     -46.788 -51.152  16.459  1.00  0.00     0.010 C 
HETATM   12  C   UNL     1     -46.498 -53.357  15.680  1.00  0.00     0.005 C 
HETATM   13  C   UNL     1     -47.206 -52.048  15.289  1.00  0.00    -0.008 C 
ENDBRANCH   5   7
ENDBRANCH   1   5
BRANCH   2  14
HETATM   14  C   UNL     1     -42.823 -53.839  12.454  1.00  0.00     0.147 C 
BRANCH  14  15
HETATM   15  C   UNL     1     -42.075 -53.152  13.546  1.00  0.00     0.022 A 
HETATM   16  C   UNL     1     -41.763 -53.634  14.850  1.00  0.00     0.039 A 
HETATM   17  C   UNL     1     -42.104 -54.932  15.483  1.00  0.00     0.071 C 
HETATM   18  N   UNL     1     -41.047 -52.743  15.545  1.00  0.00    -0.264 N 
HETATM   19  O   UNL     1     -40.891 -51.655  14.711  1.00  0.00    -0.225 OA
ATOM     20  HN  UNL     1     -40.691 -52.846  16.495  1.00  0.00     0.194 HD
HETATM   21  C   UNL     1     -41.503 -51.896  13.523  1.00  0.00     0.176 A 
HETATM   22 CL   UNL     1     -41.509 -50.763  12.227  1.00  0.00    -0.054 Cl
ENDBRANCH  14  15
ENDBRANCH   2  14
TORSDOF 4
ENDMDL
MODEL 3
REMARK VINA RESULT:      -5.7      2.145      3.510
REMARK  4 active torsions:
REMARK  status: ('A' for Active; 'I' for Inactive)
REMARK    1  A    between atoms: C_2  and  N_3 
REMARK    2  A    between atoms: C_2  and  C_15 
REMARK       I    between atoms: N_3  and  C_4 
REMARK    3  A    between atoms: C_4  and  C_6 
REMARK    4  A    between atoms: C_6  and  C_7 
ROOT
HETATM    1  N   UNL     1     -44.038 -54.283  16.369  1.00  0.00    -0.356 N 
HETATM    2  C   UNL     1     -42.825 -53.904  15.837  1.00  0.00     0.222 C 
HETATM    3  O   UNL     1     -42.180 -52.921  16.194  1.00  0.00    -0.273 OA
HETATM    4  H   UNL     1     -44.459 -55.133  16.016  1.00  0.00     0.162 HD
ENDROOT
BRANCH   1   5
HETATM    5  C   UNL     1     -44.803 -53.582  17.409  1.00  0.00     0.084 C 
HETATM    6  C   UNL     1     -44.954 -54.381  18.707  1.00  0.00     0.032 C 
BRANCH   5   7
HETATM    7  C   UNL     1     -46.168 -53.055  16.908  1.00  0.00     0.012 C 
HETATM    8  C   UNL     1     -46.429 -53.272  15.397  1.00  0.00     0.011 C 
HETATM    9  C   UNL     1     -46.725 -51.853  14.878  1.00  0.00    -0.014 C 
HETATM   10  C   UNL     1     -45.419 -51.039  14.896  1.00  0.00     0.005 C 
HETATM   11  C   UNL     1     -47.504 -51.253  16.046  1.00  0.00     0.010 C 
HETATM   12  C   UNL     1     -45.234 -50.721  16.386  1.00  0.00     0.005 C 
HETATM   13  C   UNL     1     -46.376 -51.514  17.048  1.00  0.00    -0.008 C 
ENDBRANCH   5   7
ENDBRANCH   1   5
BRANCH   2  14
HETATM   14  C   UNL     1     -42.334 -54.794  14.703  1.00  0.00     0.147 C 
BRANCH  14  15
HETATM   15  C   UNL     1     -41.870 -53.999  13.531  1.00  0.00     0.022 A 
HETATM   16  C   UNL     1     -42.651 -53.347  12.532  1.00  0.00     0.039 A 
HETATM   17  C   UNL     1     -44.126 -53.292  12.376  1.00  0.00     0.071 C 
HETATM   18  N   UNL     1     -41.882 -52.701  11.649  1.00  0.00    -0.264 N 
HETATM   19  O   UNL     1     -40.581 -52.931  12.047  1.00  0.00    -0.225 OA
ATOM     20  HN  UNL     1     -42.192 -52.152  10.848  1.00  0.00     0.194 HD
HETATM   21  C   UNL     1     -40.573 -53.704  13.165  1.00  0.00     0.176 A 
HETATM   22 CL   UNL     1     -39.123 -54.190  13.954  1.00  0.00    -0.054 Cl
ENDBRANCH  14  15
ENDBRANCH   2  14
TORSDOF 4
ENDMDL
MODEL 4
REMARK VINA RESULT:      -5.5      5.023      6.205
REMARK  4 active torsions:
REMARK  status: ('A' for Active; 'I' for Inactive)
REMARK    1  A    between atoms: C_2  and  N_3 
REMARK    2  A    between atoms: C_2  and  C_15 
REMARK       I    between atoms: N_3  and  C_4 
REMARK    3  A    between atoms: C_4  and  C_6 
REMARK    4  A    between atoms: C_6  and  C_7 
ROOT
HETATM    1  N   UNL     1     -43.243 -49.707  12.313  1.00  0.00    -0.356 N 
HETATM    2  C   UNL     1     -43.004 -48.385  12.007  1.00  0.00     0.222 C 
HETATM    3  O   UNL     1     -43.131 -47.450  12.794  1.00  0.00    -0.273 OA
HETATM    4  H   UNL     1     -43.071 -50.394  11.588  1.00  0.00     0.162 HD
ENDROOT
BRANCH   1   5
HETATM    5  C   UNL     1     -43.727 -50.244  13.591  1.00  0.00     0.084 C 
HETATM    6  C   UNL     1     -42.659 -50.282  14.688  1.00  0.00     0.032 C 
BRANCH   5   7
HETATM    7  C   UNL     1     -44.437 -51.610  13.447  1.00  0.00     0.012 C 
HETATM    8  C   UNL     1     -45.832 -51.546  12.777  1.00  0.00     0.011 C 
HETATM    9  C   UNL     1     -46.758 -52.207  13.815  1.00  0.00    -0.014 C 
HETATM   10  C   UNL     1     -46.902 -51.262  15.020  1.00  0.00     0.005 C 
HETATM   11  C   UNL     1     -45.861 -53.313  14.368  1.00  0.00     0.010 C 
HETATM   12  C   UNL     1     -45.561 -51.427  15.748  1.00  0.00     0.005 C 
HETATM   13  C   UNL     1     -44.763 -52.333  14.792  1.00  0.00    -0.008 C 
ENDBRANCH   5   7
ENDBRANCH   1   5
BRANCH   2  14
HETATM   14  C   UNL     1     -42.596 -48.141  10.561  1.00  0.00     0.147 C 
BRANCH  14  15
HETATM   15  C   UNL     1     -43.188 -46.885  10.018  1.00  0.00     0.022 A 
HETATM   16  C   UNL     1     -44.461 -46.695   9.404  1.00  0.00     0.039 A 
HETATM   17  C   UNL     1     -45.530 -47.684   9.124  1.00  0.00     0.071 C 
HETATM   18  N   UNL     1     -44.659 -45.415   9.069  1.00  0.00    -0.264 N 
HETATM   19  O   UNL     1     -43.511 -44.747   9.445  1.00  0.00    -0.225 OA
ATOM     20  HN  UNL     1     -45.486 -45.016   8.627  1.00  0.00     0.194 HD
HETATM   21  C   UNL     1     -42.636 -45.621  10.008  1.00  0.00     0.176 A 
HETATM   22 CL   UNL     1     -41.095 -45.144  10.607  1.00  0.00    -0.054 Cl
ENDBRANCH  14  15
ENDBRANCH   2  14
TORSDOF 4
ENDMDL
MODEL 5
REMARK VINA RESULT:      -5.4      2.423      6.039
REMARK  4 active torsions:
REMARK  status: ('A' for Active; 'I' for Inactive)
REMARK    1  A    between atoms: C_2  and  N_3 
REMARK    2  A    between atoms: C_2  and  C_15 
REMARK       I    between atoms: N_3  and  C_4 
REMARK    3  A    between atoms: C_4  and  C_6 
REMARK    4  A    between atoms: C_6  and  C_7 
ROOT
HETATM    1  N   UNL     1     -42.234 -51.105  11.919  1.00  0.00    -0.356 N 
HETATM    2  C   UNL     1     -42.810 -51.847  12.927  1.00  0.00     0.222 C 
HETATM    3  O   UNL     1     -42.736 -51.578  14.123  1.00  0.00    -0.273 OA
HETATM    4  H   UNL     1     -42.393 -51.408  10.965  1.00  0.00     0.162 HD
ENDROOT
BRANCH   1   5
HETATM    5  C   UNL     1     -41.400 -49.906  12.071  1.00  0.00     0.084 C 
HETATM    6  C   UNL     1     -41.977 -48.664  11.384  1.00  0.00     0.032 C 
BRANCH   5   7
HETATM    7  C   UNL     1     -39.924 -50.136  11.673  1.00  0.00     0.012 C 
HETATM    8  C   UNL     1     -39.189 -51.211  12.513  1.00  0.00     0.011 C 
HETATM    9  C   UNL     1     -37.966 -50.456  13.067  1.00  0.00    -0.014 C 
HETATM   10  C   UNL     1     -38.447 -49.449  14.127  1.00  0.00     0.005 C 
HETATM   11  C   UNL     1     -37.603 -49.551  11.891  1.00  0.00     0.010 C 
HETATM   12  C   UNL     1     -39.063 -48.327  13.279  1.00  0.00     0.005 C 
HETATM   13  C   UNL     1     -38.988 -48.899  11.851  1.00  0.00    -0.008 C 
ENDBRANCH   5   7
ENDBRANCH   1   5
BRANCH   2  14
HETATM   14  C   UNL     1     -43.541 -53.094  12.447  1.00  0.00     0.147 C 
BRANCH  14  15
HETATM   15  C   UNL     1     -44.697 -53.435  13.324  1.00  0.00     0.022 A 
HETATM   16  C   UNL     1     -46.025 -52.918  13.286  1.00  0.00     0.039 A 
HETATM   17  C   UNL     1     -46.615 -51.898  12.384  1.00  0.00     0.071 C 
HETATM   18  N   UNL     1     -46.801 -53.487  14.216  1.00  0.00    -0.264 N 
HETATM   19  O   UNL     1     -45.989 -54.377  14.888  1.00  0.00    -0.225 OA
ATOM     20  HN  UNL     1     -47.788 -53.301  14.391  1.00  0.00     0.194 HD
HETATM   21  C   UNL     1     -44.738 -54.346  14.360  1.00  0.00     0.176 A 
HETATM   22 CL   UNL     1     -43.453 -55.333  14.941  1.00  0.00    -0.054 Cl
ENDBRANCH  14  15
ENDBRANCH   2  14
TORSDOF 4
ENDMDL
MODEL 6
REMARK VINA RESULT:      -5.3      1.834      3.761
REMARK  4 active torsions:
REMARK  status: ('A' for Active; 'I' for Inactive)
REMARK    1  A    between atoms: C_2  and  N_3 
REMARK    2  A    between atoms: C_2  and  C_15 
REMARK       I    between atoms: N_3  and  C_4 
REMARK    3  A    between atoms: C_4  and  C_6 
REMARK    4  A    between atoms: C_6  and  C_7 
ROOT
HETATM    1  N   UNL     1     -43.799 -53.786  16.604  1.00  0.00    -0.356 N 
HETATM    2  C   UNL     1     -42.514 -53.848  16.108  1.00  0.00     0.222 C 
HETATM    3  O   UNL     1     -41.553 -53.246  16.579  1.00  0.00    -0.273 OA
HETATM    4  H   UNL     1     -44.504 -54.355  16.150  1.00  0.00     0.162 HD
ENDROOT
BRANCH   1   5
HETATM    5  C   UNL     1     -44.271 -52.976  17.734  1.00  0.00     0.084 C 
HETATM    6  C   UNL     1     -44.014 -53.616  19.101  1.00  0.00     0.032 C 
BRANCH   5   7
HETATM    7  C   UNL     1     -45.744 -52.528  17.588  1.00  0.00     0.012 C 
HETATM    8  C   UNL     1     -46.502 -53.179  16.404  1.00  0.00     0.011 C 
HETATM    9  C   UNL     1     -47.013 -51.969  15.600  1.00  0.00    -0.014 C 
HETATM   10  C   UNL     1     -45.814 -51.287  14.918  1.00  0.00     0.005 C 
HETATM   11  C   UNL     1     -47.364 -50.984  16.714  1.00  0.00     0.010 C 
HETATM   12  C   UNL     1     -45.138 -50.542  16.078  1.00  0.00     0.005 C 
HETATM   13  C   UNL     1     -45.949 -51.007  17.301  1.00  0.00    -0.008 C 
ENDBRANCH   5   7
ENDBRANCH   1   5
BRANCH   2  14
HETATM   14  C   UNL     1     -42.365 -54.713  14.864  1.00  0.00     0.147 C 
BRANCH  14  15
HETATM   15  C   UNL     1     -42.970 -54.071  13.662  1.00  0.00     0.022 A 
HETATM   16  C   UNL     1     -42.386 -53.124  12.770  1.00  0.00     0.039 A 
HETATM   17  C   UNL     1     -41.035 -52.512  12.797  1.00  0.00     0.071 C 
HETATM   18  N   UNL     1     -43.226 -52.795  11.783  1.00  0.00    -0.264 N 
HETATM   19  O   UNL     1     -44.382 -53.511  12.020  1.00  0.00    -0.225 OA
ATOM     20  HN  UNL     1     -43.049 -52.150  11.014  1.00  0.00     0.194 HD
HETATM   21  C   UNL     1     -44.231 -54.268  13.138  1.00  0.00     0.176 A 
HETATM   22 CL   UNL     1     -45.467 -55.303  13.740  1.00  0.00    -0.054 Cl
ENDBRANCH  14  15
ENDBRANCH   2  14
TORSDOF 4
ENDMDL
MODEL 7
REMARK VINA RESULT:      -5.3      2.437      6.335
REMARK  4 active torsions:
REMARK  status: ('A' for Active; 'I' for Inactive)
REMARK    1  A    between atoms: C_2  and  N_3 
REMARK    2  A    between atoms: C_2  and  C_15 
REMARK       I    between atoms: N_3  and  C_4 
REMARK    3  A    between atoms: C_4  and  C_6 
REMARK    4  A    between atoms: C_6  and  C_7 
ROOT
HETATM    1  N   UNL     1     -41.102 -52.686  12.779  1.00  0.00    -0.356 N 
HETATM    2  C   UNL     1     -42.360 -52.412  13.270  1.00  0.00     0.222 C 
HETATM    3  O   UNL     1     -42.590 -51.740  14.272  1.00  0.00    -0.273 OA
HETATM    4  H   UNL     1     -41.040 -53.226  11.924  1.00  0.00     0.162 HD
ENDROOT
BRANCH   1   5
HETATM    5  C   UNL     1     -39.818 -52.279  13.366  1.00  0.00     0.084 C 
HETATM    6  C   UNL     1     -39.566 -52.861  14.760  1.00  0.00     0.032 C 
BRANCH   5   7
HETATM    7  C   UNL     1     -39.598 -50.749  13.344  1.00  0.00     0.012 C 
HETATM    8  C   UNL     1     -39.834 -50.082  11.966  1.00  0.00     0.011 C 
HETATM    9  C   UNL     1     -38.505 -49.355  11.689  1.00  0.00    -0.014 C 
HETATM   10  C   UNL     1     -37.421 -50.406  11.390  1.00  0.00     0.005 C 
HETATM   11  C   UNL     1     -38.120 -48.871  13.085  1.00  0.00     0.010 C 
HETATM   12  C   UNL     1     -37.103 -50.975  12.780  1.00  0.00     0.005 C 
HETATM   13  C   UNL     1     -38.145 -50.284  13.678  1.00  0.00    -0.008 C 
ENDBRANCH   5   7
ENDBRANCH   1   5
BRANCH   2  14
HETATM   14  C   UNL     1     -43.493 -53.057  12.482  1.00  0.00     0.147 C 
BRANCH  14  15
HETATM   15  C   UNL     1     -44.609 -53.495  13.367  1.00  0.00     0.022 A 
HETATM   16  C   UNL     1     -45.957 -53.031  13.396  1.00  0.00     0.039 A 
HETATM   17  C   UNL     1     -46.612 -51.985  12.572  1.00  0.00     0.071 C 
HETATM   18  N   UNL     1     -46.683 -53.684  14.310  1.00  0.00    -0.264 N 
HETATM   19  O   UNL     1     -45.818 -54.579  14.906  1.00  0.00    -0.225 OA
ATOM     20  HN  UNL     1     -47.671 -53.550  14.522  1.00  0.00     0.194 HD
HETATM   21  C   UNL     1     -44.584 -54.466  14.348  1.00  0.00     0.176 A 
HETATM   22 CL   UNL     1     -43.246 -55.433  14.834  1.00  0.00    -0.054 Cl
ENDBRANCH  14  15
ENDBRANCH   2  14
TORSDOF 4
ENDMDL
MODEL 8
REMARK VINA RESULT:      -5.2      2.208      3.496
REMARK  4 active torsions:
REMARK  status: ('A' for Active; 'I' for Inactive)
REMARK    1  A    between atoms: C_2  and  N_3 
REMARK    2  A    between atoms: C_2  and  C_15 
REMARK       I    between atoms: N_3  and  C_4 
REMARK    3  A    between atoms: C_4  and  C_6 
REMARK    4  A    between atoms: C_6  and  C_7 
ROOT
HETATM    1  N   UNL     1     -43.989 -51.046  15.171  1.00  0.00    -0.356 N 
HETATM    2  C   UNL     1     -43.350 -50.311  14.196  1.00  0.00     0.222 C 
HETATM    3  O   UNL     1     -43.868 -49.942  13.145  1.00  0.00    -0.273 OA
HETATM    4  H   UNL     1     -43.467 -51.264  16.011  1.00  0.00     0.162 HD
ENDROOT
BRANCH   1   5
HETATM    5  C   UNL     1     -45.364 -51.561  15.129  1.00  0.00     0.084 C 
HETATM    6  C   UNL     1     -46.272 -50.980  16.217  1.00  0.00     0.032 C 
BRANCH   5   7
HETATM    7  C   UNL     1     -45.435 -53.105  15.099  1.00  0.00     0.012 C 
HETATM    8  C   UNL     1     -44.086 -53.819  15.363  1.00  0.00     0.011 C 
HETATM    9  C   UNL     1     -43.909 -54.717  14.124  1.00  0.00    -0.014 C 
HETATM   10  C   UNL     1     -43.605 -53.825  12.907  1.00  0.00     0.005 C 
HETATM   11  C   UNL     1     -45.346 -55.161  13.857  1.00  0.00     0.010 C 
HETATM   12  C   UNL     1     -44.975 -53.218  12.576  1.00  0.00     0.005 C 
HETATM   13  C   UNL     1     -45.860 -53.723  13.730  1.00  0.00    -0.008 C 
ENDBRANCH   5   7
ENDBRANCH   1   5
BRANCH   2  14
HETATM   14  C   UNL     1     -41.889 -50.008  14.499  1.00  0.00     0.147 C 
BRANCH  14  15
HETATM   15  C   UNL     1     -40.970 -50.665  13.526  1.00  0.00     0.022 A 
HETATM   16  C   UNL     1     -40.467 -50.156  12.293  1.00  0.00     0.039 A 
HETATM   17  C   UNL     1     -40.727 -48.852  11.635  1.00  0.00     0.071 C 
HETATM   18  N   UNL     1     -39.638 -51.025  11.704  1.00  0.00    -0.264 N 
HETATM   19  O   UNL     1     -39.595 -52.125  12.536  1.00  0.00    -0.225 OA
ATOM     20  HN  UNL     1     -39.141 -50.900  10.822  1.00  0.00     0.194 HD
HETATM   21  C   UNL     1     -40.387 -51.912  13.618  1.00  0.00     0.176 A 
HETATM   22 CL   UNL     1     -40.575 -53.068  14.880  1.00  0.00    -0.054 Cl
ENDBRANCH  14  15
ENDBRANCH   2  14
TORSDOF 4
ENDMDL
MODEL 9
REMARK VINA RESULT:      -5.2      2.319      3.716
REMARK  4 active torsions:
REMARK  status: ('A' for Active; 'I' for Inactive)
REMARK    1  A    between atoms: C_2  and  N_3 
REMARK    2  A    between atoms: C_2  and  C_15 
REMARK       I    between atoms: N_3  and  C_4 
REMARK    3  A    between atoms: C_4  and  C_6 
REMARK    4  A    between atoms: C_6  and  C_7 
ROOT
HETATM    1  N   UNL     1     -44.132 -54.342  16.189  1.00  0.00    -0.356 N 
HETATM    2  C   UNL     1     -42.771 -54.147  16.281  1.00  0.00     0.222 C 
HETATM    3  O   UNL     1     -42.239 -53.153  16.769  1.00  0.00    -0.273 OA
HETATM    4  H   UNL     1     -44.454 -55.219  15.796  1.00  0.00     0.162 HD
ENDROOT
BRANCH   1   5
HETATM    5  C   UNL     1     -45.188 -53.408  16.602  1.00  0.00     0.084 C 
HETATM    6  C   UNL     1     -45.968 -53.868  17.837  1.00  0.00     0.032 C 
BRANCH   5   7
HETATM    7  C   UNL     1     -46.140 -53.017  15.447  1.00  0.00     0.012 C 
HETATM    8  C   UNL     1     -45.639 -53.412  14.035  1.00  0.00     0.011 C 
HETATM    9  C   UNL     1     -45.642 -52.076  13.269  1.00  0.00    -0.014 C 
HETATM   10  C   UNL     1     -44.504 -51.193  13.812  1.00  0.00     0.005 C 
HETATM   11  C   UNL     1     -46.887 -51.398  13.836  1.00  0.00     0.010 C 
HETATM   12  C   UNL     1     -45.061 -50.705  15.156  1.00  0.00     0.005 C 
HETATM   13  C   UNL     1     -46.384 -51.484  15.280  1.00  0.00    -0.008 C 
ENDBRANCH   5   7
ENDBRANCH   1   5
BRANCH   2  14
HETATM   14  C   UNL     1     -41.936 -55.268  15.678  1.00  0.00     0.147 C 
BRANCH  14  15
HETATM   15  C   UNL     1     -40.798 -54.743  14.870  1.00  0.00     0.022 A 
HETATM   16  C   UNL     1     -39.401 -54.843  15.131  1.00  0.00     0.039 A 
HETATM   17  C   UNL     1     -38.698 -55.477  16.274  1.00  0.00     0.071 C 
HETATM   18  N   UNL     1     -38.677 -54.274  14.160  1.00  0.00    -0.264 N 
HETATM   19  O   UNL     1     -39.591 -53.779  13.253  1.00  0.00    -0.225 OA
ATOM     20  HN  UNL     1     -37.660 -54.219  14.103  1.00  0.00     0.194 HD
HETATM   21  C   UNL     1     -40.852 -54.056  13.674  1.00  0.00     0.176 A 
HETATM   22 CL   UNL     1     -42.255 -53.597  12.789  1.00  0.00    -0.054 Cl
ENDBRANCH  14  15
ENDBRANCH   2  14
TORSDOF 4
ENDMDL
