MODEL 1
REMARK VINA RESULT:      -6.7      0.000      0.000
REMARK  8 active torsions:
REMARK  status: ('A' for Active; 'I' for Inactive)
REMARK    1  A    between atoms: N_2  and  C_13 
REMARK    2  A    between atoms: C_6  and  N_14 
REMARK    3  A    between atoms: C_13  and  C_15 
REMARK    4  A    between atoms: N_14  and  C_19 
REMARK    5  A    between atoms: C_15  and  C_23 
REMARK    6  A    between atoms: C_17  and  C_19 
REMARK    7  A    between atoms: C_17  and  C_18 
REMARK    8  A    between atoms: C_23  and  O_24 
ROOT
HETATM    1  C   UNL     1     -42.124 -49.424  12.012  1.00  0.00     0.122 A 
HETATM    2  N   UNL     1     -42.507 -51.058  13.467  1.00  0.00    -0.326 N 
HETATM    3  C   UNL     1     -41.535 -50.514  12.651  1.00  0.00     0.140 A 
HETATM    4  N   UNL     1     -43.437 -49.308  12.451  1.00  0.00    -0.346 N 
ATOM      5  HN  UNL     1     -44.123 -48.616  12.151  1.00  0.00     0.167 HD
HETATM    6  C   UNL     1     -41.341 -48.672  11.067  1.00  0.00     0.135 A 
HETATM    7  C   UNL     1     -43.618 -50.269  13.331  1.00  0.00     0.185 A 
HETATM    8  N   UNL     1     -40.290 -50.973  12.468  1.00  0.00    -0.336 N 
ATOM      9  HN  UNL     1     -39.893 -51.781  12.948  1.00  0.00     0.168 HD
HETATM   10  N   UNL     1     -40.070 -49.138  10.866  1.00  0.00    -0.337 N 
ATOM     11  HN  UNL     1     -39.455 -48.675  10.197  1.00  0.00     0.168 HD
HETATM   12  C   UNL     1     -39.633 -50.219  11.560  1.00  0.00     0.183 A 
ENDROOT
BRANCH   6  13
HETATM   13  N   UNL     1     -41.755 -47.547  10.352  1.00  0.00    -0.370 N 
HETATM   14  C   UNL     1     -42.873 -47.633   9.420  1.00  0.00     0.151 C 
BRANCH  13  15
HETATM   15  C   UNL     1     -41.155 -46.197  10.561  1.00  0.00     0.126 C 
BRANCH  15  16
HETATM   16  C   UNL     1     -41.115 -45.830  12.056  1.00  0.00     0.055 C 
BRANCH  16  17
HETATM   17  C   UNL     1     -39.827 -45.971  12.926  1.00  0.00     0.224 C 
HETATM   18  N   UNL     1     -39.771 -47.155  13.820  1.00  0.00     0.088 N 
HETATM   19  C   UNL     1     -38.388 -47.644  13.964  1.00  0.00     0.310 C 
HETATM   20  C   UNL     1     -40.354 -46.915  15.149  1.00  0.00     0.272 C 
HETATM   21  C   UNL     1     -39.842 -45.659  15.852  1.00  0.00     0.030 C 
HETATM   22  C   UNL     1     -39.984 -44.431  14.964  1.00  0.00     0.004 C 
HETATM   23  C   UNL     1     -39.358 -44.672  13.599  1.00  0.00     0.036 C 
ENDBRANCH  16  17
ENDBRANCH  15  16
ENDBRANCH  13  15
ENDBRANCH   6  13
BRANCH   2  24
HETATM   24  C   UNL     1     -42.412 -52.259  14.313  1.00  0.00     0.143 C 
BRANCH  24  25
HETATM   25  C   UNL     1     -42.513 -53.630  13.546  1.00  0.00     0.001 C 
HETATM   26  C   UNL     1     -43.335 -53.456  12.244  1.00  0.00     0.039 C 
HETATM   27  C   UNL     1     -44.834 -53.343  12.539  1.00  0.00     0.168 C 
HETATM   28  O   UNL     1     -45.294 -54.553  13.126  1.00  0.00    -0.391 OA
HETATM   29  C   UNL     1     -44.722 -54.774  14.410  1.00  0.00     0.168 C 
HETATM   30  C   UNL     1     -43.199 -54.780  14.361  1.00  0.00     0.039 C 
BRANCH  25  31
HETATM   31  C   UNL     1     -41.075 -54.136  13.269  1.00  0.00     0.175 C 
BRANCH  31  32
HETATM   32  O   UNL     1     -40.718 -53.868  11.912  1.00  0.00    -0.400 OA
HETATM   33  H   UNL     1     -40.173 -54.619  11.592  1.00  0.00     0.209 HD
ENDBRANCH  31  32
ENDBRANCH  25  31
ENDBRANCH  24  25
ENDBRANCH   2  24
TORSDOF 8
ENDMDL
MODEL 2
REMARK VINA RESULT:      -6.5      2.795      7.446
REMARK  8 active torsions:
REMARK  status: ('A' for Active; 'I' for Inactive)
REMARK    1  A    between atoms: N_2  and  C_13 
REMARK    2  A    between atoms: C_6  and  N_14 
REMARK    3  A    between atoms: C_13  and  C_15 
REMARK    4  A    between atoms: N_14  and  C_19 
REMARK    5  A    between atoms: C_15  and  C_23 
REMARK    6  A    between atoms: C_17  and  C_19 
REMARK    7  A    between atoms: C_17  and  C_18 
REMARK    8  A    between atoms: C_23  and  O_24 
ROOT
HETATM    1  C   UNL     1     -40.777 -50.912  13.889  1.00  0.00     0.122 A 
HETATM    2  N   UNL     1     -40.234 -49.060  12.789  1.00  0.00    -0.326 N 
HETATM    3  C   UNL     1     -40.660 -50.362  12.614  1.00  0.00     0.140 A 
HETATM    4  N   UNL     1     -40.434 -49.943  14.823  1.00  0.00    -0.346 N 
ATOM      5  HN  UNL     1     -40.408 -50.053  15.837  1.00  0.00     0.167 HD
HETATM    6  C   UNL     1     -41.182 -52.288  14.013  1.00  0.00     0.135 A 
HETATM    7  C   UNL     1     -40.150 -48.856  14.140  1.00  0.00     0.185 A 
HETATM    8  N   UNL     1     -40.868 -50.990  11.448  1.00  0.00    -0.336 N 
ATOM      9  HN  UNL     1     -40.766 -50.557  10.530  1.00  0.00     0.168 HD
HETATM   10  N   UNL     1     -41.389 -52.941  12.828  1.00  0.00    -0.337 N 
ATOM     11  HN  UNL     1     -41.658 -53.925  12.826  1.00  0.00     0.168 HD
HETATM   12  C   UNL     1     -41.233 -52.274  11.657  1.00  0.00     0.183 A 
ENDROOT
BRANCH   6  13
HETATM   13  N   UNL     1     -41.369 -52.996  15.201  1.00  0.00    -0.370 N 
HETATM   14  C   UNL     1     -40.472 -54.088  15.561  1.00  0.00     0.151 C 
BRANCH  13  15
HETATM   15  C   UNL     1     -42.415 -52.628  16.199  1.00  0.00     0.126 C 
BRANCH  15  16
HETATM   16  C   UNL     1     -43.649 -52.016  15.513  1.00  0.00     0.055 C 
BRANCH  16  17
HETATM   17  C   UNL     1     -44.876 -52.869  15.061  1.00  0.00     0.224 C 
HETATM   18  N   UNL     1     -44.687 -53.680  13.832  1.00  0.00     0.088 N 
HETATM   19  C   UNL     1     -45.450 -54.939  13.907  1.00  0.00     0.310 C 
HETATM   20  C   UNL     1     -45.034 -52.962  12.596  1.00  0.00     0.272 C 
HETATM   21  C   UNL     1     -46.403 -52.285  12.614  1.00  0.00     0.030 C 
HETATM   22  C   UNL     1     -46.558 -51.384  13.831  1.00  0.00     0.004 C 
HETATM   23  C   UNL     1     -46.224 -52.135  15.110  1.00  0.00     0.036 C 
ENDBRANCH  16  17
ENDBRANCH  15  16
ENDBRANCH  13  15
ENDBRANCH   6  13
BRANCH   2  24
HETATM   24  C   UNL     1     -39.906 -48.067  11.753  1.00  0.00     0.143 C 
BRANCH  24  25
HETATM   25  C   UNL     1     -41.061 -47.057  11.403  1.00  0.00     0.001 C 
HETATM   26  C   UNL     1     -40.495 -45.848  10.615  1.00  0.00     0.039 C 
HETATM   27  C   UNL     1     -39.733 -44.887  11.534  1.00  0.00     0.168 C 
HETATM   28  O   UNL     1     -40.629 -44.338  12.492  1.00  0.00    -0.391 OA
HETATM   29  C   UNL     1     -41.125 -45.326  13.387  1.00  0.00     0.168 C 
HETATM   30  C   UNL     1     -41.809 -46.470  12.649  1.00  0.00     0.039 C 
BRANCH  25  31
HETATM   31  C   UNL     1     -42.147 -47.821  10.605  1.00  0.00     0.175 C 
BRANCH  31  32
HETATM   32  O   UNL     1     -41.531 -48.647   9.615  1.00  0.00    -0.400 OA
HETATM   33  H   UNL     1     -40.893 -48.092   9.117  1.00  0.00     0.209 HD
ENDBRANCH  31  32
ENDBRANCH  25  31
ENDBRANCH  24  25
ENDBRANCH   2  24
TORSDOF 8
ENDMDL
MODEL 3
REMARK VINA RESULT:      -6.5      1.522      2.114
REMARK  8 active torsions:
REMARK  status: ('A' for Active; 'I' for Inactive)
REMARK    1  A    between atoms: N_2  and  C_13 
REMARK    2  A    between atoms: C_6  and  N_14 
REMARK    3  A    between atoms: C_13  and  C_15 
REMARK    4  A    between atoms: N_14  and  C_19 
REMARK    5  A    between atoms: C_15  and  C_23 
REMARK    6  A    between atoms: C_17  and  C_19 
REMARK    7  A    between atoms: C_17  and  C_18 
REMARK    8  A    between atoms: C_23  and  O_24 
ROOT
HETATM    1  C   UNL     1     -42.076 -49.273  11.961  1.00  0.00     0.122 A 
HETATM    2  N   UNL     1     -42.419 -50.956  13.370  1.00  0.00    -0.326 N 
HETATM    3  C   UNL     1     -41.454 -50.352  12.588  1.00  0.00     0.140 A 
HETATM    4  N   UNL     1     -43.401 -49.223  12.375  1.00  0.00    -0.346 N 
ATOM      5  HN  UNL     1     -44.110 -48.553  12.075  1.00  0.00     0.167 HD
HETATM    6  C   UNL     1     -41.306 -48.468  11.049  1.00  0.00     0.135 A 
HETATM    7  C   UNL     1     -43.559 -50.211  13.228  1.00  0.00     0.185 A 
HETATM    8  N   UNL     1     -40.187 -50.754  12.421  1.00  0.00    -0.336 N 
ATOM      9  HN  UNL     1     -39.766 -51.555  12.891  1.00  0.00     0.168 HD
HETATM   10  N   UNL     1     -40.013 -48.875  10.865  1.00  0.00    -0.337 N 
ATOM     11  HN  UNL     1     -39.405 -48.371  10.219  1.00  0.00     0.168 HD
HETATM   12  C   UNL     1     -39.544 -49.952  11.544  1.00  0.00     0.183 A 
ENDROOT
BRANCH   6  13
HETATM   13  N   UNL     1     -41.753 -47.345  10.351  1.00  0.00    -0.370 N 
HETATM   14  C   UNL     1     -42.905 -47.437   9.460  1.00  0.00     0.151 C 
BRANCH  13  15
HETATM   15  C   UNL     1     -41.155 -45.991  10.539  1.00  0.00     0.126 C 
BRANCH  15  16
HETATM   16  C   UNL     1     -40.885 -45.703  12.027  1.00  0.00     0.055 C 
BRANCH  16  17
HETATM   17  C   UNL     1     -40.672 -44.260  12.583  1.00  0.00     0.224 C 
HETATM   18  N   UNL     1     -41.464 -43.903  13.787  1.00  0.00     0.088 N 
HETATM   19  C   UNL     1     -40.714 -42.980  14.658  1.00  0.00     0.310 C 
HETATM   20  C   UNL     1     -42.782 -43.330  13.475  1.00  0.00     0.272 C 
HETATM   21  C   UNL     1     -42.756 -42.185  12.463  1.00  0.00     0.030 C 
HETATM   22  C   UNL     1     -42.020 -42.587  11.193  1.00  0.00     0.004 C 
HETATM   23  C   UNL     1     -40.647 -43.155  11.517  1.00  0.00     0.036 C 
ENDBRANCH  16  17
ENDBRANCH  15  16
ENDBRANCH  13  15
ENDBRANCH   6  13
BRANCH   2  24
HETATM   24  C   UNL     1     -42.289 -52.171  14.192  1.00  0.00     0.143 C 
BRANCH  24  25
HETATM   25  C   UNL     1     -42.379 -53.528  13.400  1.00  0.00     0.001 C 
HETATM   26  C   UNL     1     -43.288 -53.363  12.156  1.00  0.00     0.039 C 
HETATM   27  C   UNL     1     -44.769 -53.321  12.545  1.00  0.00     0.168 C 
HETATM   28  O   UNL     1     -45.140 -54.563  13.131  1.00  0.00    -0.391 OA
HETATM   29  C   UNL     1     -44.480 -54.786  14.371  1.00  0.00     0.168 C 
HETATM   30  C   UNL     1     -42.964 -54.724  14.228  1.00  0.00     0.039 C 
BRANCH  25  31
HETATM   31  C   UNL     1     -40.941 -53.965  13.023  1.00  0.00     0.175 C 
BRANCH  31  32
HETATM   32  O   UNL     1     -40.657 -53.587  11.675  1.00  0.00    -0.400 OA
HETATM   33  H   UNL     1     -39.715 -53.800  11.497  1.00  0.00     0.209 HD
ENDBRANCH  31  32
ENDBRANCH  25  31
ENDBRANCH  24  25
ENDBRANCH   2  24
TORSDOF 8
ENDMDL
MODEL 4
REMARK VINA RESULT:      -6.4      3.135      7.706
REMARK  8 active torsions:
REMARK  status: ('A' for Active; 'I' for Inactive)
REMARK    1  A    between atoms: N_2  and  C_13 
REMARK    2  A    between atoms: C_6  and  N_14 
REMARK    3  A    between atoms: C_13  and  C_15 
REMARK    4  A    between atoms: N_14  and  C_19 
REMARK    5  A    between atoms: C_15  and  C_23 
REMARK    6  A    between atoms: C_17  and  C_19 
REMARK    7  A    between atoms: C_17  and  C_18 
REMARK    8  A    between atoms: C_23  and  O_24 
ROOT
HETATM    1  C   UNL     1     -41.738 -48.936  11.712  1.00  0.00     0.122 A 
HETATM    2  N   UNL     1     -41.929 -46.906  10.832  1.00  0.00    -0.326 N 
HETATM    3  C   UNL     1     -41.006 -47.847  11.243  1.00  0.00     0.140 A 
HETATM    4  N   UNL     1     -43.091 -48.655  11.573  1.00  0.00    -0.346 N 
ATOM      5  HN  UNL     1     -43.871 -49.254  11.844  1.00  0.00     0.167 HD
HETATM    6  C   UNL     1     -41.026 -50.071  12.238  1.00  0.00     0.135 A 
HETATM    7  C   UNL     1     -43.165 -47.463  11.022  1.00  0.00     0.185 A 
HETATM    8  N   UNL     1     -39.672 -47.718  11.242  1.00  0.00    -0.336 N 
ATOM      9  HN  UNL     1     -39.168 -46.901  10.896  1.00  0.00     0.168 HD
HETATM   10  N   UNL     1     -39.663 -49.947  12.250  1.00  0.00    -0.337 N 
ATOM     11  HN  UNL     1     -39.084 -50.698  12.625  1.00  0.00     0.168 HD
HETATM   12  C   UNL     1     -39.087 -48.820  11.760  1.00  0.00     0.183 A 
ENDROOT
BRANCH   6  13
HETATM   13  N   UNL     1     -41.588 -51.250  12.731  1.00  0.00    -0.370 N 
HETATM   14  C   UNL     1     -41.587 -52.464  11.922  1.00  0.00     0.151 C 
BRANCH  13  15
HETATM   15  C   UNL     1     -42.127 -51.365  14.117  1.00  0.00     0.126 C 
BRANCH  15  16
HETATM   16  C   UNL     1     -42.505 -52.820  14.449  1.00  0.00     0.055 C 
BRANCH  16  17
HETATM   17  C   UNL     1     -43.981 -53.283  14.658  1.00  0.00     0.224 C 
HETATM   18  N   UNL     1     -44.642 -53.902  13.481  1.00  0.00     0.088 N 
HETATM   19  C   UNL     1     -45.593 -54.948  13.899  1.00  0.00     0.310 C 
HETATM   20  C   UNL     1     -45.321 -52.931  12.610  1.00  0.00     0.272 C 
HETATM   21  C   UNL     1     -46.261 -51.971  13.337  1.00  0.00     0.030 C 
HETATM   22  C   UNL     1     -45.554 -51.271  14.489  1.00  0.00     0.004 C 
HETATM   23  C   UNL     1     -44.873 -52.278  15.402  1.00  0.00     0.036 C 
ENDBRANCH  16  17
ENDBRANCH  15  16
ENDBRANCH  13  15
ENDBRANCH   6  13
BRANCH   2  24
HETATM   24  C   UNL     1     -41.673 -45.554  10.308  1.00  0.00     0.143 C 
BRANCH  24  25
HETATM   25  C   UNL     1     -41.838 -44.387  11.352  1.00  0.00     0.001 C 
HETATM   26  C   UNL     1     -40.512 -43.595  11.483  1.00  0.00     0.039 C 
HETATM   27  C   UNL     1     -39.472 -44.373  12.294  1.00  0.00     0.168 C 
HETATM   28  O   UNL     1     -39.946 -44.553  13.623  1.00  0.00    -0.391 OA
HETATM   29  C   UNL     1     -41.094 -45.391  13.670  1.00  0.00     0.168 C 
HETATM   30  C   UNL     1     -42.223 -44.860  12.796  1.00  0.00     0.039 C 
BRANCH  25  31
HETATM   31  C   UNL     1     -43.015 -43.491  10.894  1.00  0.00     0.175 C 
BRANCH  31  32
HETATM   32  O   UNL     1     -43.627 -44.049   9.730  1.00  0.00    -0.400 OA
HETATM   33  H   UNL     1     -44.592 -44.109   9.898  1.00  0.00     0.209 HD
ENDBRANCH  31  32
ENDBRANCH  25  31
ENDBRANCH  24  25
ENDBRANCH   2  24
TORSDOF 8
ENDMDL
MODEL 5
REMARK VINA RESULT:      -6.3      3.063      7.584
REMARK  8 active torsions:
REMARK  status: ('A' for Active; 'I' for Inactive)
REMARK    1  A    between atoms: N_2  and  C_13 
REMARK    2  A    between atoms: C_6  and  N_14 
REMARK    3  A    between atoms: C_13  and  C_15 
REMARK    4  A    between atoms: N_14  and  C_19 
REMARK    5  A    between atoms: C_15  and  C_23 
REMARK    6  A    between atoms: C_17  and  C_19 
REMARK    7  A    between atoms: C_17  and  C_18 
REMARK    8  A    between atoms: C_23  and  O_24 
ROOT
HETATM    1  C   UNL     1     -40.347 -49.814  13.365  1.00  0.00     0.122 A 
HETATM    2  N   UNL     1     -40.554 -47.603  13.408  1.00  0.00    -0.326 N 
HETATM    3  C   UNL     1     -39.929 -48.639  12.743  1.00  0.00     0.140 A 
HETATM    4  N   UNL     1     -41.227 -49.486  14.388  1.00  0.00    -0.346 N 
ATOM      5  HN  UNL     1     -41.687 -50.132  15.030  1.00  0.00     0.167 HD
HETATM    6  C   UNL     1     -39.825 -51.070  12.892  1.00  0.00     0.135 A 
HETATM    7  C   UNL     1     -41.349 -48.177  14.364  1.00  0.00     0.185 A 
HETATM    8  N   UNL     1     -39.052 -48.534  11.736  1.00  0.00    -0.336 N 
ATOM      9  HN  UNL     1     -38.761 -47.655  11.308  1.00  0.00     0.168 HD
HETATM   10  N   UNL     1     -38.921 -50.974  11.869  1.00  0.00    -0.337 N 
ATOM     11  HN  UNL     1     -38.487 -51.814  11.488  1.00  0.00     0.168 HD
HETATM   12  C   UNL     1     -38.605 -49.754  11.364  1.00  0.00     0.183 A 
ENDROOT
BRANCH   6  13
HETATM   13  N   UNL     1     -40.144 -52.339  13.377  1.00  0.00    -0.370 N 
HETATM   14  C   UNL     1     -39.701 -52.757  14.702  1.00  0.00     0.151 C 
BRANCH  13  15
HETATM   15  C   UNL     1     -41.016 -53.290  12.627  1.00  0.00     0.126 C 
BRANCH  15  16
HETATM   16  C   UNL     1     -42.450 -52.747  12.498  1.00  0.00     0.055 C 
BRANCH  16  17
HETATM   17  C   UNL     1     -43.586 -53.111  13.505  1.00  0.00     0.224 C 
HETATM   18  N   UNL     1     -44.839 -53.640  12.910  1.00  0.00     0.088 N 
HETATM   19  C   UNL     1     -45.471 -54.629  13.802  1.00  0.00     0.310 C 
HETATM   20  C   UNL     1     -45.811 -52.592  12.562  1.00  0.00     0.272 C 
HETATM   21  C   UNL     1     -46.102 -51.594  13.681  1.00  0.00     0.030 C 
HETATM   22  C   UNL     1     -44.818 -50.988  14.228  1.00  0.00     0.004 C 
HETATM   23  C   UNL     1     -43.823 -52.073  14.612  1.00  0.00     0.036 C 
ENDBRANCH  16  17
ENDBRANCH  15  16
ENDBRANCH  13  15
ENDBRANCH   6  13
BRANCH   2  24
HETATM   24  C   UNL     1     -40.405 -46.157  13.177  1.00  0.00     0.143 C 
BRANCH  24  25
HETATM   25  C   UNL     1     -41.414 -45.536  12.141  1.00  0.00     0.001 C 
HETATM   26  C   UNL     1     -40.978 -45.880  10.695  1.00  0.00     0.039 C 
HETATM   27  C   UNL     1     -39.778 -45.035  10.256  1.00  0.00     0.168 C 
HETATM   28  O   UNL     1     -40.150 -43.663  10.229  1.00  0.00    -0.391 OA
HETATM   29  C   UNL     1     -40.444 -43.165  11.528  1.00  0.00     0.168 C 
HETATM   30  C   UNL     1     -41.538 -43.975  12.213  1.00  0.00     0.039 C 
BRANCH  25  31
HETATM   31  C   UNL     1     -42.832 -46.067  12.469  1.00  0.00     0.175 C 
BRANCH  31  32
HETATM   32  O   UNL     1     -43.439 -45.247  13.470  1.00  0.00    -0.400 OA
HETATM   33  H   UNL     1     -42.743 -44.996  14.114  1.00  0.00     0.209 HD
ENDBRANCH  31  32
ENDBRANCH  25  31
ENDBRANCH  24  25
ENDBRANCH   2  24
TORSDOF 8
ENDMDL
MODEL 6
REMARK VINA RESULT:      -6.3      1.594      2.537
REMARK  8 active torsions:
REMARK  status: ('A' for Active; 'I' for Inactive)
REMARK    1  A    between atoms: N_2  and  C_13 
REMARK    2  A    between atoms: C_6  and  N_14 
REMARK    3  A    between atoms: C_13  and  C_15 
REMARK    4  A    between atoms: N_14  and  C_19 
REMARK    5  A    between atoms: C_15  and  C_23 
REMARK    6  A    between atoms: C_17  and  C_19 
REMARK    7  A    between atoms: C_17  and  C_18 
REMARK    8  A    between atoms: C_23  and  O_24 
ROOT
HETATM    1  C   UNL     1     -41.380 -48.939  12.340  1.00  0.00     0.122 A 
HETATM    2  N   UNL     1     -42.296 -50.954  12.521  1.00  0.00    -0.326 N 
HETATM    3  C   UNL     1     -41.147 -50.297  12.129  1.00  0.00     0.140 A 
HETATM    4  N   UNL     1     -42.656 -48.784  12.866  1.00  0.00    -0.346 N 
ATOM      5  HN  UNL     1     -43.115 -47.906  13.109  1.00  0.00     0.167 HD
HETATM    6  C   UNL     1     -40.348 -47.999  11.987  1.00  0.00     0.135 A 
HETATM    7  C   UNL     1     -43.154 -49.995  12.989  1.00  0.00     0.185 A 
HETATM    8  N   UNL     1     -40.047 -50.848  11.600  1.00  0.00    -0.336 N 
ATOM      9  HN  UNL     1     -39.913 -51.849  11.453  1.00  0.00     0.168 HD
HETATM   10  N   UNL     1     -39.223 -48.551  11.437  1.00  0.00    -0.337 N 
ATOM     11  HN  UNL     1     -38.452 -47.953  11.140  1.00  0.00     0.168 HD
HETATM   12  C   UNL     1     -39.139 -49.897  11.289  1.00  0.00     0.183 A 
ENDROOT
BRANCH   6  13
HETATM   13  N   UNL     1     -40.397 -46.613  12.144  1.00  0.00    -0.370 N 
HETATM   14  C   UNL     1     -40.728 -45.751  11.015  1.00  0.00     0.151 C 
BRANCH  13  15
HETATM   15  C   UNL     1     -40.211 -45.947  13.466  1.00  0.00     0.126 C 
BRANCH  15  16
HETATM   16  C   UNL     1     -38.750 -46.050  13.941  1.00  0.00     0.055 C 
BRANCH  16  17
HETATM   17  C   UNL     1     -38.325 -46.873  15.197  1.00  0.00     0.224 C 
HETATM   18  N   UNL     1     -37.174 -47.793  15.014  1.00  0.00     0.088 N 
HETATM   19  C   UNL     1     -36.379 -47.895  16.252  1.00  0.00     0.310 C 
HETATM   20  C   UNL     1     -37.562 -49.137  14.561  1.00  0.00     0.272 C 
HETATM   21  C   UNL     1     -38.675 -49.790  15.380  1.00  0.00     0.030 C 
HETATM   22  C   UNL     1     -39.889 -48.878  15.489  1.00  0.00     0.004 C 
HETATM   23  C   UNL     1     -39.489 -47.496  15.983  1.00  0.00     0.036 C 
ENDBRANCH  16  17
ENDBRANCH  15  16
ENDBRANCH  13  15
ENDBRANCH   6  13
BRANCH   2  24
HETATM   24  C   UNL     1     -42.586 -52.396  12.448  1.00  0.00     0.143 C 
BRANCH  24  25
HETATM   25  C   UNL     1     -41.926 -53.270  13.578  1.00  0.00     0.001 C 
HETATM   26  C   UNL     1     -42.907 -54.377  14.042  1.00  0.00     0.039 C 
HETATM   27  C   UNL     1     -44.017 -53.806  14.928  1.00  0.00     0.168 C 
HETATM   28  O   UNL     1     -43.447 -53.274  16.118  1.00  0.00    -0.391 OA
HETATM   29  C   UNL     1     -42.623 -52.145  15.855  1.00  0.00     0.168 C 
HETATM   30  C   UNL     1     -41.514 -52.469  14.861  1.00  0.00     0.039 C 
BRANCH  25  31
HETATM   31  C   UNL     1     -40.600 -53.854  13.026  1.00  0.00     0.175 C 
BRANCH  31  32
HETATM   32  O   UNL     1     -40.596 -53.783  11.599  1.00  0.00    -0.400 OA
HETATM   33  H   UNL     1     -41.514 -53.942  11.289  1.00  0.00     0.209 HD
ENDBRANCH  31  32
ENDBRANCH  25  31
ENDBRANCH  24  25
ENDBRANCH   2  24
TORSDOF 8
ENDMDL
MODEL 7
REMARK VINA RESULT:      -6.2      2.384      4.033
REMARK  8 active torsions:
REMARK  status: ('A' for Active; 'I' for Inactive)
REMARK    1  A    between atoms: N_2  and  C_13 
REMARK    2  A    between atoms: C_6  and  N_14 
REMARK    3  A    between atoms: C_13  and  C_15 
REMARK    4  A    between atoms: N_14  and  C_19 
REMARK    5  A    between atoms: C_15  and  C_23 
REMARK    6  A    between atoms: C_17  and  C_19 
REMARK    7  A    between atoms: C_17  and  C_18 
REMARK    8  A    between atoms: C_23  and  O_24 
ROOT
HETATM    1  C   UNL     1     -40.796 -52.125  13.059  1.00  0.00     0.122 A 
HETATM    2  N   UNL     1     -42.731 -53.165  12.726  1.00  0.00    -0.326 N 
HETATM    3  C   UNL     1     -42.090 -51.951  12.572  1.00  0.00     0.140 A 
HETATM    4  N   UNL     1     -40.658 -53.438  13.491  1.00  0.00    -0.346 N 
ATOM      5  HN  UNL     1     -39.829 -53.859  13.911  1.00  0.00     0.167 HD
HETATM    6  C   UNL     1     -39.898 -51.000  13.050  1.00  0.00     0.135 A 
HETATM    7  C   UNL     1     -41.808 -54.029  13.250  1.00  0.00     0.185 A 
HETATM    8  N   UNL     1     -42.623 -50.816  12.098  1.00  0.00    -0.336 N 
ATOM      9  HN  UNL     1     -43.579 -50.722  11.756  1.00  0.00     0.168 HD
HETATM   10  N   UNL     1     -40.434 -49.833  12.577  1.00  0.00    -0.337 N 
ATOM     11  HN  UNL     1     -39.871 -48.983  12.555  1.00  0.00     0.168 HD
HETATM   12  C   UNL     1     -41.718 -49.814  12.137  1.00  0.00     0.183 A 
ENDROOT
BRANCH   6  13
HETATM   13  N   UNL     1     -38.569 -50.994  13.477  1.00  0.00    -0.370 N 
HETATM   14  C   UNL     1     -37.483 -50.850  12.514  1.00  0.00     0.151 C 
BRANCH  13  15
HETATM   15  C   UNL     1     -38.189 -51.038  14.919  1.00  0.00     0.126 C 
BRANCH  15  16
HETATM   16  C   UNL     1     -36.975 -50.135  15.203  1.00  0.00     0.055 C 
BRANCH  16  17
HETATM   17  C   UNL     1     -37.115 -48.661  15.697  1.00  0.00     0.224 C 
HETATM   18  N   UNL     1     -38.165 -48.413  16.717  1.00  0.00     0.088 N 
HETATM   19  C   UNL     1     -37.756 -47.346  17.648  1.00  0.00     0.310 C 
HETATM   20  C   UNL     1     -39.480 -48.092  16.141  1.00  0.00     0.272 C 
HETATM   21  C   UNL     1     -39.460 -46.993  15.080  1.00  0.00     0.030 C 
HETATM   22  C   UNL     1     -38.444 -47.296  13.988  1.00  0.00     0.004 C 
HETATM   23  C   UNL     1     -37.079 -47.602  14.585  1.00  0.00     0.036 C 
ENDBRANCH  16  17
ENDBRANCH  15  16
ENDBRANCH  13  15
ENDBRANCH   6  13
BRANCH   2  24
HETATM   24  C   UNL     1     -44.132 -53.496  12.417  1.00  0.00     0.143 C 
BRANCH  24  25
HETATM   25  C   UNL     1     -45.075 -53.652  13.668  1.00  0.00     0.001 C 
HETATM   26  C   UNL     1     -46.382 -52.848  13.457  1.00  0.00     0.039 C 
HETATM   27  C   UNL     1     -46.150 -51.344  13.635  1.00  0.00     0.168 C 
HETATM   28  O   UNL     1     -45.749 -51.083  14.974  1.00  0.00    -0.391 OA
HETATM   29  C   UNL     1     -44.478 -51.650  15.270  1.00  0.00     0.168 C 
HETATM   30  C   UNL     1     -44.452 -53.152  15.016  1.00  0.00     0.039 C 
BRANCH  25  31
HETATM   31  C   UNL     1     -45.344 -55.163  13.885  1.00  0.00     0.175 C 
BRANCH  31  32
HETATM   32  O   UNL     1     -46.656 -55.351  14.420  1.00  0.00    -0.400 OA
HETATM   33  H   UNL     1     -46.925 -54.512  14.853  1.00  0.00     0.209 HD
ENDBRANCH  31  32
ENDBRANCH  25  31
ENDBRANCH  24  25
ENDBRANCH   2  24
TORSDOF 8
ENDMDL
MODEL 8
REMARK VINA RESULT:      -6.1      2.190      3.702
REMARK  8 active torsions:
REMARK  status: ('A' for Active; 'I' for Inactive)
REMARK    1  A    between atoms: N_2  and  C_13 
REMARK    2  A    between atoms: C_6  and  N_14 
REMARK    3  A    between atoms: C_13  and  C_15 
REMARK    4  A    between atoms: N_14  and  C_19 
REMARK    5  A    between atoms: C_15  and  C_23 
REMARK    6  A    between atoms: C_17  and  C_19 
REMARK    7  A    between atoms: C_17  and  C_18 
REMARK    8  A    between atoms: C_23  and  O_24 
ROOT
HETATM    1  C   UNL     1     -40.058 -51.621  12.829  1.00  0.00     0.122 A 
HETATM    2  N   UNL     1     -41.774 -53.029  12.895  1.00  0.00    -0.326 N 
HETATM    3  C   UNL     1     -40.671 -52.601  13.607  1.00  0.00     0.140 A 
HETATM    4  N   UNL     1     -40.794 -51.454  11.663  1.00  0.00    -0.346 N 
ATOM      5  HN  UNL     1     -40.584 -50.820  10.892  1.00  0.00     0.167 HD
HETATM    6  C   UNL     1     -38.850 -51.008  13.316  1.00  0.00     0.135 A 
HETATM    7  C   UNL     1     -41.815 -52.278  11.751  1.00  0.00     0.185 A 
HETATM    8  N   UNL     1     -40.244 -53.070  14.787  1.00  0.00    -0.336 N 
ATOM      9  HN  UNL     1     -40.716 -53.796  15.328  1.00  0.00     0.168 HD
HETATM   10  N   UNL     1     -38.400 -51.487  14.517  1.00  0.00    -0.337 N 
ATOM     11  HN  UNL     1     -37.539 -51.121  14.924  1.00  0.00     0.168 HD
HETATM   12  C   UNL     1     -39.104 -52.451  15.162  1.00  0.00     0.183 A 
ENDROOT
BRANCH   6  13
HETATM   13  N   UNL     1     -38.114 -50.003  12.686  1.00  0.00    -0.370 N 
HETATM   14  C   UNL     1     -37.377 -50.284  11.459  1.00  0.00     0.151 C 
BRANCH  13  15
HETATM   15  C   UNL     1     -38.111 -48.590  13.164  1.00  0.00     0.126 C 
BRANCH  15  16
HETATM   16  C   UNL     1     -39.496 -47.940  12.993  1.00  0.00     0.055 C 
BRANCH  16  17
HETATM   17  C   UNL     1     -39.959 -47.276  11.658  1.00  0.00     0.224 C 
HETATM   18  N   UNL     1     -40.075 -45.796  11.674  1.00  0.00     0.088 N 
HETATM   19  C   UNL     1     -39.733 -45.225  10.358  1.00  0.00     0.310 C 
HETATM   20  C   UNL     1     -41.400 -45.315  12.094  1.00  0.00     0.272 C 
HETATM   21  C   UNL     1     -42.575 -45.961  11.361  1.00  0.00     0.030 C 
HETATM   22  C   UNL     1     -42.499 -47.479  11.424  1.00  0.00     0.004 C 
HETATM   23  C   UNL     1     -41.137 -47.976  10.965  1.00  0.00     0.036 C 
ENDBRANCH  16  17
ENDBRANCH  15  16
ENDBRANCH  13  15
ENDBRANCH   6  13
BRANCH   2  24
HETATM   24  C   UNL     1     -42.727 -54.093  13.253  1.00  0.00     0.143 C 
BRANCH  24  25
HETATM   25  C   UNL     1     -43.825 -53.683  14.304  1.00  0.00     0.001 C 
HETATM   26  C   UNL     1     -45.240 -53.967  13.738  1.00  0.00     0.039 C 
HETATM   27  C   UNL     1     -45.644 -52.927  12.690  1.00  0.00     0.168 C 
HETATM   28  O   UNL     1     -45.724 -51.645  13.301  1.00  0.00    -0.391 OA
HETATM   29  C   UNL     1     -44.453 -51.187  13.747  1.00  0.00     0.168 C 
HETATM   30  C   UNL     1     -43.800 -52.170  14.711  1.00  0.00     0.039 C 
BRANCH  25  31
HETATM   31  C   UNL     1     -43.551 -54.458  15.617  1.00  0.00     0.175 C 
BRANCH  31  32
HETATM   32  O   UNL     1     -42.371 -55.251  15.476  1.00  0.00    -0.400 OA
HETATM   33  H   UNL     1     -42.367 -55.621  14.568  1.00  0.00     0.209 HD
ENDBRANCH  31  32
ENDBRANCH  25  31
ENDBRANCH  24  25
ENDBRANCH   2  24
TORSDOF 8
ENDMDL
MODEL 9
REMARK VINA RESULT:      -5.9      2.931      6.984
REMARK  8 active torsions:
REMARK  status: ('A' for Active; 'I' for Inactive)
REMARK    1  A    between atoms: N_2  and  C_13 
REMARK    2  A    between atoms: C_6  and  N_14 
REMARK    3  A    between atoms: C_13  and  C_15 
REMARK    4  A    between atoms: N_14  and  C_19 
REMARK    5  A    between atoms: C_15  and  C_23 
REMARK    6  A    between atoms: C_17  and  C_19 
REMARK    7  A    between atoms: C_17  and  C_18 
REMARK    8  A    between atoms: C_23  and  O_24 
ROOT
HETATM    1  C   UNL     1     -42.775 -51.911  12.861  1.00  0.00     0.122 A 
HETATM    2  N   UNL     1     -41.432 -50.486  11.812  1.00  0.00    -0.326 N 
HETATM    3  C   UNL     1     -41.582 -51.817  12.147  1.00  0.00     0.140 A 
HETATM    4  N   UNL     1     -43.343 -50.645  12.944  1.00  0.00    -0.346 N 
ATOM      5  HN  UNL     1     -44.210 -50.394  13.419  1.00  0.00     0.167 HD
HETATM    6  C   UNL     1     -43.177 -53.196  13.369  1.00  0.00     0.135 A 
HETATM    7  C   UNL     1     -42.540 -49.837  12.288  1.00  0.00     0.185 A 
HETATM    8  N   UNL     1     -40.726 -52.814  11.884  1.00  0.00    -0.336 N 
ATOM      9  HN  UNL     1     -39.855 -52.708  11.363  1.00  0.00     0.168 HD
HETATM   10  N   UNL     1     -42.305 -54.219  13.114  1.00  0.00    -0.337 N 
ATOM     11  HN  UNL     1     -42.504 -55.159  13.457  1.00  0.00     0.168 HD
HETATM   12  C   UNL     1     -41.174 -53.977  12.405  1.00  0.00     0.183 A 
ENDROOT
BRANCH   6  13
HETATM   13  N   UNL     1     -44.342 -53.481  14.084  1.00  0.00    -0.370 N 
HETATM   14  C   UNL     1     -45.305 -54.450  13.575  1.00  0.00     0.151 C 
BRANCH  13  15
HETATM   15  C   UNL     1     -44.622 -52.896  15.428  1.00  0.00     0.126 C 
BRANCH  15  16
HETATM   16  C   UNL     1     -43.323 -52.467  16.131  1.00  0.00     0.055 C 
BRANCH  16  17
HETATM   17  C   UNL     1     -42.580 -53.374  17.162  1.00  0.00     0.224 C 
HETATM   18  N   UNL     1     -41.102 -53.235  17.205  1.00  0.00     0.088 N 
HETATM   19  C   UNL     1     -40.592 -53.443  18.572  1.00  0.00     0.310 C 
HETATM   20  C   UNL     1     -40.401 -54.130  16.272  1.00  0.00     0.272 C 
HETATM   21  C   UNL     1     -40.827 -55.595  16.351  1.00  0.00     0.030 C 
HETATM   22  C   UNL     1     -42.336 -55.740  16.216  1.00  0.00     0.004 C 
HETATM   23  C   UNL     1     -43.060 -54.833  17.200  1.00  0.00     0.036 C 
ENDBRANCH  16  17
ENDBRANCH  15  16
ENDBRANCH  13  15
ENDBRANCH   6  13
BRANCH   2  24
HETATM   24  C   UNL     1     -40.309 -49.851  11.102  1.00  0.00     0.143 C 
BRANCH  24  25
HETATM   25  C   UNL     1     -39.298 -49.064  12.017  1.00  0.00     0.001 C 
HETATM   26  C   UNL     1     -37.840 -49.361  11.582  1.00  0.00     0.039 C 
HETATM   27  C   UNL     1     -37.394 -50.754  12.035  1.00  0.00     0.168 C 
HETATM   28  O   UNL     1     -37.392 -50.812  13.456  1.00  0.00    -0.391 OA
HETATM   29  C   UNL     1     -38.702 -50.695  13.996  1.00  0.00     0.168 C 
HETATM   30  C   UNL     1     -39.393 -49.416  13.541  1.00  0.00     0.039 C 
BRANCH  25  31
HETATM   31  C   UNL     1     -39.641 -47.555  11.930  1.00  0.00     0.175 C 
BRANCH  31  32
HETATM   32  O   UNL     1     -40.156 -47.248  10.633  1.00  0.00    -0.400 OA
HETATM   33  H   UNL     1     -40.406 -46.299  10.628  1.00  0.00     0.209 HD
ENDBRANCH  31  32
ENDBRANCH  25  31
ENDBRANCH  24  25
ENDBRANCH   2  24
TORSDOF 8
ENDMDL
