MODEL 1
REMARK VINA RESULT:      -6.6      0.000      0.000
REMARK  6 active torsions:
REMARK  status: ('A' for Active; 'I' for Inactive)
REMARK    1  A    between atoms: N_8  and  C_9 
REMARK    2  A    between atoms: C_9  and  C_10 
REMARK    3  A    between atoms: C_10  and  O_11 
REMARK    4  A    between atoms: C_10  and  C_12 
REMARK    5  A    between atoms: C_12  and  N_13 
REMARK    6  A    between atoms: C_18  and  S_19 
ROOT
HETATM    1  C   UNL     1     -42.552 -48.645  11.861  1.00  0.00     0.154 C 
ENDROOT
BRANCH   1   2
HETATM    2  C   UNL     1     -41.545 -49.609  12.518  1.00  0.00     0.163 C 
BRANCH   2   3
HETATM    3  N   UNL     1     -41.910 -51.009  12.431  1.00  0.00    -0.339 N 
HETATM    4  C   UNL     1     -41.149 -51.990  11.858  1.00  0.00     0.184 A 
HETATM    5  N   UNL     1     -41.706 -53.171  11.987  1.00  0.00    -0.350 N 
HETATM    6  C   UNL     1     -42.889 -52.943  12.647  1.00  0.00     0.060 A 
ATOM      7  HN  UNL     1     -41.339 -54.067  11.665  1.00  0.00     0.166 HD
HETATM    8  C   UNL     1     -43.871 -53.854  13.061  1.00  0.00     0.039 A 
HETATM    9  C   UNL     1     -43.061 -51.589  12.908  1.00  0.00     0.062 A 
HETATM   10  C   UNL     1     -45.018 -53.386  13.734  1.00  0.00    -0.054 A 
HETATM   11  C   UNL     1     -46.047 -54.385  14.192  1.00  0.00     0.049 C 
HETATM   12  C   UNL     1     -45.178 -52.005  13.977  1.00  0.00    -0.054 A 
HETATM   13  C   UNL     1     -44.199 -51.085  13.552  1.00  0.00     0.039 A 
HETATM   14  C   UNL     1     -46.388 -51.482  14.709  1.00  0.00     0.049 C 
ENDBRANCH   2   3
ENDBRANCH   1   2
BRANCH   1  15
HETATM   15  O   UNL     1     -43.133 -47.779  12.841  1.00  0.00    -0.392 OA
HETATM   16  H   UNL     1     -42.962 -46.848  12.591  1.00  0.00     0.210 HD
ENDBRANCH   1  15
BRANCH   1  17
HETATM   17  C   UNL     1     -41.965 -47.850  10.683  1.00  0.00     0.164 C 
BRANCH  17  18
HETATM   18  N   UNL     1     -42.946 -47.008  10.010  1.00  0.00    -0.330 N 
HETATM   19  C   UNL     1     -43.898 -47.448   9.128  1.00  0.00     0.110 A 
HETATM   20  C   UNL     1     -44.614 -46.329   8.779  1.00  0.00     0.107 A 
HETATM   21  N   UNL     1     -44.097 -45.214   9.381  1.00  0.00    -0.342 N 
HETATM   22  C   UNL     1     -43.080 -45.643  10.115  1.00  0.00     0.204 A 
ATOM     23  HN  UNL     1     -44.425 -44.253   9.284  1.00  0.00     0.167 HD
BRANCH  22  24
HETATM   24  S   UNL     1     -42.033 -44.604  11.092  1.00  0.00     0.203 S 
HETATM   25  O   UNL     1     -42.132 -45.151  12.433  1.00  0.00    -0.220 OA
HETATM   26  O   UNL     1     -40.774 -44.569  10.375  1.00  0.00    -0.220 OA
HETATM   27  C   UNL     1     -42.801 -43.008  11.031  1.00  0.00     0.170 C 
ENDBRANCH  22  24
ENDBRANCH  17  18
ENDBRANCH   1  17
TORSDOF 6
ENDMDL
MODEL 2
REMARK VINA RESULT:      -6.6      2.186      3.155
REMARK  6 active torsions:
REMARK  status: ('A' for Active; 'I' for Inactive)
REMARK    1  A    between atoms: N_8  and  C_9 
REMARK    2  A    between atoms: C_9  and  C_10 
REMARK    3  A    between atoms: C_10  and  O_11 
REMARK    4  A    between atoms: C_10  and  C_12 
REMARK    5  A    between atoms: C_12  and  N_13 
REMARK    6  A    between atoms: C_18  and  S_19 
ROOT
HETATM    1  C   UNL     1     -40.803 -49.823  11.471  1.00  0.00     0.154 C 
ENDROOT
BRANCH   1   2
HETATM    2  C   UNL     1     -41.324 -51.137  12.083  1.00  0.00     0.163 C 
BRANCH   2   3
HETATM    3  N   UNL     1     -41.931 -50.990  13.391  1.00  0.00    -0.339 N 
HETATM    4  C   UNL     1     -41.271 -50.631  14.533  1.00  0.00     0.184 A 
HETATM    5  N   UNL     1     -42.093 -50.515  15.550  1.00  0.00    -0.350 N 
HETATM    6  C   UNL     1     -43.332 -50.837  15.052  1.00  0.00     0.060 A 
ATOM      7  HN  UNL     1     -41.861 -50.244  16.505  1.00  0.00     0.166 HD
HETATM    8  C   UNL     1     -44.576 -50.860  15.699  1.00  0.00     0.039 A 
HETATM    9  C   UNL     1     -43.257 -51.174  13.707  1.00  0.00     0.062 A 
HETATM   10  C   UNL     1     -45.731 -51.225  14.977  1.00  0.00    -0.054 A 
HETATM   11  C   UNL     1     -47.060 -51.218  15.685  1.00  0.00     0.049 C 
HETATM   12  C   UNL     1     -45.628 -51.577  13.614  1.00  0.00    -0.054 A 
HETATM   13  C   UNL     1     -44.378 -51.566  12.964  1.00  0.00     0.039 A 
HETATM   14  C   UNL     1     -46.852 -51.956  12.817  1.00  0.00     0.049 C 
ENDBRANCH   2   3
ENDBRANCH   1   2
BRANCH   1  15
HETATM   15  O   UNL     1     -40.107 -50.079  10.247  1.00  0.00    -0.392 OA
HETATM   16  H   UNL     1     -40.448 -49.481   9.550  1.00  0.00     0.210 HD
ENDBRANCH   1  15
BRANCH   1  17
HETATM   17  C   UNL     1     -41.894 -48.754  11.287  1.00  0.00     0.164 C 
BRANCH  17  18
HETATM   18  N   UNL     1     -41.363 -47.446  10.919  1.00  0.00    -0.330 N 
HETATM   19  C   UNL     1     -40.169 -46.927  11.344  1.00  0.00     0.110 A 
HETATM   20  C   UNL     1     -40.065 -45.705  10.725  1.00  0.00     0.107 A 
HETATM   21  N   UNL     1     -41.181 -45.442   9.977  1.00  0.00    -0.342 N 
HETATM   22  C   UNL     1     -41.962 -46.504  10.114  1.00  0.00     0.204 A 
ATOM     23  HN  UNL     1     -41.372 -44.604   9.428  1.00  0.00     0.167 HD
BRANCH  22  24
HETATM   24  S   UNL     1     -43.557 -46.685   9.372  1.00  0.00     0.203 S 
HETATM   25  O   UNL     1     -44.354 -47.349  10.388  1.00  0.00    -0.220 OA
HETATM   26  O   UNL     1     -43.891 -45.361   8.888  1.00  0.00    -0.220 OA
HETATM   27  C   UNL     1     -43.294 -47.775   8.000  1.00  0.00     0.170 C 
ENDBRANCH  22  24
ENDBRANCH  17  18
ENDBRANCH   1  17
TORSDOF 6
ENDMDL
MODEL 3
REMARK VINA RESULT:      -6.5      2.157      2.921
REMARK  6 active torsions:
REMARK  status: ('A' for Active; 'I' for Inactive)
REMARK    1  A    between atoms: N_8  and  C_9 
REMARK    2  A    between atoms: C_9  and  C_10 
REMARK    3  A    between atoms: C_10  and  O_11 
REMARK    4  A    between atoms: C_10  and  C_12 
REMARK    5  A    between atoms: C_12  and  N_13 
REMARK    6  A    between atoms: C_18  and  S_19 
ROOT
HETATM    1  C   UNL     1     -40.286 -49.989  11.523  1.00  0.00     0.154 C 
ENDROOT
BRANCH   1   2
HETATM    2  C   UNL     1     -41.655 -50.172  12.206  1.00  0.00     0.163 C 
BRANCH   2   3
HETATM    3  N   UNL     1     -42.036 -51.553  12.423  1.00  0.00    -0.339 N 
HETATM    4  C   UNL     1     -41.253 -52.642  12.153  1.00  0.00     0.184 A 
HETATM    5  N   UNL     1     -41.839 -53.759  12.515  1.00  0.00    -0.350 N 
HETATM    6  C   UNL     1     -43.061 -53.383  13.017  1.00  0.00     0.060 A 
ATOM      7  HN  UNL     1     -41.466 -54.706  12.440  1.00  0.00     0.166 HD
HETATM    8  C   UNL     1     -44.085 -54.170  13.561  1.00  0.00     0.039 A 
HETATM    9  C   UNL     1     -43.228 -52.005  12.939  1.00  0.00     0.062 A 
HETATM   10  C   UNL     1     -45.268 -53.557  14.021  1.00  0.00    -0.054 A 
HETATM   11  C   UNL     1     -46.344 -54.420  14.625  1.00  0.00     0.049 C 
HETATM   12  C   UNL     1     -45.421 -52.157  13.920  1.00  0.00    -0.054 A 
HETATM   13  C   UNL     1     -44.399 -51.364  13.363  1.00  0.00     0.039 A 
HETATM   14  C   UNL     1     -46.671 -51.476  14.420  1.00  0.00     0.049 C 
ENDBRANCH   2   3
ENDBRANCH   1   2
BRANCH   1  15
HETATM   15  O   UNL     1     -40.441 -49.891  10.103  1.00  0.00    -0.392 OA
HETATM   16  H   UNL     1     -40.873 -50.704   9.769  1.00  0.00     0.210 HD
ENDBRANCH   1  15
BRANCH   1  17
HETATM   17  C   UNL     1     -39.471 -48.811  12.083  1.00  0.00     0.164 C 
BRANCH  17  18
HETATM   18  N   UNL     1     -40.252 -47.923  12.936  1.00  0.00    -0.330 N 
HETATM   19  C   UNL     1     -40.420 -48.067  14.288  1.00  0.00     0.110 A 
HETATM   20  C   UNL     1     -41.189 -46.996  14.673  1.00  0.00     0.107 A 
HETATM   21  N   UNL     1     -41.538 -46.233  13.591  1.00  0.00    -0.342 N 
HETATM   22  C   UNL     1     -40.969 -46.816  12.545  1.00  0.00     0.204 A 
ATOM     23  HN  UNL     1     -42.114 -45.392  13.590  1.00  0.00     0.167 HD
BRANCH  22  24
HETATM   24  S   UNL     1     -41.116 -46.253  10.875  1.00  0.00     0.203 S 
HETATM   25  O   UNL     1     -39.758 -45.920  10.486  1.00  0.00    -0.220 OA
HETATM   26  O   UNL     1     -41.868 -47.292  10.200  1.00  0.00    -0.220 OA
HETATM   27  C   UNL     1     -42.095 -44.780  10.981  1.00  0.00     0.170 C 
ENDBRANCH  22  24
ENDBRANCH  17  18
ENDBRANCH   1  17
TORSDOF 6
ENDMDL
MODEL 4
REMARK VINA RESULT:      -6.2      3.439      4.501
REMARK  6 active torsions:
REMARK  status: ('A' for Active; 'I' for Inactive)
REMARK    1  A    between atoms: N_8  and  C_9 
REMARK    2  A    between atoms: C_9  and  C_10 
REMARK    3  A    between atoms: C_10  and  O_11 
REMARK    4  A    between atoms: C_10  and  C_12 
REMARK    5  A    between atoms: C_12  and  N_13 
REMARK    6  A    between atoms: C_18  and  S_19 
ROOT
HETATM    1  C   UNL     1     -40.261 -49.942  11.511  1.00  0.00     0.154 C 
ENDROOT
BRANCH   1   2
HETATM    2  C   UNL     1     -41.630 -50.131  12.192  1.00  0.00     0.163 C 
BRANCH   2   3
HETATM    3  N   UNL     1     -42.010 -51.514  12.402  1.00  0.00    -0.339 N 
HETATM    4  C   UNL     1     -41.227 -52.600  12.125  1.00  0.00     0.184 A 
HETATM    5  N   UNL     1     -41.811 -53.720  12.482  1.00  0.00    -0.350 N 
HETATM    6  C   UNL     1     -43.033 -53.347  12.986  1.00  0.00     0.060 A 
ATOM      7  HN  UNL     1     -41.437 -54.666  12.401  1.00  0.00     0.166 HD
HETATM    8  C   UNL     1     -44.056 -54.139  13.527  1.00  0.00     0.039 A 
HETATM    9  C   UNL     1     -43.201 -51.969  12.917  1.00  0.00     0.062 A 
HETATM   10  C   UNL     1     -45.239 -53.528  13.991  1.00  0.00    -0.054 A 
HETATM   11  C   UNL     1     -46.314 -54.396  14.592  1.00  0.00     0.049 C 
HETATM   12  C   UNL     1     -45.394 -52.128  13.899  1.00  0.00    -0.054 A 
HETATM   13  C   UNL     1     -44.372 -51.331  13.345  1.00  0.00     0.039 A 
HETATM   14  C   UNL     1     -46.643 -51.451  14.403  1.00  0.00     0.049 C 
ENDBRANCH   2   3
ENDBRANCH   1   2
BRANCH   1  15
HETATM   15  O   UNL     1     -40.412 -49.867  10.090  1.00  0.00    -0.392 OA
HETATM   16  H   UNL     1     -39.946 -49.073   9.757  1.00  0.00     0.210 HD
ENDBRANCH   1  15
BRANCH   1  17
HETATM   17  C   UNL     1     -39.460 -48.748  12.057  1.00  0.00     0.164 C 
BRANCH  17  18
HETATM   18  N   UNL     1     -38.669 -49.077  13.237  1.00  0.00    -0.330 N 
HETATM   19  C   UNL     1     -37.953 -50.231  13.417  1.00  0.00     0.110 A 
HETATM   20  C   UNL     1     -37.344 -50.093  14.640  1.00  0.00     0.107 A 
HETATM   21  N   UNL     1     -37.706 -48.914  15.234  1.00  0.00    -0.342 N 
HETATM   22  C   UNL     1     -38.518 -48.315  14.374  1.00  0.00     0.204 A 
ATOM     23  HN  UNL     1     -37.413 -48.568  16.147  1.00  0.00     0.167 HD
BRANCH  22  24
HETATM   24  S   UNL     1     -39.305 -46.755  14.649  1.00  0.00     0.203 S 
HETATM   25  O   UNL     1     -38.668 -45.858  13.703  1.00  0.00    -0.220 OA
HETATM   26  O   UNL     1     -40.725 -47.043  14.588  1.00  0.00    -0.220 OA
HETATM   27  C   UNL     1     -38.856 -46.311  16.304  1.00  0.00     0.170 C 
ENDBRANCH  22  24
ENDBRANCH  17  18
ENDBRANCH   1  17
TORSDOF 6
ENDMDL
MODEL 5
REMARK VINA RESULT:      -6.2      1.928      2.365
REMARK  6 active torsions:
REMARK  status: ('A' for Active; 'I' for Inactive)
REMARK    1  A    between atoms: N_8  and  C_9 
REMARK    2  A    between atoms: C_9  and  C_10 
REMARK    3  A    between atoms: C_10  and  O_11 
REMARK    4  A    between atoms: C_10  and  C_12 
REMARK    5  A    between atoms: C_12  and  N_13 
REMARK    6  A    between atoms: C_18  and  S_19 
ROOT
HETATM    1  C   UNL     1     -42.187 -47.773  11.212  1.00  0.00     0.154 C 
ENDROOT
BRANCH   1   2
HETATM    2  C   UNL     1     -42.153 -48.569  12.530  1.00  0.00     0.163 C 
BRANCH   2   3
HETATM    3  N   UNL     1     -42.159 -50.008  12.362  1.00  0.00    -0.339 N 
HETATM    4  C   UNL     1     -41.150 -50.744  11.804  1.00  0.00     0.184 A 
HETATM    5  N   UNL     1     -41.408 -52.029  11.847  1.00  0.00    -0.350 N 
HETATM    6  C   UNL     1     -42.646 -52.131  12.433  1.00  0.00     0.060 A 
ATOM      7  HN  UNL     1     -40.816 -52.791  11.515  1.00  0.00     0.166 HD
HETATM    8  C   UNL     1     -43.398 -53.274  12.743  1.00  0.00     0.039 A 
HETATM    9  C   UNL     1     -43.159 -50.875  12.736  1.00  0.00     0.062 A 
HETATM   10  C   UNL     1     -44.660 -53.134  13.354  1.00  0.00    -0.054 A 
HETATM   11  C   UNL     1     -45.438 -54.376  13.700  1.00  0.00     0.049 C 
HETATM   12  C   UNL     1     -45.167 -51.848  13.640  1.00  0.00    -0.054 A 
HETATM   13  C   UNL     1     -44.419 -50.697  13.320  1.00  0.00     0.039 A 
HETATM   14  C   UNL     1     -46.508 -51.674  14.308  1.00  0.00     0.049 C 
ENDBRANCH   2   3
ENDBRANCH   1   2
BRANCH   1  15
HETATM   15  O   UNL     1     -43.105 -48.366  10.289  1.00  0.00    -0.392 OA
HETATM   16  H   UNL     1     -42.969 -47.976   9.401  1.00  0.00     0.210 HD
ENDBRANCH   1  15
BRANCH   1  17
HETATM   17  C   UNL     1     -42.470 -46.273  11.404  1.00  0.00     0.164 C 
BRANCH  17  18
HETATM   18  N   UNL     1     -41.344 -45.422  11.038  1.00  0.00    -0.330 N 
HETATM   19  C   UNL     1     -40.079 -45.861  10.750  1.00  0.00     0.110 A 
HETATM   20  C   UNL     1     -39.368 -44.731  10.428  1.00  0.00     0.107 A 
HETATM   21  N   UNL     1     -40.147 -43.612  10.560  1.00  0.00    -0.342 N 
HETATM   22  C   UNL     1     -41.339 -44.050  10.941  1.00  0.00     0.204 A 
ATOM     23  HN  UNL     1     -39.868 -42.644  10.400  1.00  0.00     0.167 HD
BRANCH  22  24
HETATM   24  S   UNL     1     -42.730 -43.013  11.284  1.00  0.00     0.203 S 
HETATM   25  O   UNL     1     -43.646 -43.263  10.186  1.00  0.00    -0.220 OA
HETATM   26  O   UNL     1     -43.086 -43.315  12.656  1.00  0.00    -0.220 OA
HETATM   27  C   UNL     1     -42.097 -41.361  11.180  1.00  0.00     0.170 C 
ENDBRANCH  22  24
ENDBRANCH  17  18
ENDBRANCH   1  17
TORSDOF 6
ENDMDL
MODEL 6
REMARK VINA RESULT:      -6.2      1.608      2.263
REMARK  6 active torsions:
REMARK  status: ('A' for Active; 'I' for Inactive)
REMARK    1  A    between atoms: N_8  and  C_9 
REMARK    2  A    between atoms: C_9  and  C_10 
REMARK    3  A    between atoms: C_10  and  O_11 
REMARK    4  A    between atoms: C_10  and  C_12 
REMARK    5  A    between atoms: C_12  and  N_13 
REMARK    6  A    between atoms: C_18  and  S_19 
ROOT
HETATM    1  C   UNL     1     -42.492 -49.027  11.871  1.00  0.00     0.154 C 
ENDROOT
BRANCH   1   2
HETATM    2  C   UNL     1     -41.715 -49.983  12.797  1.00  0.00     0.163 C 
BRANCH   2   3
HETATM    3  N   UNL     1     -42.154 -51.363  12.738  1.00  0.00    -0.339 N 
HETATM    4  C   UNL     1     -41.444 -52.397  12.192  1.00  0.00     0.184 A 
HETATM    5  N   UNL     1     -42.065 -53.543  12.344  1.00  0.00    -0.350 N 
HETATM    6  C   UNL     1     -43.237 -53.237  12.991  1.00  0.00     0.060 A 
ATOM      7  HN  UNL     1     -41.746 -54.464  12.045  1.00  0.00     0.166 HD
HETATM    8  C   UNL     1     -44.269 -54.084  13.419  1.00  0.00     0.039 A 
HETATM    9  C   UNL     1     -43.338 -51.870  13.221  1.00  0.00     0.062 A 
HETATM   10  C   UNL     1     -45.393 -53.539  14.074  1.00  0.00    -0.054 A 
HETATM   11  C   UNL     1     -46.477 -54.472  14.548  1.00  0.00     0.049 C 
HETATM   12  C   UNL     1     -45.480 -52.147  14.285  1.00  0.00    -0.054 A 
HETATM   13  C   UNL     1     -44.450 -51.291  13.846  1.00  0.00     0.039 A 
HETATM   14  C   UNL     1     -46.664 -51.543  14.998  1.00  0.00     0.049 C 
ENDBRANCH   2   3
ENDBRANCH   1   2
BRANCH   1  15
HETATM   15  O   UNL     1     -42.977 -47.899  12.606  1.00  0.00    -0.392 OA
HETATM   16  H   UNL     1     -42.507 -47.845  13.463  1.00  0.00     0.210 HD
ENDBRANCH   1  15
BRANCH   1  17
HETATM   17  C   UNL     1     -41.698 -48.592  10.628  1.00  0.00     0.164 C 
BRANCH  17  18
HETATM   18  N   UNL     1     -41.309 -47.187  10.656  1.00  0.00    -0.330 N 
HETATM   19  C   UNL     1     -40.175 -46.689  11.241  1.00  0.00     0.110 A 
HETATM   20  C   UNL     1     -40.202 -45.338  10.991  1.00  0.00     0.107 A 
HETATM   21  N   UNL     1     -41.342 -44.991  10.318  1.00  0.00    -0.342 N 
HETATM   22  C   UNL     1     -42.006 -46.122  10.131  1.00  0.00     0.204 A 
ATOM     23  HN  UNL     1     -41.622 -44.056  10.021  1.00  0.00     0.167 HD
BRANCH  22  24
HETATM   24  S   UNL     1     -43.576 -46.249   9.326  1.00  0.00     0.203 S 
HETATM   25  O   UNL     1     -44.428 -46.909  10.299  1.00  0.00    -0.220 OA
HETATM   26  O   UNL     1     -43.858 -44.908   8.854  1.00  0.00    -0.220 OA
HETATM   27  C   UNL     1     -43.288 -47.322   7.946  1.00  0.00     0.170 C 
ENDBRANCH  22  24
ENDBRANCH  17  18
ENDBRANCH   1  17
TORSDOF 6
ENDMDL
MODEL 7
REMARK VINA RESULT:      -6.1      2.995      4.416
REMARK  6 active torsions:
REMARK  status: ('A' for Active; 'I' for Inactive)
REMARK    1  A    between atoms: N_8  and  C_9 
REMARK    2  A    between atoms: C_9  and  C_10 
REMARK    3  A    between atoms: C_10  and  O_11 
REMARK    4  A    between atoms: C_10  and  C_12 
REMARK    5  A    between atoms: C_12  and  N_13 
REMARK    6  A    between atoms: C_18  and  S_19 
ROOT
HETATM    1  C   UNL     1     -41.660 -51.956  12.731  1.00  0.00     0.154 C 
ENDROOT
BRANCH   1   2
HETATM    2  C   UNL     1     -42.185 -53.051  13.680  1.00  0.00     0.163 C 
BRANCH   2   3
HETATM    3  N   UNL     1     -43.629 -53.166  13.722  1.00  0.00    -0.339 N 
HETATM    4  C   UNL     1     -44.377 -54.024  12.964  1.00  0.00     0.184 A 
HETATM    5  N   UNL     1     -45.652 -53.951  13.267  1.00  0.00    -0.350 N 
HETATM    6  C   UNL     1     -45.737 -52.988  14.242  1.00  0.00     0.060 A 
ATOM      7  HN  UNL     1     -46.415 -54.493  12.864  1.00  0.00     0.166 HD
HETATM    8  C   UNL     1     -46.860 -52.518  14.939  1.00  0.00     0.039 A 
HETATM    9  C   UNL     1     -44.487 -52.451  14.524  1.00  0.00     0.062 A 
HETATM   10  C   UNL     1     -46.706 -51.510  15.913  1.00  0.00    -0.054 A 
HETATM   11  C   UNL     1     -47.923 -51.040  16.666  1.00  0.00     0.049 C 
HETATM   12  C   UNL     1     -45.429 -50.970  16.173  1.00  0.00    -0.054 A 
HETATM   13  C   UNL     1     -44.300 -51.431  15.466  1.00  0.00     0.039 A 
HETATM   14  C   UNL     1     -45.237 -49.903  17.221  1.00  0.00     0.049 C 
ENDBRANCH   2   3
ENDBRANCH   1   2
BRANCH   1  15
HETATM   15  O   UNL     1     -42.722 -51.439  11.923  1.00  0.00    -0.392 OA
HETATM   16  H   UNL     1     -43.580 -51.658  12.340  1.00  0.00     0.210 HD
ENDBRANCH   1  15
BRANCH   1  17
HETATM   17  C   UNL     1     -40.898 -50.831  13.450  1.00  0.00     0.164 C 
BRANCH  17  18
HETATM   18  N   UNL     1     -39.795 -50.288  12.666  1.00  0.00    -0.330 N 
HETATM   19  C   UNL     1     -38.552 -50.852  12.550  1.00  0.00     0.110 A 
HETATM   20  C   UNL     1     -37.860 -50.029  11.695  1.00  0.00     0.107 A 
HETATM   21  N   UNL     1     -38.625 -48.954  11.328  1.00  0.00    -0.342 N 
HETATM   22  C   UNL     1     -39.791 -49.123  11.934  1.00  0.00     0.204 A 
ATOM     23  HN  UNL     1     -38.354 -48.185  10.716  1.00  0.00     0.167 HD
BRANCH  22  24
HETATM   24  S   UNL     1     -41.155 -48.001  11.825  1.00  0.00     0.203 S 
HETATM   25  O   UNL     1     -42.132 -48.701  11.010  1.00  0.00    -0.220 OA
HETATM   26  O   UNL     1     -41.436 -47.626  13.197  1.00  0.00    -0.220 OA
HETATM   27  C   UNL     1     -40.518 -46.604  10.941  1.00  0.00     0.170 C 
ENDBRANCH  22  24
ENDBRANCH  17  18
ENDBRANCH   1  17
TORSDOF 6
ENDMDL
MODEL 8
REMARK VINA RESULT:      -6.1      3.026      3.456
REMARK  6 active torsions:
REMARK  status: ('A' for Active; 'I' for Inactive)
REMARK    1  A    between atoms: N_8  and  C_9 
REMARK    2  A    between atoms: C_9  and  C_10 
REMARK    3  A    between atoms: C_10  and  O_11 
REMARK    4  A    between atoms: C_10  and  C_12 
REMARK    5  A    between atoms: C_12  and  N_13 
REMARK    6  A    between atoms: C_18  and  S_19 
ROOT
HETATM    1  C   UNL     1     -39.999 -50.085  11.404  1.00  0.00     0.154 C 
ENDROOT
BRANCH   1   2
HETATM    2  C   UNL     1     -41.177 -50.269  12.379  1.00  0.00     0.163 C 
BRANCH   2   3
HETATM    3  N   UNL     1     -41.639 -51.637  12.511  1.00  0.00    -0.339 N 
HETATM    4  C   UNL     1     -40.904 -52.752  12.216  1.00  0.00     0.184 A 
HETATM    5  N   UNL     1     -41.562 -53.852  12.497  1.00  0.00    -0.350 N 
HETATM    6  C   UNL     1     -42.783 -53.434  12.968  1.00  0.00     0.060 A 
ATOM      7  HN  UNL     1     -41.236 -54.812  12.388  1.00  0.00     0.166 HD
HETATM    8  C   UNL     1     -43.869 -54.191  13.430  1.00  0.00     0.039 A 
HETATM    9  C   UNL     1     -42.874 -52.048  12.955  1.00  0.00     0.062 A 
HETATM   10  C   UNL     1     -45.037 -53.536  13.873  1.00  0.00    -0.054 A 
HETATM   11  C   UNL     1     -46.181 -54.369  14.389  1.00  0.00     0.049 C 
HETATM   12  C   UNL     1     -45.112 -52.127  13.838  1.00  0.00    -0.054 A 
HETATM   13  C   UNL     1     -44.027 -51.365  13.364  1.00  0.00     0.039 A 
HETATM   14  C   UNL     1     -46.344 -51.405  14.322  1.00  0.00     0.049 C 
ENDBRANCH   2   3
ENDBRANCH   1   2
BRANCH   1  15
HETATM   15  O   UNL     1     -40.474 -49.920  10.065  1.00  0.00    -0.392 OA
HETATM   16  H   UNL     1     -41.449 -49.832  10.077  1.00  0.00     0.210 HD
ENDBRANCH   1  15
BRANCH   1  17
HETATM   17  C   UNL     1     -39.038 -48.953  11.806  1.00  0.00     0.164 C 
BRANCH  17  18
HETATM   18  N   UNL     1     -39.715 -47.686  12.060  1.00  0.00    -0.330 N 
HETATM   19  C   UNL     1     -40.438 -46.974  11.140  1.00  0.00     0.110 A 
HETATM   20  C   UNL     1     -40.917 -45.883  11.822  1.00  0.00     0.107 A 
HETATM   21  N   UNL     1     -40.468 -45.881  13.115  1.00  0.00    -0.342 N 
HETATM   22  C   UNL     1     -39.732 -46.977  13.239  1.00  0.00     0.204 A 
ATOM     23  HN  UNL     1     -40.659 -45.183  13.834  1.00  0.00     0.167 HD
BRANCH  22  24
HETATM   24  S   UNL     1     -38.882 -47.459  14.714  1.00  0.00     0.203 S 
HETATM   25  O   UNL     1     -39.512 -48.708  15.101  1.00  0.00    -0.220 OA
HETATM   26  O   UNL     1     -37.476 -47.390  14.368  1.00  0.00    -0.220 OA
HETATM   27  C   UNL     1     -39.271 -46.193  15.891  1.00  0.00     0.170 C 
ENDBRANCH  22  24
ENDBRANCH  17  18
ENDBRANCH   1  17
TORSDOF 6
ENDMDL
MODEL 9
REMARK VINA RESULT:      -6.1      4.133      7.585
REMARK  6 active torsions:
REMARK  status: ('A' for Active; 'I' for Inactive)
REMARK    1  A    between atoms: N_8  and  C_9 
REMARK    2  A    between atoms: C_9  and  C_10 
REMARK    3  A    between atoms: C_10  and  O_11 
REMARK    4  A    between atoms: C_10  and  C_12 
REMARK    5  A    between atoms: C_12  and  N_13 
REMARK    6  A    between atoms: C_18  and  S_19 
ROOT
HETATM    1  C   UNL     1     -42.045 -52.064  12.524  1.00  0.00     0.154 C 
ENDROOT
BRANCH   1   2
HETATM    2  C   UNL     1     -40.567 -51.900  12.120  1.00  0.00     0.163 C 
BRANCH   2   3
HETATM    3  N   UNL     1     -40.024 -50.577  12.353  1.00  0.00    -0.339 N 
HETATM    4  C   UNL     1     -38.948 -50.291  13.148  1.00  0.00     0.184 A 
HETATM    5  N   UNL     1     -38.648 -49.015  13.113  1.00  0.00    -0.350 N 
HETATM    6  C   UNL     1     -39.582 -48.444  12.284  1.00  0.00     0.060 A 
ATOM      7  HN  UNL     1     -37.883 -48.546  13.600  1.00  0.00     0.166 HD
HETATM    8  C   UNL     1     -39.721 -47.109  11.879  1.00  0.00     0.039 A 
HETATM    9  C   UNL     1     -40.482 -49.395  11.819  1.00  0.00     0.062 A 
HETATM   10  C   UNL     1     -40.770 -46.750  11.008  1.00  0.00    -0.054 A 
HETATM   11  C   UNL     1     -40.885 -45.315  10.566  1.00  0.00     0.049 C 
HETATM   12  C   UNL     1     -41.681 -47.730  10.559  1.00  0.00    -0.054 A 
HETATM   13  C   UNL     1     -41.551 -49.071  10.974  1.00  0.00     0.039 A 
HETATM   14  C   UNL     1     -42.801 -47.373   9.615  1.00  0.00     0.049 C 
ENDBRANCH   2   3
ENDBRANCH   1   2
BRANCH   1  15
HETATM   15  O   UNL     1     -42.759 -52.804  11.530  1.00  0.00    -0.392 OA
HETATM   16  H   UNL     1     -42.666 -53.762  11.711  1.00  0.00     0.210 HD
ENDBRANCH   1  15
BRANCH   1  17
HETATM   17  C   UNL     1     -42.238 -52.668  13.925  1.00  0.00     0.164 C 
BRANCH  17  18
HETATM   18  N   UNL     1     -43.430 -52.177  14.606  1.00  0.00    -0.330 N 
HETATM   19  C   UNL     1     -43.529 -50.982  15.269  1.00  0.00     0.110 A 
HETATM   20  C   UNL     1     -44.826 -50.923  15.715  1.00  0.00     0.107 A 
HETATM   21  N   UNL     1     -45.506 -52.066  15.390  1.00  0.00    -0.342 N 
HETATM   22  C   UNL     1     -44.641 -52.819  14.726  1.00  0.00     0.204 A 
ATOM     23  HN  UNL     1     -46.476 -52.291  15.612  1.00  0.00     0.167 HD
BRANCH  22  24
HETATM   24  S   UNL     1     -44.990 -54.431  14.088  1.00  0.00     0.203 S 
HETATM   25  O   UNL     1     -44.940 -54.267  12.647  1.00  0.00    -0.220 OA
HETATM   26  O   UNL     1     -44.075 -55.311  14.787  1.00  0.00    -0.220 OA
HETATM   27  C   UNL     1     -46.653 -54.768  14.602  1.00  0.00     0.170 C 
ENDBRANCH  22  24
ENDBRANCH  17  18
ENDBRANCH   1  17
TORSDOF 6
ENDMDL
