MODEL 1
REMARK VINA RESULT:      -6.1      0.000      0.000
REMARK  4 active torsions:
REMARK  status: ('A' for Active; 'I' for Inactive)
REMARK    1  A    between atoms: C_6  and  O_8 
REMARK    2  A    between atoms: O_8  and  C_9 
REMARK    3  A    between atoms: C_9  and  C_10 
REMARK       I    between atoms: C_10  and  N_12 
REMARK    4  A    between atoms: N_12  and  C_13 
ROOT
HETATM    1  C   UNL     1     -40.815 -52.878  13.577  1.00  0.00     0.245 C 
HETATM    2  O   UNL     1     -40.367 -53.683  12.763  1.00  0.00    -0.271 OA
HETATM    3  N   UNL     1     -40.393 -51.570  13.732  1.00  0.00    -0.324 N 
HETATM    4  H   UNL     1     -41.090 -50.951  14.135  1.00  0.00     0.169 HD
ENDROOT
BRANCH   1   5
HETATM    5  C   UNL     1     -41.909 -53.286  14.554  1.00  0.00     0.271 C 
BRANCH   5   6
HETATM    6  O   UNL     1     -42.765 -52.218  14.947  1.00  0.00    -0.377 OA
BRANCH   6   7
HETATM    7  C   UNL     1     -44.136 -52.447  14.570  1.00  0.00     0.122 C 
HETATM    8  C   UNL     1     -44.287 -52.704  13.062  1.00  0.00     0.032 C 
HETATM    9  C   UNL     1     -45.740 -52.790  12.619  1.00  0.00     0.003 C 
HETATM   10  C   UNL     1     -46.537 -51.565  13.050  1.00  0.00     0.004 C 
HETATM   11  C   UNL     1     -46.425 -51.285  14.556  1.00  0.00    -0.016 C 
HETATM   12  C   UNL     1     -47.204 -52.314  15.379  1.00  0.00     0.010 C 
HETATM   13  C   UNL     1     -44.950 -51.213  14.984  1.00  0.00     0.036 C 
ENDBRANCH   6   7
ENDBRANCH   5   6
ENDBRANCH   1   5
BRANCH   3  14
HETATM   14  C   UNL     1     -39.368 -51.024  12.932  1.00  0.00     0.057 A 
HETATM   15  C   UNL     1     -38.023 -51.312  13.189  1.00  0.00     0.033 A 
HETATM   16  C   UNL     1     -37.032 -50.839  12.345  1.00  0.00     0.019 A 
HETATM   17  C   UNL     1     -37.418 -50.065  11.269  1.00  0.00     0.088 A 
HETATM   18  N   UNL     1     -38.698 -49.726  11.004  1.00  0.00    -0.368 N 
HETATM   19  C   UNL     1     -39.660 -50.209  11.833  1.00  0.00     0.032 A 
ATOM     20  HN  UNL     1     -38.934 -49.130  10.211  1.00  0.00     0.165 HD
HETATM   21  C   UNL     1     -41.076 -49.891  11.447  1.00  0.00     0.070 C 
ENDBRANCH   3  14
TORSDOF 4
ENDMDL
MODEL 2
REMARK VINA RESULT:      -6.0      3.634      6.818
REMARK  4 active torsions:
REMARK  status: ('A' for Active; 'I' for Inactive)
REMARK    1  A    between atoms: C_6  and  O_8 
REMARK    2  A    between atoms: O_8  and  C_9 
REMARK    3  A    between atoms: C_9  and  C_10 
REMARK       I    between atoms: C_10  and  N_12 
REMARK    4  A    between atoms: N_12  and  C_13 
ROOT
HETATM    1  C   UNL     1     -43.310 -50.614  13.207  1.00  0.00     0.245 C 
HETATM    2  O   UNL     1     -43.534 -50.488  14.408  1.00  0.00    -0.271 OA
HETATM    3  N   UNL     1     -43.664 -51.704  12.431  1.00  0.00    -0.324 N 
HETATM    4  H   UNL     1     -43.771 -51.496  11.443  1.00  0.00     0.169 HD
ENDROOT
BRANCH   1   5
HETATM    5  C   UNL     1     -42.558 -49.537  12.437  1.00  0.00     0.271 C 
BRANCH   5   6
HETATM    6  O   UNL     1     -43.269 -48.309  12.311  1.00  0.00    -0.377 OA
BRANCH   6   7
HETATM    7  C   UNL     1     -43.083 -47.699  11.019  1.00  0.00     0.122 C 
HETATM    8  C   UNL     1     -42.589 -46.248  11.130  1.00  0.00     0.032 C 
HETATM    9  C   UNL     1     -42.538 -45.536   9.786  1.00  0.00     0.003 C 
HETATM   10  C   UNL     1     -43.874 -45.606   9.057  1.00  0.00     0.004 C 
HETATM   11  C   UNL     1     -44.394 -47.044   8.911  1.00  0.00    -0.016 C 
HETATM   12  C   UNL     1     -43.580 -47.835   7.885  1.00  0.00     0.010 C 
HETATM   13  C   UNL     1     -44.427 -47.748  10.278  1.00  0.00     0.036 C 
ENDBRANCH   6   7
ENDBRANCH   5   6
ENDBRANCH   1   5
BRANCH   3  14
HETATM   14  C   UNL     1     -44.344 -52.811  12.978  1.00  0.00     0.057 A 
HETATM   15  C   UNL     1     -43.641 -53.875  13.554  1.00  0.00     0.033 A 
HETATM   16  C   UNL     1     -44.321 -54.916  14.164  1.00  0.00     0.019 A 
HETATM   17  C   UNL     1     -45.701 -54.872  14.162  1.00  0.00     0.088 A 
HETATM   18  N   UNL     1     -46.423 -53.889  13.584  1.00  0.00    -0.368 N 
HETATM   19  C   UNL     1     -45.741 -52.868  13.002  1.00  0.00     0.032 A 
ATOM     20  HN  UNL     1     -47.443 -53.912  13.585  1.00  0.00     0.165 HD
HETATM   21  C   UNL     1     -46.581 -51.747  12.458  1.00  0.00     0.070 C 
ENDBRANCH   3  14
TORSDOF 4
ENDMDL
MODEL 3
REMARK VINA RESULT:      -5.8      2.355      6.838
REMARK  4 active torsions:
REMARK  status: ('A' for Active; 'I' for Inactive)
REMARK    1  A    between atoms: C_6  and  O_8 
REMARK    2  A    between atoms: O_8  and  C_9 
REMARK    3  A    between atoms: C_9  and  C_10 
REMARK       I    between atoms: C_10  and  N_12 
REMARK    4  A    between atoms: N_12  and  C_13 
ROOT
HETATM    1  C   UNL     1     -43.328 -50.613  13.264  1.00  0.00     0.245 C 
HETATM    2  O   UNL     1     -43.642 -50.436  14.439  1.00  0.00    -0.271 OA
HETATM    3  N   UNL     1     -43.634 -51.731  12.509  1.00  0.00    -0.324 N 
HETATM    4  H   UNL     1     -43.662 -51.564  11.507  1.00  0.00     0.169 HD
ENDROOT
BRANCH   1   5
HETATM    5  C   UNL     1     -42.508 -49.575  12.512  1.00  0.00     0.271 C 
BRANCH   5   6
HETATM    6  O   UNL     1     -41.429 -50.119  11.758  1.00  0.00    -0.377 OA
BRANCH   6   7
HETATM    7  C   UNL     1     -40.180 -50.071  12.475  1.00  0.00     0.122 C 
HETATM    8  C   UNL     1     -39.042 -49.495  11.616  1.00  0.00     0.032 C 
HETATM    9  C   UNL     1     -37.685 -49.582  12.299  1.00  0.00     0.003 C 
HETATM   10  C   UNL     1     -37.368 -51.003  12.749  1.00  0.00     0.004 C 
HETATM   11  C   UNL     1     -38.475 -51.608  13.624  1.00  0.00    -0.016 C 
HETATM   12  C   UNL     1     -38.503 -50.971  15.016  1.00  0.00     0.010 C 
HETATM   13  C   UNL     1     -39.839 -51.499  12.922  1.00  0.00     0.036 C 
ENDBRANCH   6   7
ENDBRANCH   5   6
ENDBRANCH   1   5
BRANCH   3  14
HETATM   14  C   UNL     1     -44.366 -52.809  13.046  1.00  0.00     0.057 A 
HETATM   15  C   UNL     1     -43.716 -53.892  13.647  1.00  0.00     0.033 A 
HETATM   16  C   UNL     1     -44.447 -54.904  14.247  1.00  0.00     0.019 A 
HETATM   17  C   UNL     1     -45.825 -54.812  14.209  1.00  0.00     0.088 A 
HETATM   18  N   UNL     1     -46.497 -53.809  13.606  1.00  0.00    -0.368 N 
HETATM   19  C   UNL     1     -45.765 -52.817  13.034  1.00  0.00     0.032 A 
ATOM     20  HN  UNL     1     -47.516 -53.795  13.581  1.00  0.00     0.165 HD
HETATM   21  C   UNL     1     -46.550 -51.672  12.461  1.00  0.00     0.070 C 
ENDBRANCH   3  14
TORSDOF 4
ENDMDL
MODEL 4
REMARK VINA RESULT:      -5.7      2.704      3.632
REMARK  4 active torsions:
REMARK  status: ('A' for Active; 'I' for Inactive)
REMARK    1  A    between atoms: C_6  and  O_8 
REMARK    2  A    between atoms: O_8  and  C_9 
REMARK    3  A    between atoms: C_9  and  C_10 
REMARK       I    between atoms: C_10  and  N_12 
REMARK    4  A    between atoms: N_12  and  C_13 
ROOT
HETATM    1  C   UNL     1     -41.502 -50.011  12.001  1.00  0.00     0.245 C 
HETATM    2  O   UNL     1     -40.430 -50.229  11.442  1.00  0.00    -0.271 OA
HETATM    3  N   UNL     1     -42.092 -48.769  12.158  1.00  0.00    -0.324 N 
HETATM    4  H   UNL     1     -43.101 -48.796  12.268  1.00  0.00     0.169 HD
ENDROOT
BRANCH   1   5
HETATM    5  C   UNL     1     -42.300 -51.148  12.625  1.00  0.00     0.271 C 
BRANCH   5   6
HETATM    6  O   UNL     1     -42.965 -50.796  13.835  1.00  0.00    -0.377 OA
BRANCH   6   7
HETATM    7  C   UNL     1     -44.392 -50.971  13.746  1.00  0.00     0.122 C 
HETATM    8  C   UNL     1     -45.057 -51.016  15.131  1.00  0.00     0.032 C 
HETATM    9  C   UNL     1     -46.538 -51.358  15.065  1.00  0.00     0.003 C 
HETATM   10  C   UNL     1     -46.788 -52.649  14.294  1.00  0.00     0.004 C 
HETATM   11  C   UNL     1     -46.152 -52.636  12.896  1.00  0.00    -0.016 C 
HETATM   12  C   UNL     1     -46.903 -51.701  11.945  1.00  0.00     0.010 C 
HETATM   13  C   UNL     1     -44.659 -52.277  12.985  1.00  0.00     0.036 C 
ENDBRANCH   6   7
ENDBRANCH   5   6
ENDBRANCH   1   5
BRANCH   3  14
HETATM   14  C   UNL     1     -41.485 -47.595  11.667  1.00  0.00     0.057 A 
HETATM   15  C   UNL     1     -40.469 -46.956  12.385  1.00  0.00     0.033 A 
HETATM   16  C   UNL     1     -39.822 -45.853  11.853  1.00  0.00     0.019 A 
HETATM   17  C   UNL     1     -40.230 -45.404  10.612  1.00  0.00     0.088 A 
HETATM   18  N   UNL     1     -41.232 -45.962   9.900  1.00  0.00    -0.368 N 
HETATM   19  C   UNL     1     -41.847 -47.052  10.430  1.00  0.00     0.032 A 
ATOM     20  HN  UNL     1     -41.516 -45.580   8.998  1.00  0.00     0.165 HD
HETATM   21  C   UNL     1     -42.889 -47.701   9.563  1.00  0.00     0.070 C 
ENDBRANCH   3  14
TORSDOF 4
ENDMDL
MODEL 5
REMARK VINA RESULT:      -5.7      2.509      3.760
REMARK  4 active torsions:
REMARK  status: ('A' for Active; 'I' for Inactive)
REMARK    1  A    between atoms: C_6  and  O_8 
REMARK    2  A    between atoms: O_8  and  C_9 
REMARK    3  A    between atoms: C_9  and  C_10 
REMARK       I    between atoms: C_10  and  N_12 
REMARK    4  A    between atoms: N_12  and  C_13 
ROOT
HETATM    1  C   UNL     1     -42.337 -50.079  12.642  1.00  0.00     0.245 C 
HETATM    2  O   UNL     1     -42.766 -49.280  13.471  1.00  0.00    -0.271 OA
HETATM    3  N   UNL     1     -41.854 -49.756  11.386  1.00  0.00    -0.324 N 
HETATM    4  H   UNL     1     -41.199 -50.431  11.004  1.00  0.00     0.169 HD
ENDROOT
BRANCH   1   5
HETATM    5  C   UNL     1     -42.326 -51.573  12.934  1.00  0.00     0.271 C 
BRANCH   5   6
HETATM    6  O   UNL     1     -43.530 -52.244  12.575  1.00  0.00    -0.377 OA
BRANCH   6   7
HETATM    7  C   UNL     1     -44.407 -52.436  13.701  1.00  0.00     0.122 C 
HETATM    8  C   UNL     1     -44.857 -53.898  13.843  1.00  0.00     0.032 C 
HETATM    9  C   UNL     1     -45.907 -54.092  14.928  1.00  0.00     0.003 C 
HETATM   10  C   UNL     1     -47.102 -53.167  14.730  1.00  0.00     0.004 C 
HETATM   11  C   UNL     1     -46.694 -51.692  14.601  1.00  0.00    -0.016 C 
HETATM   12  C   UNL     1     -46.231 -51.116  15.941  1.00  0.00     0.010 C 
HETATM   13  C   UNL     1     -45.625 -51.521  13.509  1.00  0.00     0.036 C 
ENDBRANCH   6   7
ENDBRANCH   5   6
ENDBRANCH   1   5
BRANCH   3  14
HETATM   14  C   UNL     1     -41.812 -48.422  10.931  1.00  0.00     0.057 A 
HETATM   15  C   UNL     1     -42.933 -47.827  10.342  1.00  0.00     0.033 A 
HETATM   16  C   UNL     1     -42.905 -46.491   9.977  1.00  0.00     0.019 A 
HETATM   17  C   UNL     1     -41.737 -45.788  10.195  1.00  0.00     0.088 A 
HETATM   18  N   UNL     1     -40.618 -46.329  10.721  1.00  0.00    -0.368 N 
HETATM   19  C   UNL     1     -40.665 -47.637  11.087  1.00  0.00     0.032 A 
ATOM     20  HN  UNL     1     -39.769 -45.777  10.840  1.00  0.00     0.165 HD
HETATM   21  C   UNL     1     -39.433 -48.173  11.758  1.00  0.00     0.070 C 
ENDBRANCH   3  14
TORSDOF 4
ENDMDL
MODEL 6
REMARK VINA RESULT:      -5.7      1.555      2.942
REMARK  4 active torsions:
REMARK  status: ('A' for Active; 'I' for Inactive)
REMARK    1  A    between atoms: C_6  and  O_8 
REMARK    2  A    between atoms: O_8  and  C_9 
REMARK    3  A    between atoms: C_9  and  C_10 
REMARK       I    between atoms: C_10  and  N_12 
REMARK    4  A    between atoms: N_12  and  C_13 
ROOT
HETATM    1  C   UNL     1     -40.428 -52.155  13.284  1.00  0.00     0.245 C 
HETATM    2  O   UNL     1     -40.484 -51.478  14.308  1.00  0.00    -0.271 OA
HETATM    3  N   UNL     1     -40.409 -51.661  11.992  1.00  0.00    -0.324 N 
HETATM    4  H   UNL     1     -39.975 -52.281  11.314  1.00  0.00     0.169 HD
ENDROOT
BRANCH   1   5
HETATM    5  C   UNL     1     -40.402 -53.675  13.357  1.00  0.00     0.271 C 
BRANCH   5   6
HETATM    6  O   UNL     1     -41.581 -54.302  12.860  1.00  0.00    -0.377 OA
BRANCH   6   7
HETATM    7  C   UNL     1     -42.776 -53.786  13.477  1.00  0.00     0.122 C 
HETATM    8  C   UNL     1     -43.340 -54.745  14.538  1.00  0.00     0.032 C 
HETATM    9  C   UNL     1     -44.686 -54.294  15.087  1.00  0.00     0.003 C 
HETATM   10  C   UNL     1     -45.698 -54.051  13.974  1.00  0.00     0.004 C 
HETATM   11  C   UNL     1     -45.177 -53.083  12.901  1.00  0.00    -0.016 C 
HETATM   12  C   UNL     1     -45.120 -51.644  13.420  1.00  0.00     0.010 C 
HETATM   13  C   UNL     1     -43.812 -53.550  12.369  1.00  0.00     0.036 C 
ENDBRANCH   6   7
ENDBRANCH   5   6
ENDBRANCH   1   5
BRANCH   3  14
HETATM   14  C   UNL     1     -40.454 -50.277  11.728  1.00  0.00     0.057 A 
HETATM   15  C   UNL     1     -41.673 -49.593  11.677  1.00  0.00     0.033 A 
HETATM   16  C   UNL     1     -41.699 -48.219  11.502  1.00  0.00     0.019 A 
HETATM   17  C   UNL     1     -40.491 -47.565  11.362  1.00  0.00     0.088 A 
HETATM   18  N   UNL     1     -39.293 -48.186  11.364  1.00  0.00    -0.368 N 
HETATM   19  C   UNL     1     -39.283 -49.533  11.550  1.00  0.00     0.032 A 
ATOM     20  HN  UNL     1     -38.427 -47.665  11.230  1.00  0.00     0.165 HD
HETATM   21  C   UNL     1     -37.926 -50.170  11.644  1.00  0.00     0.070 C 
ENDBRANCH   3  14
TORSDOF 4
ENDMDL
MODEL 7
REMARK VINA RESULT:      -5.5      3.172      6.978
REMARK  4 active torsions:
REMARK  status: ('A' for Active; 'I' for Inactive)
REMARK    1  A    between atoms: C_6  and  O_8 
REMARK    2  A    between atoms: O_8  and  C_9 
REMARK    3  A    between atoms: C_9  and  C_10 
REMARK       I    between atoms: C_10  and  N_12 
REMARK    4  A    between atoms: N_12  and  C_13 
ROOT
HETATM    1  C   UNL     1     -42.901 -50.990  13.163  1.00  0.00     0.245 C 
HETATM    2  O   UNL     1     -42.911 -50.942  14.391  1.00  0.00    -0.271 OA
HETATM    3  N   UNL     1     -43.567 -51.922  12.388  1.00  0.00    -0.324 N 
HETATM    4  H   UNL     1     -43.782 -51.606  11.447  1.00  0.00     0.169 HD
ENDROOT
BRANCH   1   5
HETATM    5  C   UNL     1     -42.088 -49.991  12.352  1.00  0.00     0.271 C 
BRANCH   5   6
HETATM    6  O   UNL     1     -42.856 -48.924  11.804  1.00  0.00    -0.377 OA
BRANCH   6   7
HETATM    7  C   UNL     1     -42.146 -47.670  11.825  1.00  0.00     0.122 C 
HETATM    8  C   UNL     1     -42.290 -46.901  10.502  1.00  0.00     0.032 C 
HETATM    9  C   UNL     1     -41.421 -45.653  10.446  1.00  0.00     0.003 C 
HETATM   10  C   UNL     1     -39.959 -45.968  10.741  1.00  0.00     0.004 C 
HETATM   11  C   UNL     1     -39.772 -46.723  12.065  1.00  0.00    -0.016 C 
HETATM   12  C   UNL     1     -40.015 -45.812  13.272  1.00  0.00     0.010 C 
HETATM   13  C   UNL     1     -40.667 -47.973  12.106  1.00  0.00     0.036 C 
ENDBRANCH   6   7
ENDBRANCH   5   6
ENDBRANCH   1   5
BRANCH   3  14
HETATM   14  C   UNL     1     -44.350 -52.942  12.967  1.00  0.00     0.057 A 
HETATM   15  C   UNL     1     -43.756 -54.093  13.496  1.00  0.00     0.033 A 
HETATM   16  C   UNL     1     -44.527 -55.047  14.138  1.00  0.00     0.019 A 
HETATM   17  C   UNL     1     -45.889 -54.830  14.214  1.00  0.00     0.088 A 
HETATM   18  N   UNL     1     -46.512 -53.756  13.684  1.00  0.00    -0.368 N 
HETATM   19  C   UNL     1     -45.739 -52.822  13.069  1.00  0.00     0.032 A 
ATOM     20  HN  UNL     1     -47.524 -53.650  13.743  1.00  0.00     0.165 HD
HETATM   21  C   UNL     1     -46.459 -51.597  12.581  1.00  0.00     0.070 C 
ENDBRANCH   3  14
TORSDOF 4
ENDMDL
MODEL 8
REMARK VINA RESULT:      -5.4      3.413      5.690
REMARK  4 active torsions:
REMARK  status: ('A' for Active; 'I' for Inactive)
REMARK    1  A    between atoms: C_6  and  O_8 
REMARK    2  A    between atoms: O_8  and  C_9 
REMARK    3  A    between atoms: C_9  and  C_10 
REMARK       I    between atoms: C_10  and  N_12 
REMARK    4  A    between atoms: N_12  and  C_13 
ROOT
HETATM    1  C   UNL     1     -41.579 -49.441  11.500  1.00  0.00     0.245 C 
HETATM    2  O   UNL     1     -40.525 -49.005  11.043  1.00  0.00    -0.271 OA
HETATM    3  N   UNL     1     -42.829 -48.872  11.326  1.00  0.00    -0.324 N 
HETATM    4  H   UNL     1     -43.601 -49.526  11.411  1.00  0.00     0.169 HD
ENDROOT
BRANCH   1   5
HETATM    5  C   UNL     1     -41.595 -50.693  12.365  1.00  0.00     0.271 C 
BRANCH   5   6
HETATM    6  O   UNL     1     -41.136 -51.866  11.699  1.00  0.00    -0.377 OA
BRANCH   6   7
HETATM    7  C   UNL     1     -41.009 -52.989  12.592  1.00  0.00     0.122 C 
HETATM    8  C   UNL     1     -42.370 -53.462  13.126  1.00  0.00     0.032 C 
HETATM    9  C   UNL     1     -42.246 -54.542  14.191  1.00  0.00     0.003 C 
HETATM   10  C   UNL     1     -41.330 -54.111  15.330  1.00  0.00     0.004 C 
HETATM   11  C   UNL     1     -39.951 -53.647  14.837  1.00  0.00    -0.016 C 
HETATM   12  C   UNL     1     -39.102 -54.823  14.349  1.00  0.00     0.010 C 
HETATM   13  C   UNL     1     -40.100 -52.565  13.755  1.00  0.00     0.036 C 
ENDBRANCH   6   7
ENDBRANCH   5   6
ENDBRANCH   1   5
BRANCH   3  14
HETATM   14  C   UNL     1     -43.006 -47.692  10.576  1.00  0.00     0.057 A 
HETATM   15  C   UNL     1     -43.278 -47.746   9.204  1.00  0.00     0.033 A 
HETATM   16  C   UNL     1     -43.535 -46.584   8.495  1.00  0.00     0.019 A 
HETATM   17  C   UNL     1     -43.492 -45.387   9.183  1.00  0.00     0.088 A 
HETATM   18  N   UNL     1     -43.193 -45.282  10.495  1.00  0.00    -0.368 N 
HETATM   19  C   UNL     1     -42.957 -46.432  11.180  1.00  0.00     0.032 A 
ATOM     20  HN  UNL     1     -43.147 -44.373  10.955  1.00  0.00     0.165 HD
HETATM   21  C   UNL     1     -42.726 -46.278  12.656  1.00  0.00     0.070 C 
ENDBRANCH   3  14
TORSDOF 4
ENDMDL
MODEL 9
REMARK VINA RESULT:      -5.4      2.881      4.197
REMARK  4 active torsions:
REMARK  status: ('A' for Active; 'I' for Inactive)
REMARK    1  A    between atoms: C_6  and  O_8 
REMARK    2  A    between atoms: O_8  and  C_9 
REMARK    3  A    between atoms: C_9  and  C_10 
REMARK       I    between atoms: C_10  and  N_12 
REMARK    4  A    between atoms: N_12  and  C_13 
ROOT
HETATM    1  C   UNL     1     -41.324 -50.341  11.843  1.00  0.00     0.245 C 
HETATM    2  O   UNL     1     -40.190 -49.868  11.815  1.00  0.00    -0.271 OA
HETATM    3  N   UNL     1     -42.497 -49.632  11.657  1.00  0.00    -0.324 N 
HETATM    4  H   UNL     1     -43.276 -50.193  11.323  1.00  0.00     0.169 HD
ENDROOT
BRANCH   1   5
HETATM    5  C   UNL     1     -41.543 -51.820  12.129  1.00  0.00     0.271 C 
BRANCH   5   6
HETATM    6  O   UNL     1     -41.652 -52.134  13.514  1.00  0.00    -0.377 OA
BRANCH   6   7
HETATM    7  C   UNL     1     -42.954 -52.647  13.859  1.00  0.00     0.122 C 
HETATM    8  C   UNL     1     -42.867 -53.918  14.719  1.00  0.00     0.032 C 
HETATM    9  C   UNL     1     -44.224 -54.563  14.961  1.00  0.00     0.003 C 
HETATM   10  C   UNL     1     -44.962 -54.833  13.655  1.00  0.00     0.004 C 
HETATM   11  C   UNL     1     -45.085 -53.582  12.774  1.00  0.00    -0.016 C 
HETATM   12  C   UNL     1     -46.088 -52.582  13.353  1.00  0.00     0.010 C 
HETATM   13  C   UNL     1     -43.705 -52.939  12.552  1.00  0.00     0.036 C 
ENDBRANCH   6   7
ENDBRANCH   5   6
ENDBRANCH   1   5
BRANCH   3  14
HETATM   14  C   UNL     1     -42.492 -48.245  11.407  1.00  0.00     0.057 A 
HETATM   15  C   UNL     1     -42.339 -47.749  10.107  1.00  0.00     0.033 A 
HETATM   16  C   UNL     1     -42.421 -46.388   9.863  1.00  0.00     0.019 A 
HETATM   17  C   UNL     1     -42.636 -45.552  10.941  1.00  0.00     0.088 A 
HETATM   18  N   UNL     1     -42.749 -45.980  12.216  1.00  0.00    -0.368 N 
HETATM   19  C   UNL     1     -42.680 -47.319  12.438  1.00  0.00     0.032 A 
ATOM     20  HN  UNL     1     -42.882 -45.323  12.984  1.00  0.00     0.165 HD
HETATM   21  C   UNL     1     -42.909 -47.759  13.855  1.00  0.00     0.070 C 
ENDBRANCH   3  14
TORSDOF 4
ENDMDL
