MODEL 1
REMARK VINA RESULT:      -6.3      0.000      0.000
REMARK  4 active torsions:
REMARK  status: ('A' for Active; 'I' for Inactive)
REMARK    1  A    between atoms: C_7  and  N_8 
REMARK       I    between atoms: N_8  and  C_9 
REMARK       I    between atoms: C_9  and  N_11 
REMARK    2  A    between atoms: N_11  and  C_12 
REMARK    3  A    between atoms: N_15  and  C_16 
REMARK    4  A    between atoms: C_16  and  C_17 
ROOT
HETATM    1  N   UNL     1     -40.389 -48.688  11.235  1.00  0.00    -0.337 N 
HETATM    2  C   UNL     1     -41.661 -48.201  11.008  1.00  0.00     0.322 C 
HETATM    3  O   UNL     1     -42.557 -48.293  11.841  1.00  0.00    -0.247 OA
HETATM    4  N   UNL     1     -41.803 -47.682   9.744  1.00  0.00    -0.294 N 
HETATM    5  H   UNL     1     -39.640 -48.198  10.766  1.00  0.00     0.164 HD
HETATM    6  H   UNL     1     -41.384 -48.234   9.013  1.00  0.00     0.172 HD
ENDROOT
BRANCH   4   7
HETATM    7  C   UNL     1     -43.017 -47.138   9.381  1.00  0.00     0.125 C 
HETATM    8  C   UNL     1     -43.327 -45.767   9.229  1.00  0.00     0.069 C 
HETATM    9  C   UNL     1     -44.669 -45.731   8.947  1.00  0.00     0.114 C 
HETATM   10  N   UNL     1     -45.087 -47.030   8.995  1.00  0.00    -0.296 N 
HETATM   11  N   UNL     1     -44.076 -47.914   9.128  1.00  0.00    -0.283 N 
ATOM     12  HN  UNL     1     -44.112 -48.931   9.054  1.00  0.00     0.188 HD
BRANCH  10  13
HETATM   13  C   UNL     1     -46.457 -47.487   8.961  1.00  0.00     0.219 C 
BRANCH  13  14
HETATM   14  C   UNL     1     -46.528 -48.986   8.799  1.00  0.00     0.372 C 
HETATM   15  F   UNL     1     -47.455 -49.510   9.644  1.00  0.00    -0.213 F 
HETATM   16  F   UNL     1     -46.970 -49.274   7.545  1.00  0.00    -0.213 F 
ENDBRANCH  13  14
ENDBRANCH  10  13
ENDBRANCH   4   7
BRANCH   1  17
HETATM   17  C   UNL     1     -40.091 -49.427  12.455  1.00  0.00     0.093 C 
HETATM   18  C   UNL     1     -39.055 -48.769  13.408  1.00  0.00    -0.027 C 
HETATM   19  C   UNL     1     -39.118 -47.239  13.502  1.00  0.00     0.017 C 
HETATM   20  C   UNL     1     -39.235 -49.333  14.835  1.00  0.00     0.017 C 
HETATM   21  C   UNL     1     -37.700 -49.218  12.829  1.00  0.00     0.011 C 
HETATM   22  C   UNL     1     -37.953 -50.518  12.065  1.00  0.00     0.003 C 
HETATM   23  C   UNL     1     -39.454 -50.776  12.112  1.00  0.00     0.026 C 
ENDBRANCH   1  17
TORSDOF 4
ENDMDL
MODEL 2
REMARK VINA RESULT:      -6.1      2.383      3.085
REMARK  4 active torsions:
REMARK  status: ('A' for Active; 'I' for Inactive)
REMARK    1  A    between atoms: C_7  and  N_8 
REMARK       I    between atoms: N_8  and  C_9 
REMARK       I    between atoms: C_9  and  N_11 
REMARK    2  A    between atoms: N_11  and  C_12 
REMARK    3  A    between atoms: N_15  and  C_16 
REMARK    4  A    between atoms: C_16  and  C_17 
ROOT
HETATM    1  N   UNL     1     -41.004 -51.092  12.441  1.00  0.00    -0.337 N 
HETATM    2  C   UNL     1     -41.673 -49.943  12.070  1.00  0.00     0.322 C 
HETATM    3  O   UNL     1     -42.654 -49.529  12.678  1.00  0.00    -0.247 OA
HETATM    4  N   UNL     1     -41.153 -49.382  10.928  1.00  0.00    -0.294 N 
HETATM    5  H   UNL     1     -40.016 -51.114  12.231  1.00  0.00     0.164 HD
HETATM    6  H   UNL     1     -40.931 -50.041  10.199  1.00  0.00     0.172 HD
ENDROOT
BRANCH   4   7
HETATM    7  C   UNL     1     -41.707 -48.214  10.449  1.00  0.00     0.125 C 
HETATM    8  C   UNL     1     -41.284 -46.893  10.724  1.00  0.00     0.069 C 
HETATM    9  C   UNL     1     -42.197 -46.085  10.093  1.00  0.00     0.114 C 
HETATM   10  N   UNL     1     -43.112 -46.932   9.539  1.00  0.00    -0.296 N 
HETATM   11  N   UNL     1     -42.765 -48.234   9.631  1.00  0.00    -0.283 N 
ATOM     12  HN  UNL     1     -43.204 -49.038   9.184  1.00  0.00     0.188 HD
BRANCH  10  13
HETATM   13  C   UNL     1     -44.371 -46.554   8.939  1.00  0.00     0.219 C 
BRANCH  13  14
HETATM   14  C   UNL     1     -45.477 -47.495   9.352  1.00  0.00     0.372 C 
HETATM   15  F   UNL     1     -46.645 -46.817   9.499  1.00  0.00    -0.213 F 
HETATM   16  F   UNL     1     -45.694 -48.388   8.349  1.00  0.00    -0.213 F 
ENDBRANCH  13  14
ENDBRANCH  10  13
ENDBRANCH   4   7
BRANCH   1  17
HETATM   17  C   UNL     1     -41.511 -51.920  13.527  1.00  0.00     0.093 C 
HETATM   18  C   UNL     1     -40.447 -52.446  14.530  1.00  0.00    -0.027 C 
HETATM   19  C   UNL     1     -39.302 -51.477  14.851  1.00  0.00     0.017 C 
HETATM   20  C   UNL     1     -41.132 -52.817  15.864  1.00  0.00     0.017 C 
HETATM   21  C   UNL     1     -39.904 -53.713  13.844  1.00  0.00     0.011 C 
HETATM   22  C   UNL     1     -41.002 -54.216  12.907  1.00  0.00     0.003 C 
HETATM   23  C   UNL     1     -42.137 -53.200  12.968  1.00  0.00     0.026 C 
ENDBRANCH   1  17
TORSDOF 4
ENDMDL
MODEL 3
REMARK VINA RESULT:      -6.0      3.638      4.664
REMARK  4 active torsions:
REMARK  status: ('A' for Active; 'I' for Inactive)
REMARK    1  A    between atoms: C_7  and  N_8 
REMARK       I    between atoms: N_8  and  C_9 
REMARK       I    between atoms: C_9  and  N_11 
REMARK    2  A    between atoms: N_11  and  C_12 
REMARK    3  A    between atoms: N_15  and  C_16 
REMARK    4  A    between atoms: C_16  and  C_17 
ROOT
HETATM    1  N   UNL     1     -40.267 -51.405  12.429  1.00  0.00    -0.337 N 
HETATM    2  C   UNL     1     -41.546 -51.597  12.914  1.00  0.00     0.322 C 
HETATM    3  O   UNL     1     -41.949 -51.049  13.934  1.00  0.00    -0.247 OA
HETATM    4  N   UNL     1     -42.256 -52.506  12.168  1.00  0.00    -0.294 N 
HETATM    5  H   UNL     1     -40.161 -51.481  11.427  1.00  0.00     0.164 HD
HETATM    6  H   UNL     1     -41.738 -53.327  11.899  1.00  0.00     0.172 HD
ENDROOT
BRANCH   4   7
HETATM    7  C   UNL     1     -43.560 -52.782  12.522  1.00  0.00     0.125 C 
HETATM    8  C   UNL     1     -44.090 -54.031  12.922  1.00  0.00     0.069 C 
HETATM    9  C   UNL     1     -45.436 -53.814  13.083  1.00  0.00     0.114 C 
HETATM   10  N   UNL     1     -45.640 -52.511  12.734  1.00  0.00    -0.296 N 
HETATM   11  N   UNL     1     -44.496 -51.828  12.515  1.00  0.00    -0.283 N 
ATOM     12  HN  UNL     1     -44.376 -50.825  12.377  1.00  0.00     0.188 HD
BRANCH  10  13
HETATM   13  C   UNL     1     -46.921 -51.868  12.550  1.00  0.00     0.219 C 
BRANCH  13  14
HETATM   14  C   UNL     1     -47.216 -51.650  11.086  1.00  0.00     0.372 C 
HETATM   15  F   UNL     1     -47.899 -52.710  10.578  1.00  0.00    -0.213 F 
HETATM   16  F   UNL     1     -48.049 -50.581  10.957  1.00  0.00    -0.213 F 
ENDBRANCH  13  14
ENDBRANCH  10  13
ENDBRANCH   4   7
BRANCH   1  17
HETATM   17  C   UNL     1     -39.308 -50.608  13.180  1.00  0.00     0.093 C 
HETATM   18  C   UNL     1     -38.842 -49.291  12.499  1.00  0.00    -0.027 C 
HETATM   19  C   UNL     1     -39.916 -48.542  11.701  1.00  0.00     0.017 C 
HETATM   20  C   UNL     1     -38.295 -48.321  13.570  1.00  0.00     0.017 C 
HETATM   21  C   UNL     1     -37.703 -49.751  11.570  1.00  0.00     0.011 C 
HETATM   22  C   UNL     1     -37.141 -51.044  12.164  1.00  0.00     0.003 C 
HETATM   23  C   UNL     1     -38.006 -51.390  13.370  1.00  0.00     0.026 C 
ENDBRANCH   1  17
TORSDOF 4
ENDMDL
MODEL 4
REMARK VINA RESULT:      -5.9      4.063      5.236
REMARK  4 active torsions:
REMARK  status: ('A' for Active; 'I' for Inactive)
REMARK    1  A    between atoms: C_7  and  N_8 
REMARK       I    between atoms: N_8  and  C_9 
REMARK       I    between atoms: C_9  and  N_11 
REMARK    2  A    between atoms: N_11  and  C_12 
REMARK    3  A    between atoms: N_15  and  C_16 
REMARK    4  A    between atoms: C_16  and  C_17 
ROOT
HETATM    1  N   UNL     1     -42.805 -51.833  13.061  1.00  0.00    -0.337 N 
HETATM    2  C   UNL     1     -42.658 -50.494  12.753  1.00  0.00     0.322 C 
HETATM    3  O   UNL     1     -43.227 -49.610  13.385  1.00  0.00    -0.247 OA
HETATM    4  N   UNL     1     -41.873 -50.297  11.643  1.00  0.00    -0.294 N 
HETATM    5  H   UNL     1     -42.012 -52.422  12.849  1.00  0.00     0.164 HD
HETATM    6  H   UNL     1     -42.059 -50.927  10.879  1.00  0.00     0.172 HD
ENDROOT
BRANCH   4   7
HETATM    7  C   UNL     1     -41.620 -49.006  11.229  1.00  0.00     0.125 C 
HETATM    8  C   UNL     1     -40.474 -48.228  11.513  1.00  0.00     0.069 C 
HETATM    9  C   UNL     1     -40.728 -46.999  10.959  1.00  0.00     0.114 C 
HETATM   10  N   UNL     1     -41.986 -47.087  10.438  1.00  0.00    -0.296 N 
HETATM   11  N   UNL     1     -42.496 -48.336  10.475  1.00  0.00    -0.283 N 
ATOM     12  HN  UNL     1     -43.347 -48.685  10.033  1.00  0.00     0.188 HD
BRANCH  10  13
HETATM   13  C   UNL     1     -42.775 -45.991   9.924  1.00  0.00     0.219 C 
BRANCH  13  14
HETATM   14  C   UNL     1     -43.790 -46.475   8.917  1.00  0.00     0.372 C 
HETATM   15  F   UNL     1     -44.774 -45.551   8.755  1.00  0.00    -0.213 F 
HETATM   16  F   UNL     1     -43.189 -46.587   7.702  1.00  0.00    -0.213 F 
ENDBRANCH  13  14
ENDBRANCH  10  13
ENDBRANCH   4   7
BRANCH   1  17
HETATM   17  C   UNL     1     -43.735 -52.250  14.101  1.00  0.00     0.093 C 
HETATM   18  C   UNL     1     -43.745 -53.769  14.429  1.00  0.00    -0.027 C 
HETATM   19  C   UNL     1     -42.380 -54.469  14.374  1.00  0.00     0.017 C 
HETATM   20  C   UNL     1     -44.325 -53.989  15.844  1.00  0.00     0.017 C 
HETATM   21  C   UNL     1     -44.695 -54.358  13.370  1.00  0.00     0.011 C 
HETATM   22  C   UNL     1     -45.634 -53.231  12.940  1.00  0.00     0.003 C 
HETATM   23  C   UNL     1     -45.175 -51.971  13.665  1.00  0.00     0.026 C 
ENDBRANCH   1  17
TORSDOF 4
ENDMDL
MODEL 5
REMARK VINA RESULT:      -5.9      4.458      5.533
REMARK  4 active torsions:
REMARK  status: ('A' for Active; 'I' for Inactive)
REMARK    1  A    between atoms: C_7  and  N_8 
REMARK       I    between atoms: N_8  and  C_9 
REMARK       I    between atoms: C_9  and  N_11 
REMARK    2  A    between atoms: N_11  and  C_12 
REMARK    3  A    between atoms: N_15  and  C_16 
REMARK    4  A    between atoms: C_16  and  C_17 
ROOT
HETATM    1  N   UNL     1     -40.437 -50.806  12.666  1.00  0.00    -0.337 N 
HETATM    2  C   UNL     1     -41.422 -51.493  13.349  1.00  0.00     0.322 C 
HETATM    3  O   UNL     1     -41.422 -51.596  14.571  1.00  0.00    -0.247 OA
HETATM    4  N   UNL     1     -42.329 -52.083  12.502  1.00  0.00    -0.294 N 
HETATM    5  H   UNL     1     -40.723 -50.377  11.797  1.00  0.00     0.164 HD
HETATM    6  H   UNL     1     -41.924 -52.537  11.701  1.00  0.00     0.172 HD
ENDROOT
BRANCH   4   7
HETATM    7  C   UNL     1     -43.385 -52.785  13.045  1.00  0.00     0.125 C 
HETATM    8  C   UNL     1     -43.861 -54.055  12.644  1.00  0.00     0.069 C 
HETATM    9  C   UNL     1     -44.968 -54.285  13.423  1.00  0.00     0.114 C 
HETATM   10  N   UNL     1     -45.120 -53.161  14.182  1.00  0.00    -0.296 N 
HETATM   11  N   UNL     1     -44.094 -52.291  14.064  1.00  0.00    -0.283 N 
ATOM     12  HN  UNL     1     -43.907 -51.456  14.620  1.00  0.00     0.188 HD
BRANCH  10  13
HETATM   13  C   UNL     1     -46.256 -52.842  15.016  1.00  0.00     0.219 C 
BRANCH  13  14
HETATM   14  C   UNL     1     -46.598 -51.374  14.933  1.00  0.00     0.372 C 
HETATM   15  F   UNL     1     -47.083 -51.070  13.700  1.00  0.00    -0.213 F 
HETATM   16  F   UNL     1     -47.611 -51.107  15.802  1.00  0.00    -0.213 F 
ENDBRANCH  13  14
ENDBRANCH  10  13
ENDBRANCH   4   7
BRANCH   1  17
HETATM   17  C   UNL     1     -39.293 -50.257  13.381  1.00  0.00     0.093 C 
HETATM   18  C   UNL     1     -38.643 -48.996  12.748  1.00  0.00    -0.027 C 
HETATM   19  C   UNL     1     -39.615 -48.004  12.096  1.00  0.00     0.017 C 
HETATM   20  C   UNL     1     -37.847 -48.228  13.827  1.00  0.00     0.017 C 
HETATM   21  C   UNL     1     -37.681 -49.578  11.696  1.00  0.00     0.011 C 
HETATM   22  C   UNL     1     -37.326 -50.993  12.154  1.00  0.00     0.003 C 
HETATM   23  C   UNL     1     -38.149 -51.273  13.406  1.00  0.00     0.026 C 
ENDBRANCH   1  17
TORSDOF 4
ENDMDL
MODEL 6
REMARK VINA RESULT:      -5.8      5.625      8.173
REMARK  4 active torsions:
REMARK  status: ('A' for Active; 'I' for Inactive)
REMARK    1  A    between atoms: C_7  and  N_8 
REMARK       I    between atoms: N_8  and  C_9 
REMARK       I    between atoms: C_9  and  N_11 
REMARK    2  A    between atoms: N_11  and  C_12 
REMARK    3  A    between atoms: N_15  and  C_16 
REMARK    4  A    between atoms: C_16  and  C_17 
ROOT
HETATM    1  N   UNL     1     -43.251 -52.623  14.253  1.00  0.00    -0.337 N 
HETATM    2  C   UNL     1     -42.039 -52.053  13.916  1.00  0.00     0.322 C 
HETATM    3  O   UNL     1     -41.843 -51.526  12.826  1.00  0.00    -0.247 OA
HETATM    4  N   UNL     1     -41.096 -52.211  14.902  1.00  0.00    -0.294 N 
HETATM    5  H   UNL     1     -43.488 -52.603  15.235  1.00  0.00     0.164 HD
HETATM    6  H   UNL     1     -41.073 -53.128  15.319  1.00  0.00     0.172 HD
ENDROOT
BRANCH   4   7
HETATM    7  C   UNL     1     -39.841 -51.672  14.713  1.00  0.00     0.125 C 
HETATM    8  C   UNL     1     -39.161 -50.772  15.566  1.00  0.00     0.069 C 
HETATM    9  C   UNL     1     -37.996 -50.465  14.908  1.00  0.00     0.114 C 
HETATM   10  N   UNL     1     -38.061 -51.132  13.720  1.00  0.00    -0.296 N 
HETATM   11  N   UNL     1     -39.112 -51.975  13.634  1.00  0.00    -0.283 N 
ATOM     12  HN  UNL     1     -39.304 -52.675  12.917  1.00  0.00     0.188 HD
BRANCH  10  13
HETATM   13  C   UNL     1     -37.163 -50.970  12.600  1.00  0.00     0.219 C 
BRANCH  13  14
HETATM   14  C   UNL     1     -37.790 -50.132  11.513  1.00  0.00     0.372 C 
HETATM   15  F   UNL     1     -38.195 -48.934  12.013  1.00  0.00    -0.213 F 
HETATM   16  F   UNL     1     -36.845 -49.839  10.579  1.00  0.00    -0.213 F 
ENDBRANCH  13  14
ENDBRANCH  10  13
ENDBRANCH   4   7
BRANCH   1  17
HETATM   17  C   UNL     1     -44.324 -52.705  13.271  1.00  0.00     0.093 C 
HETATM   18  C   UNL     1     -45.741 -52.330  13.785  1.00  0.00    -0.027 C 
HETATM   19  C   UNL     1     -45.796 -51.183  14.802  1.00  0.00     0.017 C 
HETATM   20  C   UNL     1     -46.638 -51.938  12.590  1.00  0.00     0.017 C 
HETATM   21  C   UNL     1     -46.249 -53.638  14.421  1.00  0.00     0.011 C 
HETATM   22  C   UNL     1     -45.498 -54.783  13.742  1.00  0.00     0.003 C 
HETATM   23  C   UNL     1     -44.489 -54.149  12.791  1.00  0.00     0.026 C 
ENDBRANCH   1  17
TORSDOF 4
ENDMDL
MODEL 7
REMARK VINA RESULT:      -5.6      4.701      5.948
REMARK  4 active torsions:
REMARK  status: ('A' for Active; 'I' for Inactive)
REMARK    1  A    between atoms: C_7  and  N_8 
REMARK       I    between atoms: N_8  and  C_9 
REMARK       I    between atoms: C_9  and  N_11 
REMARK    2  A    between atoms: N_11  and  C_12 
REMARK    3  A    between atoms: N_15  and  C_16 
REMARK    4  A    between atoms: C_16  and  C_17 
ROOT
HETATM    1  N   UNL     1     -42.663 -51.039  12.205  1.00  0.00    -0.337 N 
HETATM    2  C   UNL     1     -42.504 -49.668  12.202  1.00  0.00     0.322 C 
HETATM    3  O   UNL     1     -42.726 -48.980  13.192  1.00  0.00    -0.247 OA
HETATM    4  N   UNL     1     -42.144 -49.187  10.966  1.00  0.00    -0.294 N 
HETATM    5  H   UNL     1     -42.057 -51.554  11.581  1.00  0.00     0.164 HD
HETATM    6  H   UNL     1     -42.646 -49.593  10.194  1.00  0.00     0.172 HD
ENDROOT
BRANCH   4   7
HETATM    7  C   UNL     1     -41.927 -47.833  10.817  1.00  0.00     0.125 C 
HETATM    8  C   UNL     1     -42.799 -46.888  10.230  1.00  0.00     0.069 C 
HETATM    9  C   UNL     1     -42.105 -45.704  10.240  1.00  0.00     0.114 C 
HETATM   10  N   UNL     1     -40.882 -46.003  10.766  1.00  0.00    -0.296 N 
HETATM   11  N   UNL     1     -40.796 -47.262  11.244  1.00  0.00    -0.283 N 
ATOM     12  HN  UNL     1     -40.047 -47.678  11.798  1.00  0.00     0.188 HD
BRANCH  10  13
HETATM   13  C   UNL     1     -39.731 -45.130  10.798  1.00  0.00     0.219 C 
BRANCH  13  14
HETATM   14  C   UNL     1     -39.854 -44.106  11.900  1.00  0.00     0.372 C 
HETATM   15  F   UNL     1     -38.670 -43.968  12.553  1.00  0.00    -0.213 F 
HETATM   16  F   UNL     1     -40.112 -42.890  11.347  1.00  0.00    -0.213 F 
ENDBRANCH  13  14
ENDBRANCH  10  13
ENDBRANCH   4   7
BRANCH   1  17
HETATM   17  C   UNL     1     -43.204 -51.714  13.376  1.00  0.00     0.093 C 
HETATM   18  C   UNL     1     -42.921 -53.239  13.469  1.00  0.00    -0.027 C 
HETATM   19  C   UNL     1     -41.545 -53.690  12.963  1.00  0.00     0.017 C 
HETATM   20  C   UNL     1     -43.053 -53.701  14.938  1.00  0.00     0.017 C 
HETATM   21  C   UNL     1     -44.041 -53.865  12.616  1.00  0.00     0.011 C 
HETATM   22  C   UNL     1     -45.203 -52.871  12.613  1.00  0.00     0.003 C 
HETATM   23  C   UNL     1     -44.733 -51.636  13.371  1.00  0.00     0.026 C 
ENDBRANCH   1  17
TORSDOF 4
ENDMDL
MODEL 8
REMARK VINA RESULT:      -5.5      5.729      7.611
REMARK  4 active torsions:
REMARK  status: ('A' for Active; 'I' for Inactive)
REMARK    1  A    between atoms: C_7  and  N_8 
REMARK       I    between atoms: N_8  and  C_9 
REMARK       I    between atoms: C_9  and  N_11 
REMARK    2  A    between atoms: N_11  and  C_12 
REMARK    3  A    between atoms: N_15  and  C_16 
REMARK    4  A    between atoms: C_16  and  C_17 
ROOT
HETATM    1  N   UNL     1     -43.987 -51.947  13.457  1.00  0.00    -0.337 N 
HETATM    2  C   UNL     1     -42.874 -51.130  13.422  1.00  0.00     0.322 C 
HETATM    3  O   UNL     1     -42.309 -50.748  14.441  1.00  0.00    -0.247 OA
HETATM    4  N   UNL     1     -42.540 -50.759  12.142  1.00  0.00    -0.294 N 
HETATM    5  H   UNL     1     -44.102 -52.568  12.668  1.00  0.00     0.164 HD
HETATM    6  H   UNL     1     -43.321 -50.499  11.562  1.00  0.00     0.172 HD
ENDROOT
BRANCH   4   7
HETATM    7  C   UNL     1     -41.433 -49.959  11.950  1.00  0.00     0.125 C 
HETATM    8  C   UNL     1     -41.395 -48.690  11.328  1.00  0.00     0.069 C 
HETATM    9  C   UNL     1     -40.067 -48.343  11.302  1.00  0.00     0.114 C 
HETATM   10  N   UNL     1     -39.402 -49.404  11.844  1.00  0.00    -0.296 N 
HETATM   11  N   UNL     1     -40.221 -50.343  12.363  1.00  0.00    -0.283 N 
ATOM     12  HN  UNL     1     -39.974 -51.151  12.935  1.00  0.00     0.188 HD
BRANCH  10  13
HETATM   13  C   UNL     1     -37.970 -49.599  11.854  1.00  0.00     0.219 C 
BRANCH  13  14
HETATM   14  C   UNL     1     -37.592 -50.830  12.640  1.00  0.00     0.372 C 
HETATM   15  F   UNL     1     -36.633 -51.535  11.984  1.00  0.00    -0.213 F 
HETATM   16  F   UNL     1     -37.025 -50.446  13.816  1.00  0.00    -0.213 F 
ENDBRANCH  13  14
ENDBRANCH  10  13
ENDBRANCH   4   7
BRANCH   1  17
HETATM   17  C   UNL     1     -44.595 -52.308  14.731  1.00  0.00     0.093 C 
HETATM   18  C   UNL     1     -45.570 -53.517  14.697  1.00  0.00    -0.027 C 
HETATM   19  C   UNL     1     -45.179 -54.658  13.749  1.00  0.00     0.017 C 
HETATM   20  C   UNL     1     -45.704 -54.114  16.115  1.00  0.00     0.017 C 
HETATM   21  C   UNL     1     -46.906 -52.887  14.260  1.00  0.00     0.011 C 
HETATM   22  C   UNL     1     -46.856 -51.414  14.665  1.00  0.00     0.003 C 
HETATM   23  C   UNL     1     -45.468 -51.160  15.242  1.00  0.00     0.026 C 
ENDBRANCH   1  17
TORSDOF 4
ENDMDL
MODEL 9
REMARK VINA RESULT:      -5.5      4.842      6.303
REMARK  4 active torsions:
REMARK  status: ('A' for Active; 'I' for Inactive)
REMARK    1  A    between atoms: C_7  and  N_8 
REMARK       I    between atoms: N_8  and  C_9 
REMARK       I    between atoms: C_9  and  N_11 
REMARK    2  A    between atoms: N_11  and  C_12 
REMARK    3  A    between atoms: N_15  and  C_16 
REMARK    4  A    between atoms: C_16  and  C_17 
ROOT
HETATM    1  N   UNL     1     -43.326 -51.310  12.651  1.00  0.00    -0.337 N 
HETATM    2  C   UNL     1     -42.640 -50.112  12.696  1.00  0.00     0.322 C 
HETATM    3  O   UNL     1     -42.657 -49.384  13.683  1.00  0.00    -0.247 OA
HETATM    4  N   UNL     1     -42.017 -49.822  11.506  1.00  0.00    -0.294 N 
HETATM    5  H   UNL     1     -42.920 -52.027  12.066  1.00  0.00     0.164 HD
HETATM    6  H   UNL     1     -42.572 -50.004  10.686  1.00  0.00     0.172 HD
ENDROOT
BRANCH   4   7
HETATM    7  C   UNL     1     -41.274 -48.665  11.410  1.00  0.00     0.125 C 
HETATM    8  C   UNL     1     -39.912 -48.494  11.749  1.00  0.00     0.069 C 
HETATM    9  C   UNL     1     -39.660 -47.158  11.561  1.00  0.00     0.114 C 
HETATM   10  N   UNL     1     -40.853 -46.611  11.185  1.00  0.00    -0.296 N 
HETATM   11  N   UNL     1     -41.817 -47.529  10.960  1.00  0.00    -0.283 N 
ATOM     12  HN  UNL     1     -42.739 -47.389  10.546  1.00  0.00     0.188 HD
BRANCH  10  13
HETATM   13  C   UNL     1     -41.145 -45.201  11.064  1.00  0.00     0.219 C 
BRANCH  13  14
HETATM   14  C   UNL     1     -39.907 -44.416  10.705  1.00  0.00     0.372 C 
HETATM   15  F   UNL     1     -39.440 -44.800   9.488  1.00  0.00    -0.213 F 
HETATM   16  F   UNL     1     -40.239 -43.103  10.574  1.00  0.00    -0.213 F 
ENDBRANCH  13  14
ENDBRANCH  10  13
ENDBRANCH   4   7
BRANCH   1  17
HETATM   17  C   UNL     1     -44.186 -51.708  13.757  1.00  0.00     0.093 C 
HETATM   18  C   UNL     1     -44.261 -53.233  14.041  1.00  0.00    -0.027 C 
HETATM   19  C   UNL     1     -42.952 -54.010  13.845  1.00  0.00     0.017 C 
HETATM   20  C   UNL     1     -44.728 -53.467  15.495  1.00  0.00     0.017 C 
HETATM   21  C   UNL     1     -45.334 -53.729  13.054  1.00  0.00     0.011 C 
HETATM   22  C   UNL     1     -46.235 -52.535  12.742  1.00  0.00     0.003 C 
HETATM   23  C   UNL     1     -45.638 -51.329  13.459  1.00  0.00     0.026 C 
ENDBRANCH   1  17
TORSDOF 4
ENDMDL
