MODEL 1
REMARK VINA RESULT:      -5.8      0.000      0.000
REMARK  7 active torsions:
REMARK  status: ('A' for Active; 'I' for Inactive)
REMARK    1  A    between atoms: O_1  and  C_2 
REMARK    2  A    between atoms: C_2  and  C_3 
REMARK    3  A    between atoms: C_2  and  C_11 
REMARK    4  A    between atoms: C_3  and  O_4 
REMARK    5  A    between atoms: O_4  and  C_5 
REMARK    6  A    between atoms: C_5  and  C_6 
REMARK    7  A    between atoms: C_11  and  N_12 
ROOT
HETATM    1  C   UNL     1     -41.258 -52.869  12.373  1.00  0.00     0.160 C 
ENDROOT
BRANCH   1   2
HETATM    2  O   UNL     1     -40.524 -53.477  11.303  1.00  0.00    -0.392 OA
HETATM    3  H   UNL     1     -40.247 -54.362  11.600  1.00  0.00     0.210 HD
ENDBRANCH   1   2
BRANCH   1   4
HETATM    4  C   UNL     1     -41.724 -53.986  13.314  1.00  0.00     0.201 C 
BRANCH   4   5
HETATM    5  O   UNL     1     -43.127 -54.198  13.200  1.00  0.00    -0.384 OA
BRANCH   5   6
HETATM    6  C   UNL     1     -43.751 -53.120  12.494  1.00  0.00     0.213 C 
BRANCH   6   7
HETATM    7  C   UNL     1     -44.933 -52.672  13.291  1.00  0.00     0.006 A 
HETATM    8  C   UNL     1     -45.660 -51.500  13.197  1.00  0.00     0.017 A 
HETATM    9  C   UNL     1     -46.743 -51.456  14.121  1.00  0.00     0.008 A 
HETATM   10  C   UNL     1     -46.815 -52.597  14.887  1.00  0.00     0.050 A 
HETATM   11  S   UNL     1     -45.581 -53.712  14.492  1.00  0.00    -0.104 SA
ENDBRANCH   6   7
ENDBRANCH   5   6
ENDBRANCH   4   5
ENDBRANCH   1   4
BRANCH   1  12
HETATM   12  C   UNL     1     -40.366 -51.862  13.109  1.00  0.00     0.164 C 
BRANCH  12  13
HETATM   13  N   UNL     1     -40.214 -50.617  12.375  1.00  0.00    -0.339 N 
HETATM   14  C   UNL     1     -39.047 -50.185  11.806  1.00  0.00     0.184 A 
HETATM   15  N   UNL     1     -39.195 -49.024  11.210  1.00  0.00    -0.350 N 
HETATM   16  C   UNL     1     -40.513 -48.690  11.400  1.00  0.00     0.060 A 
ATOM     17  HN  UNL     1     -38.484 -48.487  10.713  1.00  0.00     0.166 HD
HETATM   18  C   UNL     1     -41.213 -47.556  10.965  1.00  0.00     0.032 A 
HETATM   19  C   UNL     1     -41.179 -49.668  12.139  1.00  0.00     0.062 A 
HETATM   20  C   UNL     1     -42.567 -47.432  11.293  1.00  0.00     0.002 A 
HETATM   21  C   UNL     1     -43.212 -48.418  12.040  1.00  0.00     0.002 A 
HETATM   22  C   UNL     1     -42.532 -49.563  12.480  1.00  0.00     0.032 A 
ENDBRANCH  12  13
ENDBRANCH   1  12
TORSDOF 7
ENDMDL
MODEL 2
REMARK VINA RESULT:      -5.7      2.841      5.870
REMARK  7 active torsions:
REMARK  status: ('A' for Active; 'I' for Inactive)
REMARK    1  A    between atoms: O_1  and  C_2 
REMARK    2  A    between atoms: C_2  and  C_3 
REMARK    3  A    between atoms: C_2  and  C_11 
REMARK    4  A    between atoms: C_3  and  O_4 
REMARK    5  A    between atoms: O_4  and  C_5 
REMARK    6  A    between atoms: C_5  and  C_6 
REMARK    7  A    between atoms: C_11  and  N_12 
ROOT
HETATM    1  C   UNL     1     -40.980 -52.593  12.468  1.00  0.00     0.160 C 
ENDROOT
BRANCH   1   2
HETATM    2  O   UNL     1     -40.585 -53.439  11.381  1.00  0.00    -0.392 OA
HETATM    3  H   UNL     1     -39.898 -54.045  11.712  1.00  0.00     0.210 HD
ENDBRANCH   1   2
BRANCH   1   4
HETATM    4  C   UNL     1     -40.088 -51.347  12.439  1.00  0.00     0.201 C 
BRANCH   4   5
HETATM    5  O   UNL     1     -40.465 -50.473  11.381  1.00  0.00    -0.384 OA
BRANCH   5   6
HETATM    6  C   UNL     1     -40.075 -49.126  11.669  1.00  0.00     0.213 C 
BRANCH   6   7
HETATM    7  C   UNL     1     -41.246 -48.239  11.390  1.00  0.00     0.006 A 
HETATM    8  C   UNL     1     -42.596 -48.505  11.516  1.00  0.00     0.017 A 
HETATM    9  C   UNL     1     -43.406 -47.383  11.178  1.00  0.00     0.008 A 
HETATM   10  C   UNL     1     -42.650 -46.293  10.811  1.00  0.00     0.050 A 
HETATM   11  S   UNL     1     -40.975 -46.625  10.875  1.00  0.00    -0.104 SA
ENDBRANCH   6   7
ENDBRANCH   5   6
ENDBRANCH   4   5
ENDBRANCH   1   4
BRANCH   1  12
HETATM   12  C   UNL     1     -42.460 -52.217  12.322  1.00  0.00     0.164 C 
BRANCH  12  13
HETATM   13  N   UNL     1     -43.310 -52.943  13.250  1.00  0.00    -0.339 N 
HETATM   14  C   UNL     1     -43.000 -54.154  13.808  1.00  0.00     0.184 A 
HETATM   15  N   UNL     1     -43.950 -54.581  14.607  1.00  0.00    -0.350 N 
HETATM   16  C   UNL     1     -44.917 -53.607  14.566  1.00  0.00     0.060 A 
ATOM     17  HN  UNL     1     -43.967 -55.449  15.142  1.00  0.00     0.166 HD
HETATM   18  C   UNL     1     -46.146 -53.547  15.238  1.00  0.00     0.032 A 
HETATM   19  C   UNL     1     -44.547 -52.567  13.712  1.00  0.00     0.062 A 
HETATM   20  C   UNL     1     -46.976 -52.441  15.027  1.00  0.00     0.002 A 
HETATM   21  C   UNL     1     -46.592 -51.415  14.163  1.00  0.00     0.002 A 
HETATM   22  C   UNL     1     -45.364 -51.453  13.485  1.00  0.00     0.032 A 
ENDBRANCH  12  13
ENDBRANCH   1  12
TORSDOF 7
ENDMDL
MODEL 3
REMARK VINA RESULT:      -5.5      3.331      6.506
REMARK  7 active torsions:
REMARK  status: ('A' for Active; 'I' for Inactive)
REMARK    1  A    between atoms: O_1  and  C_2 
REMARK    2  A    between atoms: C_2  and  C_3 
REMARK    3  A    between atoms: C_2  and  C_11 
REMARK    4  A    between atoms: C_3  and  O_4 
REMARK    5  A    between atoms: O_4  and  C_5 
REMARK    6  A    between atoms: C_5  and  C_6 
REMARK    7  A    between atoms: C_11  and  N_12 
ROOT
HETATM    1  C   UNL     1     -41.000 -52.540  12.502  1.00  0.00     0.160 C 
ENDROOT
BRANCH   1   2
HETATM    2  O   UNL     1     -40.545 -53.405  11.454  1.00  0.00    -0.392 OA
HETATM    3  H   UNL     1     -39.808 -52.958  11.000  1.00  0.00     0.210 HD
ENDBRANCH   1   2
BRANCH   1   4
HETATM    4  C   UNL     1     -40.164 -51.257  12.445  1.00  0.00     0.201 C 
BRANCH   4   5
HETATM    5  O   UNL     1     -38.774 -51.548  12.530  1.00  0.00    -0.384 OA
BRANCH   5   6
HETATM    6  C   UNL     1     -37.990 -50.401  12.184  1.00  0.00     0.213 C 
BRANCH   6   7
HETATM    7  C   UNL     1     -37.924 -49.511  13.383  1.00  0.00     0.006 A 
HETATM    8  C   UNL     1     -38.308 -48.190  13.515  1.00  0.00     0.017 A 
HETATM    9  C   UNL     1     -38.112 -47.696  14.836  1.00  0.00     0.008 A 
HETATM   10  C   UNL     1     -37.591 -48.656  15.674  1.00  0.00     0.050 A 
HETATM   11  S   UNL     1     -37.340 -50.142  14.868  1.00  0.00    -0.104 SA
ENDBRANCH   6   7
ENDBRANCH   5   6
ENDBRANCH   4   5
ENDBRANCH   1   4
BRANCH   1  12
HETATM   12  C   UNL     1     -42.492 -52.238  12.315  1.00  0.00     0.164 C 
BRANCH  12  13
HETATM   13  N   UNL     1     -43.324 -52.945  13.273  1.00  0.00    -0.339 N 
HETATM   14  C   UNL     1     -42.997 -54.137  13.861  1.00  0.00     0.184 A 
HETATM   15  N   UNL     1     -43.935 -54.550  14.682  1.00  0.00    -0.350 N 
HETATM   16  C   UNL     1     -44.910 -53.586  14.625  1.00  0.00     0.060 A 
ATOM     17  HN  UNL     1     -43.938 -55.403  15.241  1.00  0.00     0.166 HD
HETATM   18  C   UNL     1     -46.132 -53.518  15.310  1.00  0.00     0.032 A 
HETATM   19  C   UNL     1     -44.560 -52.567  13.739  1.00  0.00     0.062 A 
HETATM   20  C   UNL     1     -46.975 -52.425  15.077  1.00  0.00     0.002 A 
HETATM   21  C   UNL     1     -46.609 -51.421  14.181  1.00  0.00     0.002 A 
HETATM   22  C   UNL     1     -45.389 -51.467  13.490  1.00  0.00     0.032 A 
ENDBRANCH  12  13
ENDBRANCH   1  12
TORSDOF 7
ENDMDL
MODEL 4
REMARK VINA RESULT:      -5.4      3.139      6.077
REMARK  7 active torsions:
REMARK  status: ('A' for Active; 'I' for Inactive)
REMARK    1  A    between atoms: O_1  and  C_2 
REMARK    2  A    between atoms: C_2  and  C_3 
REMARK    3  A    between atoms: C_2  and  C_11 
REMARK    4  A    between atoms: C_3  and  O_4 
REMARK    5  A    between atoms: O_4  and  C_5 
REMARK    6  A    between atoms: C_5  and  C_6 
REMARK    7  A    between atoms: C_11  and  N_12 
ROOT
HETATM    1  C   UNL     1     -41.334 -53.523  12.656  1.00  0.00     0.160 C 
ENDROOT
BRANCH   1   2
HETATM    2  O   UNL     1     -40.618 -53.401  11.420  1.00  0.00    -0.392 OA
HETATM    3  H   UNL     1     -40.553 -54.290  11.027  1.00  0.00     0.210 HD
ENDBRANCH   1   2
BRANCH   1   4
HETATM    4  C   UNL     1     -40.316 -53.423  13.798  1.00  0.00     0.201 C 
BRANCH   4   5
HETATM    5  O   UNL     1     -39.107 -52.818  13.353  1.00  0.00    -0.384 OA
BRANCH   5   6
HETATM    6  C   UNL     1     -38.707 -51.766  14.237  1.00  0.00     0.213 C 
BRANCH   6   7
HETATM    7  C   UNL     1     -38.872 -50.469  13.511  1.00  0.00     0.006 A 
HETATM    8  C   UNL     1     -39.145 -50.241  12.176  1.00  0.00     0.017 A 
HETATM    9  C   UNL     1     -39.256 -48.854  11.871  1.00  0.00     0.008 A 
HETATM   10  C   UNL     1     -39.071 -48.066  12.985  1.00  0.00     0.050 A 
HETATM   11  S   UNL     1     -38.765 -48.997  14.385  1.00  0.00    -0.104 SA
ENDBRANCH   6   7
ENDBRANCH   5   6
ENDBRANCH   4   5
ENDBRANCH   1   4
BRANCH   1  12
HETATM   12  C   UNL     1     -42.388 -52.414  12.756  1.00  0.00     0.164 C 
BRANCH  12  13
HETATM   13  N   UNL     1     -43.698 -52.926  13.120  1.00  0.00    -0.339 N 
HETATM   14  C   UNL     1     -44.245 -54.083  12.635  1.00  0.00     0.184 A 
HETATM   15  N   UNL     1     -45.442 -54.302  13.129  1.00  0.00    -0.350 N 
HETATM   16  C   UNL     1     -45.680 -53.243  13.970  1.00  0.00     0.060 A 
ATOM     17  HN  UNL     1     -46.060 -55.089  12.931  1.00  0.00     0.166 HD
HETATM   18  C   UNL     1     -46.805 -52.976  14.764  1.00  0.00     0.032 A 
HETATM   19  C   UNL     1     -44.605 -52.354  13.978  1.00  0.00     0.062 A 
HETATM   20  C   UNL     1     -46.820 -51.813  15.541  1.00  0.00     0.002 A 
HETATM   21  C   UNL     1     -45.738 -50.933  15.529  1.00  0.00     0.002 A 
HETATM   22  C   UNL     1     -44.602 -51.184  14.746  1.00  0.00     0.032 A 
ENDBRANCH  12  13
ENDBRANCH   1  12
TORSDOF 7
ENDMDL
MODEL 5
REMARK VINA RESULT:      -5.4      2.814      5.112
REMARK  7 active torsions:
REMARK  status: ('A' for Active; 'I' for Inactive)
REMARK    1  A    between atoms: O_1  and  C_2 
REMARK    2  A    between atoms: C_2  and  C_3 
REMARK    3  A    between atoms: C_2  and  C_11 
REMARK    4  A    between atoms: C_3  and  O_4 
REMARK    5  A    between atoms: O_4  and  C_5 
REMARK    6  A    between atoms: C_5  and  C_6 
REMARK    7  A    between atoms: C_11  and  N_12 
ROOT
HETATM    1  C   UNL     1     -41.137 -52.765  12.505  1.00  0.00     0.160 C 
ENDROOT
BRANCH   1   2
HETATM    2  O   UNL     1     -40.584 -53.443  11.371  1.00  0.00    -0.392 OA
HETATM    3  H   UNL     1     -40.036 -52.803  10.881  1.00  0.00     0.210 HD
ENDBRANCH   1   2
BRANCH   1   4
HETATM    4  C   UNL     1     -40.399 -51.429  12.657  1.00  0.00     0.201 C 
BRANCH   4   5
HETATM    5  O   UNL     1     -41.312 -50.368  12.913  1.00  0.00    -0.384 OA
BRANCH   5   6
HETATM    6  C   UNL     1     -40.961 -49.672  14.114  1.00  0.00     0.213 C 
BRANCH   6   7
HETATM    7  C   UNL     1     -42.031 -49.933  15.125  1.00  0.00     0.006 A 
HETATM    8  C   UNL     1     -43.248 -49.302  15.296  1.00  0.00     0.017 A 
HETATM    9  C   UNL     1     -44.008 -49.862  16.362  1.00  0.00     0.008 A 
HETATM   10  C   UNL     1     -43.351 -50.908  16.969  1.00  0.00     0.050 A 
HETATM   11  S   UNL     1     -41.828 -51.209  16.255  1.00  0.00    -0.104 SA
ENDBRANCH   6   7
ENDBRANCH   5   6
ENDBRANCH   4   5
ENDBRANCH   1   4
BRANCH   1  12
HETATM   12  C   UNL     1     -42.640 -52.546  12.297  1.00  0.00     0.164 C 
BRANCH  12  13
HETATM   13  N   UNL     1     -43.433 -53.065  13.398  1.00  0.00    -0.339 N 
HETATM   14  C   UNL     1     -43.082 -54.136  14.175  1.00  0.00     0.184 A 
HETATM   15  N   UNL     1     -43.985 -54.390  15.094  1.00  0.00    -0.350 N 
HETATM   16  C   UNL     1     -44.962 -53.444  14.905  1.00  0.00     0.060 A 
ATOM     17  HN  UNL     1     -43.966 -55.130  15.795  1.00  0.00     0.166 HD
HETATM   18  C   UNL     1     -46.155 -53.246  15.615  1.00  0.00     0.032 A 
HETATM   19  C   UNL     1     -44.649 -52.601  13.839  1.00  0.00     0.062 A 
HETATM   20  C   UNL     1     -47.006 -52.206  15.227  1.00  0.00     0.002 A 
HETATM   21  C   UNL     1     -46.678 -51.380  14.152  1.00  0.00     0.002 A 
HETATM   22  C   UNL     1     -45.487 -51.557  13.432  1.00  0.00     0.032 A 
ENDBRANCH  12  13
ENDBRANCH   1  12
TORSDOF 7
ENDMDL
MODEL 6
REMARK VINA RESULT:      -5.2      4.923      7.469
REMARK  7 active torsions:
REMARK  status: ('A' for Active; 'I' for Inactive)
REMARK    1  A    between atoms: O_1  and  C_2 
REMARK    2  A    between atoms: C_2  and  C_3 
REMARK    3  A    between atoms: C_2  and  C_11 
REMARK    4  A    between atoms: C_3  and  O_4 
REMARK    5  A    between atoms: O_4  and  C_5 
REMARK    6  A    between atoms: C_5  and  C_6 
REMARK    7  A    between atoms: C_11  and  N_12 
ROOT
HETATM    1  C   UNL     1     -39.621 -54.774  14.327  1.00  0.00     0.160 C 
ENDROOT
BRANCH   1   2
HETATM    2  O   UNL     1     -38.622 -55.291  13.439  1.00  0.00    -0.392 OA
HETATM    3  H   UNL     1     -38.909 -56.178  13.156  1.00  0.00     0.210 HD
ENDBRANCH   1   2
BRANCH   1   4
HETATM    4  C   UNL     1     -39.073 -54.872  15.755  1.00  0.00     0.201 C 
BRANCH   4   5
HETATM    5  O   UNL     1     -38.107 -55.913  15.862  1.00  0.00    -0.384 OA
BRANCH   5   6
HETATM    6  C   UNL     1     -37.901 -56.279  17.230  1.00  0.00     0.213 C 
BRANCH   6   7
HETATM    7  C   UNL     1     -36.596 -55.698  17.670  1.00  0.00     0.006 A 
HETATM    8  C   UNL     1     -35.313 -56.166  17.459  1.00  0.00     0.017 A 
HETATM    9  C   UNL     1     -34.321 -55.309  18.015  1.00  0.00     0.008 A 
HETATM   10  C   UNL     1     -34.877 -54.209  18.629  1.00  0.00     0.050 A 
HETATM   11  S   UNL     1     -36.583 -54.215  18.532  1.00  0.00    -0.104 SA
ENDBRANCH   6   7
ENDBRANCH   5   6
ENDBRANCH   4   5
ENDBRANCH   1   4
BRANCH   1  12
HETATM   12  C   UNL     1     -39.943 -53.322  13.956  1.00  0.00     0.164 C 
BRANCH  12  13
HETATM   13  N   UNL     1     -41.200 -53.199  13.238  1.00  0.00    -0.339 N 
HETATM   14  C   UNL     1     -41.377 -52.466  12.095  1.00  0.00     0.184 A 
HETATM   15  N   UNL     1     -42.615 -52.528  11.662  1.00  0.00    -0.350 N 
HETATM   16  C   UNL     1     -43.268 -53.335  12.561  1.00  0.00     0.060 A 
ATOM     17  HN  UNL     1     -43.007 -52.075  10.837  1.00  0.00     0.166 HD
HETATM   18  C   UNL     1     -44.609 -53.745  12.575  1.00  0.00     0.032 A 
HETATM   19  C   UNL     1     -42.406 -53.766  13.570  1.00  0.00     0.062 A 
HETATM   20  C   UNL     1     -45.050 -54.573  13.612  1.00  0.00     0.002 A 
HETATM   21  C   UNL     1     -44.174 -54.986  14.617  1.00  0.00     0.002 A 
HETATM   22  C   UNL     1     -42.828 -54.592  14.618  1.00  0.00     0.032 A 
ENDBRANCH  12  13
ENDBRANCH   1  12
TORSDOF 7
ENDMDL
MODEL 7
REMARK VINA RESULT:      -5.1      3.302      6.068
REMARK  7 active torsions:
REMARK  status: ('A' for Active; 'I' for Inactive)
REMARK    1  A    between atoms: O_1  and  C_2 
REMARK    2  A    between atoms: C_2  and  C_3 
REMARK    3  A    between atoms: C_2  and  C_11 
REMARK    4  A    between atoms: C_3  and  O_4 
REMARK    5  A    between atoms: O_4  and  C_5 
REMARK    6  A    between atoms: C_5  and  C_6 
REMARK    7  A    between atoms: C_11  and  N_12 
ROOT
HETATM    1  C   UNL     1     -39.278 -51.203  12.809  1.00  0.00     0.160 C 
ENDROOT
BRANCH   1   2
HETATM    2  O   UNL     1     -38.359 -51.208  11.710  1.00  0.00    -0.392 OA
HETATM    3  H   UNL     1     -38.690 -51.843  11.049  1.00  0.00     0.210 HD
ENDBRANCH   1   2
BRANCH   1   4
HETATM    4  C   UNL     1     -39.403 -49.759  13.306  1.00  0.00     0.201 C 
BRANCH   4   5
HETATM    5  O   UNL     1     -40.488 -49.092  12.670  1.00  0.00    -0.384 OA
BRANCH   5   6
HETATM    6  C   UNL     1     -40.033 -47.929  11.970  1.00  0.00     0.213 C 
BRANCH   6   7
HETATM    7  C   UNL     1     -41.120 -47.498  11.039  1.00  0.00     0.006 A 
HETATM    8  C   UNL     1     -42.086 -48.258  10.408  1.00  0.00     0.017 A 
HETATM    9  C   UNL     1     -42.969 -47.470   9.616  1.00  0.00     0.008 A 
HETATM   10  C   UNL     1     -42.655 -46.131   9.673  1.00  0.00     0.050 A 
HETATM   11  S   UNL     1     -41.303 -45.832  10.674  1.00  0.00    -0.104 SA
ENDBRANCH   6   7
ENDBRANCH   5   6
ENDBRANCH   4   5
ENDBRANCH   1   4
BRANCH   1  12
HETATM   12  C   UNL     1     -40.635 -51.752  12.353  1.00  0.00     0.164 C 
BRANCH  12  13
HETATM   13  N   UNL     1     -41.136 -52.793  13.234  1.00  0.00    -0.339 N 
HETATM   14  C   UNL     1     -40.388 -53.442  14.178  1.00  0.00     0.184 A 
HETATM   15  N   UNL     1     -41.093 -54.339  14.827  1.00  0.00    -0.350 N 
HETATM   16  C   UNL     1     -42.351 -54.268  14.282  1.00  0.00     0.060 A 
ATOM     17  HN  UNL     1     -40.775 -54.956  15.575  1.00  0.00     0.166 HD
HETATM   18  C   UNL     1     -43.502 -55.000  14.608  1.00  0.00     0.032 A 
HETATM   19  C   UNL     1     -42.408 -53.311  13.269  1.00  0.00     0.062 A 
HETATM   20  C   UNL     1     -44.682 -54.752  13.898  1.00  0.00     0.002 A 
HETATM   21  C   UNL     1     -44.715 -53.796  12.882  1.00  0.00     0.002 A 
HETATM   22  C   UNL     1     -43.576 -53.050  12.545  1.00  0.00     0.032 A 
ENDBRANCH  12  13
ENDBRANCH   1  12
TORSDOF 7
ENDMDL
MODEL 8
REMARK VINA RESULT:      -5.0      3.569      5.619
REMARK  7 active torsions:
REMARK  status: ('A' for Active; 'I' for Inactive)
REMARK    1  A    between atoms: O_1  and  C_2 
REMARK    2  A    between atoms: C_2  and  C_3 
REMARK    3  A    between atoms: C_2  and  C_11 
REMARK    4  A    between atoms: C_3  and  O_4 
REMARK    5  A    between atoms: O_4  and  C_5 
REMARK    6  A    between atoms: C_5  and  C_6 
REMARK    7  A    between atoms: C_11  and  N_12 
ROOT
HETATM    1  C   UNL     1     -42.327 -55.445  16.240  1.00  0.00     0.160 C 
ENDROOT
BRANCH   1   2
HETATM    2  O   UNL     1     -42.384 -56.856  16.486  1.00  0.00    -0.392 OA
HETATM    3  H   UNL     1     -41.548 -57.245  16.170  1.00  0.00     0.210 HD
ENDBRANCH   1   2
BRANCH   1   4
HETATM    4  C   UNL     1     -40.862 -55.073  15.988  1.00  0.00     0.201 C 
BRANCH   4   5
HETATM    5  O   UNL     1     -40.623 -53.703  16.293  1.00  0.00    -0.384 OA
BRANCH   5   6
HETATM    6  C   UNL     1     -39.842 -53.081  15.267  1.00  0.00     0.213 C 
BRANCH   6   7
HETATM    7  C   UNL     1     -40.779 -52.375  14.341  1.00  0.00     0.006 A 
HETATM    8  C   UNL     1     -41.621 -51.308  14.592  1.00  0.00     0.017 A 
HETATM    9  C   UNL     1     -42.340 -50.897  13.434  1.00  0.00     0.008 A 
HETATM   10  C   UNL     1     -42.020 -51.658  12.332  1.00  0.00     0.050 A 
HETATM   11  S   UNL     1     -40.861 -52.859  12.697  1.00  0.00    -0.104 SA
ENDBRANCH   6   7
ENDBRANCH   5   6
ENDBRANCH   4   5
ENDBRANCH   1   4
BRANCH   1  12
HETATM   12  C   UNL     1     -43.203 -55.093  15.032  1.00  0.00     0.164 C 
BRANCH  12  13
HETATM   13  N   UNL     1     -44.048 -53.937  15.278  1.00  0.00    -0.339 N 
HETATM   14  C   UNL     1     -44.191 -53.321  16.492  1.00  0.00     0.184 A 
HETATM   15  N   UNL     1     -45.020 -52.304  16.428  1.00  0.00    -0.350 N 
HETATM   16  C   UNL     1     -45.431 -52.260  15.118  1.00  0.00     0.060 A 
ATOM     17  HN  UNL     1     -45.299 -51.683  17.187  1.00  0.00     0.166 HD
HETATM   18  C   UNL     1     -46.313 -51.366  14.495  1.00  0.00     0.032 A 
HETATM   19  C   UNL     1     -44.845 -53.282  14.371  1.00  0.00     0.062 A 
HETATM   20  C   UNL     1     -46.587 -51.529  13.133  1.00  0.00     0.002 A 
HETATM   21  C   UNL     1     -45.996 -52.562  12.405  1.00  0.00     0.002 A 
HETATM   22  C   UNL     1     -45.107 -53.464  13.009  1.00  0.00     0.032 A 
ENDBRANCH  12  13
ENDBRANCH   1  12
TORSDOF 7
ENDMDL
MODEL 9
REMARK VINA RESULT:      -4.8      2.417      3.527
REMARK  7 active torsions:
REMARK  status: ('A' for Active; 'I' for Inactive)
REMARK    1  A    between atoms: O_1  and  C_2 
REMARK    2  A    between atoms: C_2  and  C_3 
REMARK    3  A    between atoms: C_2  and  C_11 
REMARK    4  A    between atoms: C_3  and  O_4 
REMARK    5  A    between atoms: O_4  and  C_5 
REMARK    6  A    between atoms: C_5  and  C_6 
REMARK    7  A    between atoms: C_11  and  N_12 
ROOT
HETATM    1  C   UNL     1     -40.947 -49.733  12.005  1.00  0.00     0.160 C 
ENDROOT
BRANCH   1   2
HETATM    2  O   UNL     1     -39.530 -49.886  11.851  1.00  0.00    -0.392 OA
HETATM    3  H   UNL     1     -39.375 -50.681  11.309  1.00  0.00     0.210 HD
ENDBRANCH   1   2
BRANCH   1   4
HETATM    4  C   UNL     1     -41.427 -50.801  12.995  1.00  0.00     0.201 C 
BRANCH   4   5
HETATM    5  O   UNL     1     -40.531 -51.906  13.030  1.00  0.00    -0.384 OA
BRANCH   5   6
HETATM    6  C   UNL     1     -41.084 -53.033  12.341  1.00  0.00     0.213 C 
BRANCH   6   7
HETATM    7  C   UNL     1     -42.065 -53.693  13.255  1.00  0.00     0.006 A 
HETATM    8  C   UNL     1     -43.413 -53.935  13.067  1.00  0.00     0.017 A 
HETATM    9  C   UNL     1     -44.003 -54.619  14.168  1.00  0.00     0.008 A 
HETATM   10  C   UNL     1     -43.086 -54.887  15.160  1.00  0.00     0.050 A 
HETATM   11  S   UNL     1     -41.527 -54.313  14.762  1.00  0.00    -0.104 SA
ENDBRANCH   6   7
ENDBRANCH   5   6
ENDBRANCH   4   5
ENDBRANCH   1   4
BRANCH   1  12
HETATM   12  C   UNL     1     -41.264 -48.323  12.515  1.00  0.00     0.164 C 
BRANCH  12  13
HETATM   13  N   UNL     1     -41.525 -47.389  11.433  1.00  0.00    -0.339 N 
HETATM   14  C   UNL     1     -40.626 -46.469  10.964  1.00  0.00     0.184 A 
HETATM   15  N   UNL     1     -41.128 -45.751   9.985  1.00  0.00    -0.350 N 
HETATM   16  C   UNL     1     -42.405 -46.226   9.812  1.00  0.00     0.060 A 
ATOM     17  HN  UNL     1     -40.669 -45.004   9.466  1.00  0.00     0.166 HD
HETATM   18  C   UNL     1     -43.385 -45.823   8.894  1.00  0.00     0.032 A 
HETATM   19  C   UNL     1     -42.688 -47.250  10.716  1.00  0.00     0.062 A 
HETATM   20  C   UNL     1     -44.630 -46.459   8.915  1.00  0.00     0.002 A 
HETATM   21  C   UNL     1     -44.896 -47.476   9.832  1.00  0.00     0.002 A 
HETATM   22  C   UNL     1     -43.928 -47.898  10.756  1.00  0.00     0.032 A 
ENDBRANCH  12  13
ENDBRANCH   1  12
TORSDOF 7
ENDMDL
