MODEL 1
REMARK VINA RESULT:      -6.3      0.000      0.000
REMARK  4 active torsions:
REMARK  status: ('A' for Active; 'I' for Inactive)
REMARK    1  A    between atoms: N_5  and  C_6 
REMARK    2  A    between atoms: C_6  and  C_7 
REMARK    3  A    between atoms: C_7  and  N_8 
REMARK       I    between atoms: N_8  and  C_9 
REMARK       I    between atoms: C_9  and  N_11 
REMARK    4  A    between atoms: N_11  and  C_12 
ROOT
HETATM    1  N   UNL     1     -41.389 -52.407  11.605  1.00  0.00    -0.341 N 
HETATM    2  C   UNL     1     -41.164 -51.091  11.948  1.00  0.00     0.321 C 
HETATM    3  O   UNL     1     -41.324 -50.667  13.085  1.00  0.00    -0.247 OA
HETATM    4  N   UNL     1     -40.822 -50.338  10.852  1.00  0.00    -0.293 N 
HETATM    5  H   UNL     1     -40.707 -52.790  10.966  1.00  0.00     0.164 HD
HETATM    6  H   UNL     1     -41.201 -50.633   9.965  1.00  0.00     0.172 HD
ENDROOT
BRANCH   1   7
HETATM    7  C   UNL     1     -41.942 -53.316  12.598  1.00  0.00     0.154 C 
BRANCH   7   8
HETATM    8  C   UNL     1     -43.485 -53.384  12.518  1.00  0.00     0.292 C 
BRANCH   8   9
HETATM    9  N   UNL     1     -44.169 -53.505  13.818  1.00  0.00     0.090 N 
HETATM   10  C   UNL     1     -45.595 -53.827  13.723  1.00  0.00     0.273 C 
HETATM   11  C   UNL     1     -46.452 -52.684  13.177  1.00  0.00     0.034 C 
HETATM   12  C   UNL     1     -46.264 -51.384  13.971  1.00  0.00    -0.015 C 
HETATM   13  C   UNL     1     -46.983 -51.447  15.322  1.00  0.00     0.010 C 
HETATM   14  C   UNL     1     -44.771 -51.076  14.144  1.00  0.00     0.034 C 
HETATM   15  C   UNL     1     -43.969 -52.290  14.632  1.00  0.00     0.273 C 
ENDBRANCH   8   9
ENDBRANCH   7   8
ENDBRANCH   1   7
BRANCH   4  16
HETATM   16  C   UNL     1     -40.656 -48.974  10.965  1.00  0.00     0.132 A 
HETATM   17  C   UNL     1     -41.581 -47.962  10.630  1.00  0.00     0.084 A 
HETATM   18  C   UNL     1     -40.887 -46.794  10.813  1.00  0.00     0.076 A 
HETATM   19  C   UNL     1     -41.205 -45.375  10.584  1.00  0.00     0.079 C 
HETATM   20  O   UNL     1     -39.646 -47.081  11.286  1.00  0.00    -0.241 OA
HETATM   21  N   UNL     1     -39.516 -48.454  11.432  1.00  0.00    -0.245 N 
ATOM     22  HN  UNL     1     -38.718 -48.961  11.815  1.00  0.00     0.196 HD
ENDBRANCH   4  16
TORSDOF 4
ENDMDL
MODEL 2
REMARK VINA RESULT:      -6.1      1.142      1.233
REMARK  4 active torsions:
REMARK  status: ('A' for Active; 'I' for Inactive)
REMARK    1  A    between atoms: N_5  and  C_6 
REMARK    2  A    between atoms: C_6  and  C_7 
REMARK    3  A    between atoms: C_7  and  N_8 
REMARK       I    between atoms: N_8  and  C_9 
REMARK       I    between atoms: C_9  and  N_11 
REMARK    4  A    between atoms: N_11  and  C_12 
ROOT
HETATM    1  N   UNL     1     -41.083 -51.263  11.294  1.00  0.00    -0.341 N 
HETATM    2  C   UNL     1     -41.035 -49.933  11.652  1.00  0.00     0.321 C 
HETATM    3  O   UNL     1     -41.011 -49.562  12.819  1.00  0.00    -0.247 OA
HETATM    4  N   UNL     1     -41.096 -49.114  10.551  1.00  0.00    -0.293 N 
HETATM    5  H   UNL     1     -40.504 -51.499  10.501  1.00  0.00     0.164 HD
HETATM    6  H   UNL     1     -41.603 -49.466   9.753  1.00  0.00     0.172 HD
ENDROOT
BRANCH   1   7
HETATM    7  C   UNL     1     -41.219 -52.275  12.332  1.00  0.00     0.154 C 
BRANCH   7   8
HETATM    8  C   UNL     1     -42.609 -52.950  12.297  1.00  0.00     0.292 C 
BRANCH   8   9
HETATM    9  N   UNL     1     -43.314 -52.986  13.591  1.00  0.00     0.090 N 
HETATM   10  C   UNL     1     -44.616 -53.657  13.552  1.00  0.00     0.273 C 
HETATM   11  C   UNL     1     -45.689 -52.881  12.786  1.00  0.00     0.034 C 
HETATM   12  C   UNL     1     -45.857 -51.449  13.312  1.00  0.00    -0.015 C 
HETATM   13  C   UNL     1     -46.613 -51.428  14.644  1.00  0.00     0.010 C 
HETATM   14  C   UNL     1     -44.491 -50.760  13.431  1.00  0.00     0.034 C 
HETATM   15  C   UNL     1     -43.452 -51.628  14.153  1.00  0.00     0.273 C 
ENDBRANCH   8   9
ENDBRANCH   7   8
ENDBRANCH   1   7
BRANCH   4  16
HETATM   16  C   UNL     1     -41.166 -47.746  10.701  1.00  0.00     0.132 A 
HETATM   17  C   UNL     1     -42.322 -46.955  10.878  1.00  0.00     0.084 A 
HETATM   18  C   UNL     1     -41.859 -45.666  10.850  1.00  0.00     0.076 A 
HETATM   19  C   UNL     1     -42.513 -44.348  10.900  1.00  0.00     0.079 C 
HETATM   20  O   UNL     1     -40.505 -45.680  10.726  1.00  0.00    -0.241 OA
HETATM   21  N   UNL     1     -40.061 -46.993  10.684  1.00  0.00    -0.245 N 
ATOM     22  HN  UNL     1     -39.095 -47.316  10.647  1.00  0.00     0.196 HD
ENDBRANCH   4  16
TORSDOF 4
ENDMDL
MODEL 3
REMARK VINA RESULT:      -6.0      2.534      3.669
REMARK  4 active torsions:
REMARK  status: ('A' for Active; 'I' for Inactive)
REMARK    1  A    between atoms: N_5  and  C_6 
REMARK    2  A    between atoms: C_6  and  C_7 
REMARK    3  A    between atoms: C_7  and  N_8 
REMARK       I    between atoms: N_8  and  C_9 
REMARK       I    between atoms: C_9  and  N_11 
REMARK    4  A    between atoms: N_11  and  C_12 
ROOT
HETATM    1  N   UNL     1     -40.263 -49.845  10.696  1.00  0.00    -0.341 N 
HETATM    2  C   UNL     1     -41.134 -48.780  10.760  1.00  0.00     0.321 C 
HETATM    3  O   UNL     1     -41.405 -48.210  11.810  1.00  0.00    -0.247 OA
HETATM    4  N   UNL     1     -41.693 -48.513   9.535  1.00  0.00    -0.293 N 
HETATM    5  H   UNL     1     -39.650 -49.830   9.893  1.00  0.00     0.164 HD
HETATM    6  H   UNL     1     -41.805 -49.296   8.909  1.00  0.00     0.172 HD
ENDROOT
BRANCH   1   7
HETATM    7  C   UNL     1     -39.717 -50.395  11.929  1.00  0.00     0.154 C 
BRANCH   7   8
HETATM    8  C   UNL     1     -40.303 -51.790  12.244  1.00  0.00     0.292 C 
BRANCH   8   9
HETATM    9  N   UNL     1     -41.046 -51.878  13.514  1.00  0.00     0.090 N 
HETATM   10  C   UNL     1     -40.986 -53.191  14.160  1.00  0.00     0.273 C 
HETATM   11  C   UNL     1     -41.767 -54.280  13.422  1.00  0.00     0.034 C 
HETATM   12  C   UNL     1     -43.230 -53.885  13.181  1.00  0.00    -0.015 C 
HETATM   13  C   UNL     1     -44.055 -53.989  14.469  1.00  0.00     0.010 C 
HETATM   14  C   UNL     1     -43.310 -52.477  12.576  1.00  0.00     0.034 C 
HETATM   15  C   UNL     1     -42.450 -51.458  13.333  1.00  0.00     0.273 C 
ENDBRANCH   8   9
ENDBRANCH   7   8
ENDBRANCH   1   7
BRANCH   4  16
HETATM   16  C   UNL     1     -42.671 -47.549   9.408  1.00  0.00     0.132 A 
HETATM   17  C   UNL     1     -44.064 -47.744   9.292  1.00  0.00     0.084 A 
HETATM   18  C   UNL     1     -44.565 -46.488   9.070  1.00  0.00     0.076 A 
HETATM   19  C   UNL     1     -45.911 -45.965   8.787  1.00  0.00     0.079 C 
HETATM   20  O   UNL     1     -43.548 -45.588   9.109  1.00  0.00    -0.241 OA
HETATM   21  N   UNL     1     -42.358 -46.250   9.374  1.00  0.00    -0.245 N 
ATOM     22  HN  UNL     1     -41.438 -45.833   9.514  1.00  0.00     0.196 HD
ENDBRANCH   4  16
TORSDOF 4
ENDMDL
MODEL 4
REMARK VINA RESULT:      -5.8      2.408      3.019
REMARK  4 active torsions:
REMARK  status: ('A' for Active; 'I' for Inactive)
REMARK    1  A    between atoms: N_5  and  C_6 
REMARK    2  A    between atoms: C_6  and  C_7 
REMARK    3  A    between atoms: C_7  and  N_8 
REMARK       I    between atoms: N_8  and  C_9 
REMARK       I    between atoms: C_9  and  N_11 
REMARK    4  A    between atoms: N_11  and  C_12 
ROOT
HETATM    1  N   UNL     1     -43.875 -52.603  12.343  1.00  0.00    -0.341 N 
HETATM    2  C   UNL     1     -42.498 -52.571  12.337  1.00  0.00     0.321 C 
HETATM    3  O   UNL     1     -41.812 -53.541  12.635  1.00  0.00    -0.247 OA
HETATM    4  N   UNL     1     -42.026 -51.317  12.037  1.00  0.00    -0.293 N 
HETATM    5  H   UNL     1     -44.304 -52.113  11.571  1.00  0.00     0.164 HD
HETATM    6  H   UNL     1     -42.608 -50.538  12.308  1.00  0.00     0.172 HD
ENDROOT
BRANCH   1   7
HETATM    7  C   UNL     1     -44.558 -53.797  12.821  1.00  0.00     0.154 C 
BRANCH   7   8
HETATM    8  C   UNL     1     -44.623 -53.840  14.365  1.00  0.00     0.292 C 
BRANCH   8   9
HETATM    9  N   UNL     1     -45.985 -53.871  14.928  1.00  0.00     0.090 N 
HETATM   10  C   UNL     1     -46.910 -52.908  14.324  1.00  0.00     0.273 C 
HETATM   11  C   UNL     1     -46.604 -51.451  14.677  1.00  0.00     0.034 C 
HETATM   12  C   UNL     1     -46.532 -51.223  16.193  1.00  0.00    -0.015 C 
HETATM   13  C   UNL     1     -47.928 -51.215  16.824  1.00  0.00     0.010 C 
HETATM   14  C   UNL     1     -45.626 -52.274  16.849  1.00  0.00     0.034 C 
HETATM   15  C   UNL     1     -45.953 -53.703  16.394  1.00  0.00     0.273 C 
ENDBRANCH   8   9
ENDBRANCH   7   8
ENDBRANCH   1   7
BRANCH   4  16
HETATM   16  C   UNL     1     -40.675 -51.050  12.082  1.00  0.00     0.132 A 
HETATM   17  C   UNL     1     -39.952 -50.122  11.300  1.00  0.00     0.084 A 
HETATM   18  C   UNL     1     -38.643 -50.335  11.646  1.00  0.00     0.076 A 
HETATM   19  C   UNL     1     -37.363 -49.780  11.175  1.00  0.00     0.079 C 
HETATM   20  O   UNL     1     -38.585 -51.285  12.616  1.00  0.00    -0.241 OA
HETATM   21  N   UNL     1     -39.871 -51.700  12.929  1.00  0.00    -0.245 N 
ATOM     22  HN  UNL     1     -40.145 -52.363  13.654  1.00  0.00     0.196 HD
ENDBRANCH   4  16
TORSDOF 4
ENDMDL
MODEL 5
REMARK VINA RESULT:      -5.8      1.847      2.781
REMARK  4 active torsions:
REMARK  status: ('A' for Active; 'I' for Inactive)
REMARK    1  A    between atoms: N_5  and  C_6 
REMARK    2  A    between atoms: C_6  and  C_7 
REMARK    3  A    between atoms: C_7  and  N_8 
REMARK       I    between atoms: N_8  and  C_9 
REMARK       I    between atoms: C_9  and  N_11 
REMARK    4  A    between atoms: N_11  and  C_12 
ROOT
HETATM    1  N   UNL     1     -40.768 -50.359  10.985  1.00  0.00    -0.341 N 
HETATM    2  C   UNL     1     -40.646 -49.017  11.272  1.00  0.00     0.321 C 
HETATM    3  O   UNL     1     -40.068 -48.604  12.270  1.00  0.00    -0.247 OA
HETATM    4  N   UNL     1     -41.310 -48.243  10.352  1.00  0.00    -0.293 N 
HETATM    5  H   UNL     1     -40.649 -50.585  10.008  1.00  0.00     0.164 HD
HETATM    6  H   UNL     1     -42.122 -48.656   9.917  1.00  0.00     0.172 HD
ENDROOT
BRANCH   1   7
HETATM    7  C   UNL     1     -40.290 -51.340  11.949  1.00  0.00     0.154 C 
BRANCH   7   8
HETATM    8  C   UNL     1     -41.346 -52.435  12.224  1.00  0.00     0.292 C 
BRANCH   8   9
HETATM    9  N   UNL     1     -42.289 -52.125  13.314  1.00  0.00     0.090 N 
HETATM   10  C   UNL     1     -42.154 -52.984  14.493  1.00  0.00     0.273 C 
HETATM   11  C   UNL     1     -42.612 -54.426  14.266  1.00  0.00     0.034 C 
HETATM   12  C   UNL     1     -44.048 -54.502  13.729  1.00  0.00    -0.015 C 
HETATM   13  C   UNL     1     -45.072 -54.217  14.832  1.00  0.00     0.010 C 
HETATM   14  C   UNL     1     -44.225 -53.548  12.540  1.00  0.00     0.034 C 
HETATM   15  C   UNL     1     -43.682 -52.141  12.824  1.00  0.00     0.273 C 
ENDBRANCH   8   9
ENDBRANCH   7   8
ENDBRANCH   1   7
BRANCH   4  16
HETATM   16  C   UNL     1     -41.397 -46.878  10.520  1.00  0.00     0.132 A 
HETATM   17  C   UNL     1     -42.488 -46.138  11.025  1.00  0.00     0.084 A 
HETATM   18  C   UNL     1     -42.112 -44.829  10.868  1.00  0.00     0.076 A 
HETATM   19  C   UNL     1     -42.784 -43.542  11.108  1.00  0.00     0.079 C 
HETATM   20  O   UNL     1     -40.853 -44.784  10.358  1.00  0.00    -0.241 OA
HETATM   21  N   UNL     1     -40.380 -46.076  10.186  1.00  0.00    -0.245 N 
ATOM     22  HN  UNL     1     -39.452 -46.357   9.872  1.00  0.00     0.196 HD
ENDBRANCH   4  16
TORSDOF 4
ENDMDL
MODEL 6
REMARK VINA RESULT:      -5.6      4.119      7.388
REMARK  4 active torsions:
REMARK  status: ('A' for Active; 'I' for Inactive)
REMARK    1  A    between atoms: N_5  and  C_6 
REMARK    2  A    between atoms: C_6  and  C_7 
REMARK    3  A    between atoms: C_7  and  N_8 
REMARK       I    between atoms: N_8  and  C_9 
REMARK       I    between atoms: C_9  and  N_11 
REMARK    4  A    between atoms: N_11  and  C_12 
ROOT
HETATM    1  N   UNL     1     -42.251 -47.566   9.713  1.00  0.00    -0.341 N 
HETATM    2  C   UNL     1     -41.993 -48.491  10.702  1.00  0.00     0.321 C 
HETATM    3  O   UNL     1     -42.667 -48.574  11.721  1.00  0.00    -0.247 OA
HETATM    4  N   UNL     1     -40.867 -49.225  10.422  1.00  0.00    -0.293 N 
HETATM    5  H   UNL     1     -42.145 -47.924   8.775  1.00  0.00     0.164 HD
HETATM    6  H   UNL     1     -40.152 -48.766   9.879  1.00  0.00     0.172 HD
ENDROOT
BRANCH   1   7
HETATM    7  C   UNL     1     -43.294 -46.572   9.923  1.00  0.00     0.154 C 
BRANCH   7   8
HETATM    8  C   UNL     1     -42.702 -45.173  10.212  1.00  0.00     0.292 C 
BRANCH   8   9
HETATM    9  N   UNL     1     -42.269 -44.960  11.605  1.00  0.00     0.090 N 
HETATM   10  C   UNL     1     -42.681 -43.676  12.177  1.00  0.00     0.273 C 
HETATM   11  C   UNL     1     -41.955 -42.470  11.578  1.00  0.00     0.034 C 
HETATM   12  C   UNL     1     -40.429 -42.609  11.660  1.00  0.00    -0.015 C 
HETATM   13  C   UNL     1     -39.922 -42.367  13.086  1.00  0.00     0.010 C 
HETATM   14  C   UNL     1     -39.990 -43.983  11.135  1.00  0.00     0.034 C 
HETATM   15  C   UNL     1     -40.808 -45.135  11.734  1.00  0.00     0.273 C 
ENDBRANCH   8   9
ENDBRANCH   7   8
ENDBRANCH   1   7
BRANCH   4  16
HETATM   16  C   UNL     1     -40.380 -50.133  11.337  1.00  0.00     0.132 A 
HETATM   17  C   UNL     1     -39.389 -49.921  12.320  1.00  0.00     0.084 A 
HETATM   18  C   UNL     1     -39.189 -51.159  12.873  1.00  0.00     0.076 A 
HETATM   19  C   UNL     1     -38.260 -51.682  13.887  1.00  0.00     0.079 C 
HETATM   20  O   UNL     1     -40.047 -52.047  12.304  1.00  0.00    -0.241 OA
HETATM   21  N   UNL     1     -40.835 -51.390  11.371  1.00  0.00    -0.245 N 
ATOM     22  HN  UNL     1     -41.601 -51.783  10.825  1.00  0.00     0.196 HD
ENDBRANCH   4  16
TORSDOF 4
ENDMDL
MODEL 7
REMARK VINA RESULT:      -5.6      3.711      7.129
REMARK  4 active torsions:
REMARK  status: ('A' for Active; 'I' for Inactive)
REMARK    1  A    between atoms: N_5  and  C_6 
REMARK    2  A    between atoms: C_6  and  C_7 
REMARK    3  A    between atoms: C_7  and  N_8 
REMARK       I    between atoms: N_8  and  C_9 
REMARK       I    between atoms: C_9  and  N_11 
REMARK    4  A    between atoms: N_11  and  C_12 
ROOT
HETATM    1  N   UNL     1     -41.128 -47.953  10.242  1.00  0.00    -0.341 N 
HETATM    2  C   UNL     1     -41.409 -49.049  11.029  1.00  0.00     0.321 C 
HETATM    3  O   UNL     1     -42.348 -49.075  11.815  1.00  0.00    -0.247 OA
HETATM    4  N   UNL     1     -40.472 -50.038  10.866  1.00  0.00    -0.293 N 
HETATM    5  H   UNL     1     -40.847 -48.183   9.299  1.00  0.00     0.164 HD
HETATM    6  H   UNL     1     -39.538 -49.741  10.626  1.00  0.00     0.172 HD
ENDROOT
BRANCH   1   7
HETATM    7  C   UNL     1     -41.904 -46.733  10.416  1.00  0.00     0.154 C 
BRANCH   7   8
HETATM    8  C   UNL     1     -41.009 -45.537  10.815  1.00  0.00     0.292 C 
BRANCH   8   9
HETATM    9  N   UNL     1     -41.349 -44.912  12.106  1.00  0.00     0.090 N 
HETATM   10  C   UNL     1     -40.396 -43.893  12.554  1.00  0.00     0.273 C 
HETATM   11  C   UNL     1     -39.041 -44.458  12.982  1.00  0.00     0.034 C 
HETATM   12  C   UNL     1     -39.176 -45.549  14.052  1.00  0.00    -0.015 C 
HETATM   13  C   UNL     1     -39.501 -44.947  15.424  1.00  0.00     0.010 C 
HETATM   14  C   UNL     1     -40.229 -46.583  13.630  1.00  0.00     0.034 C 
HETATM   15  C   UNL     1     -41.536 -45.936  13.153  1.00  0.00     0.273 C 
ENDBRANCH   8   9
ENDBRANCH   7   8
ENDBRANCH   1   7
BRANCH   4  16
HETATM   16  C   UNL     1     -40.515 -51.176  11.643  1.00  0.00     0.132 A 
HETATM   17  C   UNL     1     -39.823 -51.426  12.847  1.00  0.00     0.084 A 
HETATM   18  C   UNL     1     -40.114 -52.733  13.142  1.00  0.00     0.076 A 
HETATM   19  C   UNL     1     -39.677 -53.659  14.199  1.00  0.00     0.079 C 
HETATM   20  O   UNL     1     -40.974 -53.220  12.209  1.00  0.00    -0.241 OA
HETATM   21  N   UNL     1     -41.268 -52.223  11.290  1.00  0.00    -0.245 N 
ATOM     22  HN  UNL     1     -41.923 -52.277  10.510  1.00  0.00     0.196 HD
ENDBRANCH   4  16
TORSDOF 4
ENDMDL
MODEL 8
REMARK VINA RESULT:      -5.5      3.797      7.466
REMARK  4 active torsions:
REMARK  status: ('A' for Active; 'I' for Inactive)
REMARK    1  A    between atoms: N_5  and  C_6 
REMARK    2  A    between atoms: C_6  and  C_7 
REMARK    3  A    between atoms: C_7  and  N_8 
REMARK       I    between atoms: N_8  and  C_9 
REMARK       I    between atoms: C_9  and  N_11 
REMARK    4  A    between atoms: N_11  and  C_12 
ROOT
HETATM    1  N   UNL     1     -39.836 -51.687  12.106  1.00  0.00    -0.341 N 
HETATM    2  C   UNL     1     -41.195 -51.803  12.299  1.00  0.00     0.321 C 
HETATM    3  O   UNL     1     -41.924 -50.833  12.466  1.00  0.00    -0.247 OA
HETATM    4  N   UNL     1     -41.585 -53.118  12.351  1.00  0.00    -0.293 N 
HETATM    5  H   UNL     1     -39.462 -52.316  11.410  1.00  0.00     0.164 HD
HETATM    6  H   UNL     1     -40.908 -53.777  12.704  1.00  0.00     0.172 HD
ENDROOT
BRANCH   1   7
HETATM    7  C   UNL     1     -39.211 -50.376  12.210  1.00  0.00     0.154 C 
BRANCH   7   8
HETATM    8  C   UNL     1     -38.168 -50.327  13.350  1.00  0.00     0.292 C 
BRANCH   8   9
HETATM    9  N   UNL     1     -38.645 -49.705  14.599  1.00  0.00     0.090 N 
HETATM   10  C   UNL     1     -38.616 -48.241  14.595  1.00  0.00     0.273 C 
HETATM   11  C   UNL     1     -37.206 -47.650  14.631  1.00  0.00     0.034 C 
HETATM   12  C   UNL     1     -36.380 -48.183  15.809  1.00  0.00    -0.015 C 
HETATM   13  C   UNL     1     -36.818 -47.545  17.131  1.00  0.00     0.010 C 
HETATM   14  C   UNL     1     -36.466 -49.714  15.871  1.00  0.00     0.034 C 
HETATM   15  C   UNL     1     -37.906 -50.231  15.764  1.00  0.00     0.273 C 
ENDBRANCH   8   9
ENDBRANCH   7   8
ENDBRANCH   1   7
BRANCH   4  16
HETATM   16  C   UNL     1     -42.892 -53.448  12.641  1.00  0.00     0.132 A 
HETATM   17  C   UNL     1     -43.361 -54.282  13.679  1.00  0.00     0.084 A 
HETATM   18  C   UNL     1     -44.710 -54.379  13.453  1.00  0.00     0.076 A 
HETATM   19  C   UNL     1     -45.797 -55.137  14.094  1.00  0.00     0.079 C 
HETATM   20  O   UNL     1     -45.041 -53.606  12.386  1.00  0.00    -0.241 OA
HETATM   21  N   UNL     1     -43.902 -52.977  11.903  1.00  0.00    -0.245 N 
ATOM     22  HN  UNL     1     -43.848 -52.297  11.145  1.00  0.00     0.196 HD
ENDBRANCH   4  16
TORSDOF 4
ENDMDL
MODEL 9
REMARK VINA RESULT:      -5.4      3.452      7.583
REMARK  4 active torsions:
REMARK  status: ('A' for Active; 'I' for Inactive)
REMARK    1  A    between atoms: N_5  and  C_6 
REMARK    2  A    between atoms: C_6  and  C_7 
REMARK    3  A    between atoms: C_7  and  N_8 
REMARK       I    between atoms: N_8  and  C_9 
REMARK       I    between atoms: C_9  and  N_11 
REMARK    4  A    between atoms: N_11  and  C_12 
ROOT
HETATM    1  N   UNL     1     -40.974 -49.392  10.573  1.00  0.00    -0.341 N 
HETATM    2  C   UNL     1     -41.344 -50.345  11.497  1.00  0.00     0.321 C 
HETATM    3  O   UNL     1     -42.268 -50.180  12.284  1.00  0.00    -0.247 OA
HETATM    4  N   UNL     1     -40.506 -51.432  11.460  1.00  0.00    -0.293 N 
HETATM    5  H   UNL     1     -40.731 -49.767   9.667  1.00  0.00     0.164 HD
HETATM    6  H   UNL     1     -39.553 -51.259  11.178  1.00  0.00     0.172 HD
ENDROOT
BRANCH   1   7
HETATM    7  C   UNL     1     -41.629 -48.091  10.591  1.00  0.00     0.154 C 
BRANCH   7   8
HETATM    8  C   UNL     1     -40.672 -46.975  11.071  1.00  0.00     0.292 C 
BRANCH   8   9
HETATM    9  N   UNL     1     -40.836 -45.681  10.384  1.00  0.00     0.090 N 
HETATM   10  C   UNL     1     -39.692 -44.776  10.518  1.00  0.00     0.273 C 
HETATM   11  C   UNL     1     -39.514 -44.208  11.927  1.00  0.00     0.034 C 
HETATM   12  C   UNL     1     -40.785 -43.519  12.442  1.00  0.00    -0.015 C 
HETATM   13  C   UNL     1     -40.986 -42.152  11.779  1.00  0.00     0.010 C 
HETATM   14  C   UNL     1     -42.005 -44.427  12.236  1.00  0.00     0.034 C 
HETATM   15  C   UNL     1     -42.077 -45.009  10.818  1.00  0.00     0.273 C 
ENDBRANCH   8   9
ENDBRANCH   7   8
ENDBRANCH   1   7
BRANCH   4  16
HETATM   16  C   UNL     1     -40.643 -52.452  12.377  1.00  0.00     0.132 A 
HETATM   17  C   UNL     1     -39.864 -52.685  13.531  1.00  0.00     0.084 A 
HETATM   18  C   UNL     1     -40.328 -53.879  14.018  1.00  0.00     0.076 A 
HETATM   19  C   UNL     1     -39.927 -54.745  15.139  1.00  0.00     0.079 C 
HETATM   20  O   UNL     1     -41.360 -54.306  13.245  1.00  0.00    -0.241 OA
HETATM   21  N   UNL     1     -41.594 -53.381  12.239  1.00  0.00    -0.245 N 
ATOM     22  HN  UNL     1     -42.336 -53.404  11.540  1.00  0.00     0.196 HD
ENDBRANCH   4  16
TORSDOF 4
ENDMDL
