MODEL 1
REMARK VINA RESULT:      -6.2      0.000      0.000
REMARK  5 active torsions:
REMARK  status: ('A' for Active; 'I' for Inactive)
REMARK    1  A    between atoms: C_2  and  N_3 
REMARK    2  A    between atoms: C_2  and  C_10 
REMARK       I    between atoms: C_10  and  N_12 
REMARK    3  A    between atoms: N_12  and  C_13 
REMARK    4  A    between atoms: C_13  and  C_14 
REMARK    5  A    between atoms: C_14  and  C_15 
ROOT
HETATM    1  C   UNL     1     -41.269 -52.418  12.351  1.00  0.00     0.251 C 
HETATM    2  O   UNL     1     -40.089 -52.729  12.515  1.00  0.00    -0.271 OA
HETATM    3  N   UNL     1     -41.645 -51.265  11.693  1.00  0.00    -0.359 N 
HETATM    4  H   UNL     1     -42.608 -50.961  11.829  1.00  0.00     0.162 HD
ENDROOT
BRANCH   1   5
HETATM    5  C   UNL     1     -42.452 -53.298  12.830  1.00  0.00     0.310 C 
HETATM    6  C   UNL     1     -41.994 -54.191  13.992  1.00  0.00     0.053 C 
BRANCH   5   7
HETATM    7  N   UNL     1     -43.653 -52.443  13.114  1.00  0.00     0.101 N 
HETATM    8  C   UNL     1     -43.777 -52.133  14.548  1.00  0.00     0.273 C 
HETATM    9  C   UNL     1     -44.680 -50.927  14.812  1.00  0.00     0.030 C 
HETATM   10  C   UNL     1     -46.151 -51.271  15.023  1.00  0.00     0.002 C 
HETATM   11  C   UNL     1     -46.723 -52.343  14.104  1.00  0.00     0.002 C 
HETATM   12  C   UNL     1     -46.178 -52.294  12.680  1.00  0.00     0.030 C 
HETATM   13  C   UNL     1     -44.855 -53.051  12.518  1.00  0.00     0.273 C 
ENDBRANCH   5   7
ENDBRANCH   1   5
BRANCH   3  14
HETATM   14  C   UNL     1     -40.656 -50.280  11.302  1.00  0.00     0.130 C 
BRANCH  14  15
HETATM   15  C   UNL     1     -40.897 -48.898  11.903  1.00  0.00     0.096 C 
BRANCH  15  16
HETATM   16  C   UNL     1     -41.755 -48.042  11.030  1.00  0.00     0.084 A 
HETATM   17  N   UNL     1     -42.945 -48.383  10.574  1.00  0.00    -0.354 N 
HETATM   18  C   UNL     1     -43.364 -47.338   9.795  1.00  0.00     0.106 A 
ATOM     19  HN  UNL     1     -43.450 -49.248  10.763  1.00  0.00     0.166 HD
HETATM   20  C   UNL     1     -42.424 -46.335   9.785  1.00  0.00     0.108 A 
HETATM   21  N   UNL     1     -41.411 -46.787  10.585  1.00  0.00    -0.350 N 
HETATM   22  C   UNL     1     -40.208 -46.056  10.899  1.00  0.00     0.156 C 
ENDBRANCH  15  16
ENDBRANCH  14  15
ENDBRANCH   3  14
TORSDOF 5
ENDMDL
MODEL 2
REMARK VINA RESULT:      -6.0      1.129      1.728
REMARK  5 active torsions:
REMARK  status: ('A' for Active; 'I' for Inactive)
REMARK    1  A    between atoms: C_2  and  N_3 
REMARK    2  A    between atoms: C_2  and  C_10 
REMARK       I    between atoms: C_10  and  N_12 
REMARK    3  A    between atoms: N_12  and  C_13 
REMARK    4  A    between atoms: C_13  and  C_14 
REMARK    5  A    between atoms: C_14  and  C_15 
ROOT
HETATM    1  C   UNL     1     -41.545 -51.907  12.187  1.00  0.00     0.251 C 
HETATM    2  O   UNL     1     -40.368 -52.267  12.160  1.00  0.00    -0.271 OA
HETATM    3  N   UNL     1     -41.943 -50.647  11.789  1.00  0.00    -0.359 N 
HETATM    4  H   UNL     1     -42.872 -50.352  12.084  1.00  0.00     0.162 HD
ENDROOT
BRANCH   1   5
HETATM    5  C   UNL     1     -42.705 -52.833  12.635  1.00  0.00     0.310 C 
HETATM    6  C   UNL     1     -42.161 -53.933  13.557  1.00  0.00     0.053 C 
BRANCH   5   7
HETATM    7  N   UNL     1     -43.830 -52.018  13.204  1.00  0.00     0.101 N 
HETATM    8  C   UNL     1     -43.765 -51.946  14.673  1.00  0.00     0.273 C 
HETATM    9  C   UNL     1     -44.585 -50.786  15.241  1.00  0.00     0.030 C 
HETATM   10  C   UNL     1     -46.030 -51.137  15.579  1.00  0.00     0.002 C 
HETATM   11  C   UNL     1     -46.749 -52.035  14.580  1.00  0.00     0.002 C 
HETATM   12  C   UNL     1     -46.383 -51.761  13.125  1.00  0.00     0.030 C 
HETATM   13  C   UNL     1     -45.118 -52.502  12.676  1.00  0.00     0.273 C 
ENDBRANCH   5   7
ENDBRANCH   1   5
BRANCH   3  14
HETATM   14  C   UNL     1     -40.962 -49.629  11.467  1.00  0.00     0.130 C 
BRANCH  14  15
HETATM   15  C   UNL     1     -41.504 -48.518  10.572  1.00  0.00     0.096 C 
BRANCH  15  16
HETATM   16  C   UNL     1     -41.048 -47.164  11.009  1.00  0.00     0.084 A 
HETATM   17  N   UNL     1     -39.979 -46.543  10.550  1.00  0.00    -0.354 N 
HETATM   18  C   UNL     1     -39.909 -45.359  11.232  1.00  0.00     0.106 A 
ATOM     19  HN  UNL     1     -39.335 -46.878   9.833  1.00  0.00     0.166 HD
HETATM   20  C   UNL     1     -40.959 -45.244  12.112  1.00  0.00     0.108 A 
HETATM   21  N   UNL     1     -41.685 -46.392  11.951  1.00  0.00    -0.350 N 
HETATM   22  C   UNL     1     -42.905 -46.709  12.652  1.00  0.00     0.156 C 
ENDBRANCH  15  16
ENDBRANCH  14  15
ENDBRANCH   3  14
TORSDOF 5
ENDMDL
MODEL 3
REMARK VINA RESULT:      -5.9      2.767      3.613
REMARK  5 active torsions:
REMARK  status: ('A' for Active; 'I' for Inactive)
REMARK    1  A    between atoms: C_2  and  N_3 
REMARK    2  A    between atoms: C_2  and  C_10 
REMARK       I    between atoms: C_10  and  N_12 
REMARK    3  A    between atoms: N_12  and  C_13 
REMARK    4  A    between atoms: C_13  and  C_14 
REMARK    5  A    between atoms: C_14  and  C_15 
ROOT
HETATM    1  C   UNL     1     -42.520 -53.681  13.193  1.00  0.00     0.251 C 
HETATM    2  O   UNL     1     -41.481 -54.214  13.581  1.00  0.00    -0.271 OA
HETATM    3  N   UNL     1     -42.540 -52.760  12.165  1.00  0.00    -0.359 N 
HETATM    4  H   UNL     1     -43.380 -52.188  12.087  1.00  0.00     0.162 HD
ENDROOT
BRANCH   1   5
HETATM    5  C   UNL     1     -43.914 -54.008  13.787  1.00  0.00     0.310 C 
HETATM    6  C   UNL     1     -43.783 -55.132  14.824  1.00  0.00     0.053 C 
BRANCH   5   7
HETATM    7  N   UNL     1     -44.575 -52.754  14.281  1.00  0.00     0.101 N 
HETATM    8  C   UNL     1     -44.408 -52.584  15.734  1.00  0.00     0.273 C 
HETATM    9  C   UNL     1     -44.650 -51.144  16.189  1.00  0.00     0.030 C 
HETATM   10  C   UNL     1     -46.092 -50.836  16.579  1.00  0.00     0.002 C 
HETATM   11  C   UNL     1     -47.168 -51.443  15.687  1.00  0.00     0.002 C 
HETATM   12  C   UNL     1     -46.800 -51.476  14.207  1.00  0.00     0.030 C 
HETATM   13  C   UNL     1     -45.974 -52.709  13.822  1.00  0.00     0.273 C 
ENDBRANCH   5   7
ENDBRANCH   1   5
BRANCH   3  14
HETATM   14  C   UNL     1     -41.304 -52.257  11.598  1.00  0.00     0.130 C 
BRANCH  14  15
HETATM   15  C   UNL     1     -40.880 -50.903  12.160  1.00  0.00     0.096 C 
BRANCH  15  16
HETATM   16  C   UNL     1     -39.405 -50.684  12.061  1.00  0.00     0.084 A 
HETATM   17  N   UNL     1     -38.805 -50.015  11.095  1.00  0.00    -0.354 N 
HETATM   18  C   UNL     1     -37.465 -50.084  11.366  1.00  0.00     0.106 A 
ATOM     19  HN  UNL     1     -39.249 -49.542  10.308  1.00  0.00     0.166 HD
HETATM   20  C   UNL     1     -37.240 -50.792  12.522  1.00  0.00     0.108 A 
HETATM   21  N   UNL     1     -38.482 -51.158  12.963  1.00  0.00    -0.350 N 
HETATM   22  C   UNL     1     -38.752 -51.901  14.169  1.00  0.00     0.156 C 
ENDBRANCH  15  16
ENDBRANCH  14  15
ENDBRANCH   3  14
TORSDOF 5
ENDMDL
MODEL 4
REMARK VINA RESULT:      -5.5      2.964      3.692
REMARK  5 active torsions:
REMARK  status: ('A' for Active; 'I' for Inactive)
REMARK    1  A    between atoms: C_2  and  N_3 
REMARK    2  A    between atoms: C_2  and  C_10 
REMARK       I    between atoms: C_10  and  N_12 
REMARK    3  A    between atoms: N_12  and  C_13 
REMARK    4  A    between atoms: C_13  and  C_14 
REMARK    5  A    between atoms: C_14  and  C_15 
ROOT
HETATM    1  C   UNL     1     -42.136 -53.504  13.294  1.00  0.00     0.251 C 
HETATM    2  O   UNL     1     -41.966 -52.848  12.266  1.00  0.00    -0.271 OA
HETATM    3  N   UNL     1     -41.088 -53.905  14.097  1.00  0.00    -0.359 N 
HETATM    4  H   UNL     1     -41.288 -54.647  14.766  1.00  0.00     0.162 HD
ENDROOT
BRANCH   1   5
HETATM    5  C   UNL     1     -43.536 -53.919  13.814  1.00  0.00     0.310 C 
HETATM    6  C   UNL     1     -43.386 -55.011  14.883  1.00  0.00     0.053 C 
BRANCH   5   7
HETATM    7  N   UNL     1     -44.312 -52.707  14.241  1.00  0.00     0.101 N 
HETATM    8  C   UNL     1     -44.310 -52.544  15.704  1.00  0.00     0.273 C 
HETATM    9  C   UNL     1     -44.676 -51.123  16.136  1.00  0.00     0.030 C 
HETATM   10  C   UNL     1     -46.166 -50.895  16.370  1.00  0.00     0.002 C 
HETATM   11  C   UNL     1     -47.106 -51.547  15.365  1.00  0.00     0.002 C 
HETATM   12  C   UNL     1     -46.580 -51.546  13.933  1.00  0.00     0.030 C 
HETATM   13  C   UNL     1     -45.653 -52.730  13.633  1.00  0.00     0.273 C 
ENDBRANCH   5   7
ENDBRANCH   1   5
BRANCH   3  14
HETATM   14  C   UNL     1     -39.715 -53.704  13.676  1.00  0.00     0.130 C 
BRANCH  14  15
HETATM   15  C   UNL     1     -39.030 -52.527  14.365  1.00  0.00     0.096 C 
BRANCH  15  16
HETATM   16  C   UNL     1     -38.817 -51.373  13.441  1.00  0.00     0.084 A 
HETATM   17  N   UNL     1     -39.383 -51.240  12.257  1.00  0.00    -0.354 N 
HETATM   18  C   UNL     1     -38.895 -50.073  11.734  1.00  0.00     0.106 A 
ATOM     19  HN  UNL     1     -40.049 -51.877  11.820  1.00  0.00     0.166 HD
HETATM   20  C   UNL     1     -38.028 -49.473  12.616  1.00  0.00     0.108 A 
HETATM   21  N   UNL     1     -37.996 -50.302  13.704  1.00  0.00    -0.350 N 
HETATM   22  C   UNL     1     -37.235 -50.067  14.906  1.00  0.00     0.156 C 
ENDBRANCH  15  16
ENDBRANCH  14  15
ENDBRANCH   3  14
TORSDOF 5
ENDMDL
MODEL 5
REMARK VINA RESULT:      -5.5      2.190      3.441
REMARK  5 active torsions:
REMARK  status: ('A' for Active; 'I' for Inactive)
REMARK    1  A    between atoms: C_2  and  N_3 
REMARK    2  A    between atoms: C_2  and  C_10 
REMARK       I    between atoms: C_10  and  N_12 
REMARK    3  A    between atoms: N_12  and  C_13 
REMARK    4  A    between atoms: C_13  and  C_14 
REMARK    5  A    between atoms: C_14  and  C_15 
ROOT
HETATM    1  C   UNL     1     -41.839 -51.711  12.610  1.00  0.00     0.251 C 
HETATM    2  O   UNL     1     -41.298 -52.283  11.664  1.00  0.00    -0.271 OA
HETATM    3  N   UNL     1     -42.057 -50.348  12.623  1.00  0.00    -0.359 N 
HETATM    4  H   UNL     1     -42.264 -49.932  13.531  1.00  0.00     0.162 HD
ENDROOT
BRANCH   1   5
HETATM    5  C   UNL     1     -42.362 -52.455  13.865  1.00  0.00     0.310 C 
HETATM    6  C   UNL     1     -42.056 -51.628  15.122  1.00  0.00     0.053 C 
BRANCH   5   7
HETATM    7  N   UNL     1     -43.804 -52.831  13.682  1.00  0.00     0.101 N 
HETATM    8  C   UNL     1     -44.696 -51.992  14.500  1.00  0.00     0.273 C 
HETATM    9  C   UNL     1     -46.145 -52.026  14.010  1.00  0.00     0.030 C 
HETATM   10  C   UNL     1     -47.005 -53.112  14.647  1.00  0.00     0.002 C 
HETATM   11  C   UNL     1     -46.335 -54.467  14.837  1.00  0.00     0.002 C 
HETATM   12  C   UNL     1     -45.386 -54.853  13.707  1.00  0.00     0.030 C 
HETATM   13  C   UNL     1     -43.975 -54.280  13.888  1.00  0.00     0.273 C 
ENDBRANCH   5   7
ENDBRANCH   1   5
BRANCH   3  14
HETATM   14  C   UNL     1     -41.510 -49.501  11.582  1.00  0.00     0.130 C 
BRANCH  14  15
HETATM   15  C   UNL     1     -40.291 -48.697  12.024  1.00  0.00     0.096 C 
BRANCH  15  16
HETATM   16  C   UNL     1     -39.037 -49.509  12.006  1.00  0.00     0.084 A 
HETATM   17  N   UNL     1     -38.341 -49.798  10.923  1.00  0.00    -0.354 N 
HETATM   18  C   UNL     1     -37.300 -50.581  11.342  1.00  0.00     0.106 A 
ATOM     19  HN  UNL     1     -38.539 -49.498   9.968  1.00  0.00     0.166 HD
HETATM   20  C   UNL     1     -37.349 -50.763  12.704  1.00  0.00     0.108 A 
HETATM   21  N   UNL     1     -38.450 -50.065  13.118  1.00  0.00    -0.350 N 
HETATM   22  C   UNL     1     -38.892 -49.943  14.485  1.00  0.00     0.156 C 
ENDBRANCH  15  16
ENDBRANCH  14  15
ENDBRANCH   3  14
TORSDOF 5
ENDMDL
MODEL 6
REMARK VINA RESULT:      -5.4      1.511      1.689
REMARK  5 active torsions:
REMARK  status: ('A' for Active; 'I' for Inactive)
REMARK    1  A    between atoms: C_2  and  N_3 
REMARK    2  A    between atoms: C_2  and  C_10 
REMARK       I    between atoms: C_10  and  N_12 
REMARK    3  A    between atoms: N_12  and  C_13 
REMARK    4  A    between atoms: C_13  and  C_14 
REMARK    5  A    between atoms: C_14  and  C_15 
ROOT
HETATM    1  C   UNL     1     -41.316 -52.109  12.852  1.00  0.00     0.251 C 
HETATM    2  O   UNL     1     -41.664 -52.173  11.673  1.00  0.00    -0.271 OA
HETATM    3  N   UNL     1     -40.205 -51.399  13.258  1.00  0.00    -0.359 N 
HETATM    4  H   UNL     1     -39.848 -51.610  14.189  1.00  0.00     0.162 HD
ENDROOT
BRANCH   1   5
HETATM    5  C   UNL     1     -42.101 -52.783  14.006  1.00  0.00     0.310 C 
HETATM    6  C   UNL     1     -41.665 -52.180  15.349  1.00  0.00     0.053 C 
BRANCH   5   7
HETATM    7  N   UNL     1     -43.576 -52.732  13.730  1.00  0.00     0.101 N 
HETATM    8  C   UNL     1     -44.140 -51.401  14.012  1.00  0.00     0.273 C 
HETATM    9  C   UNL     1     -45.490 -51.179  13.328  1.00  0.00     0.030 C 
HETATM   10  C   UNL     1     -46.699 -51.585  14.164  1.00  0.00     0.002 C 
HETATM   11  C   UNL     1     -46.559 -52.879  14.954  1.00  0.00     0.002 C 
HETATM   12  C   UNL     1     -45.772 -53.966  14.229  1.00  0.00     0.030 C 
HETATM   13  C   UNL     1     -44.256 -53.839  14.425  1.00  0.00     0.273 C 
ENDBRANCH   5   7
ENDBRANCH   1   5
BRANCH   3  14
HETATM   14  C   UNL     1     -39.299 -50.824  12.283  1.00  0.00     0.130 C 
BRANCH  14  15
HETATM   15  C   UNL     1     -39.187 -49.304  12.375  1.00  0.00     0.096 C 
BRANCH  15  16
HETATM   16  C   UNL     1     -40.250 -48.608  11.588  1.00  0.00     0.084 A 
HETATM   17  N   UNL     1     -41.024 -49.186  10.689  1.00  0.00    -0.354 N 
HETATM   18  C   UNL     1     -41.824 -48.195  10.189  1.00  0.00     0.106 A 
ATOM     19  HN  UNL     1     -41.024 -50.170  10.422  1.00  0.00     0.166 HD
HETATM   20  C   UNL     1     -41.548 -46.995  10.800  1.00  0.00     0.108 A 
HETATM   21  N   UNL     1     -40.555 -47.272  11.698  1.00  0.00    -0.350 N 
HETATM   22  C   UNL     1     -39.955 -46.317  12.597  1.00  0.00     0.156 C 
ENDBRANCH  15  16
ENDBRANCH  14  15
ENDBRANCH   3  14
TORSDOF 5
ENDMDL
MODEL 7
REMARK VINA RESULT:      -5.4      2.765      6.420
REMARK  5 active torsions:
REMARK  status: ('A' for Active; 'I' for Inactive)
REMARK    1  A    between atoms: C_2  and  N_3 
REMARK    2  A    between atoms: C_2  and  C_10 
REMARK       I    between atoms: C_10  and  N_12 
REMARK    3  A    between atoms: N_12  and  C_13 
REMARK    4  A    between atoms: C_13  and  C_14 
REMARK    5  A    between atoms: C_14  and  C_15 
ROOT
HETATM    1  C   UNL     1     -41.528 -53.009  12.739  1.00  0.00     0.251 C 
HETATM    2  O   UNL     1     -40.836 -54.012  12.567  1.00  0.00    -0.271 OA
HETATM    3  N   UNL     1     -42.691 -53.031  13.480  1.00  0.00    -0.359 N 
HETATM    4  H   UNL     1     -43.323 -52.241  13.355  1.00  0.00     0.162 HD
ENDROOT
BRANCH   1   5
HETATM    5  C   UNL     1     -41.153 -51.613  12.178  1.00  0.00     0.310 C 
HETATM    6  C   UNL     1     -42.252 -50.601  12.533  1.00  0.00     0.053 C 
BRANCH   5   7
HETATM    7  N   UNL     1     -39.767 -51.233  12.613  1.00  0.00     0.101 N 
HETATM    8  C   UNL     1     -39.692 -51.010  14.066  1.00  0.00     0.273 C 
HETATM    9  C   UNL     1     -38.259 -51.078  14.597  1.00  0.00     0.030 C 
HETATM   10  C   UNL     1     -37.525 -49.741  14.613  1.00  0.00     0.002 C 
HETATM   11  C   UNL     1     -37.745 -48.845  13.401  1.00  0.00     0.002 C 
HETATM   12  C   UNL     1     -37.856 -49.604  12.082  1.00  0.00     0.030 C 
HETATM   13  C   UNL     1     -39.277 -50.107  11.799  1.00  0.00     0.273 C 
ENDBRANCH   5   7
ENDBRANCH   1   5
BRANCH   3  14
HETATM   14  C   UNL     1     -43.239 -54.285  13.960  1.00  0.00     0.130 C 
BRANCH  14  15
HETATM   15  C   UNL     1     -44.673 -54.541  13.504  1.00  0.00     0.096 C 
BRANCH  15  16
HETATM   16  C   UNL     1     -45.468 -53.281  13.397  1.00  0.00     0.084 A 
HETATM   17  N   UNL     1     -45.678 -52.614  12.278  1.00  0.00    -0.354 N 
HETATM   18  C   UNL     1     -46.416 -51.515  12.627  1.00  0.00     0.106 A 
ATOM     19  HN  UNL     1     -45.355 -52.866  11.344  1.00  0.00     0.166 HD
HETATM   20  C   UNL     1     -46.675 -51.515  13.977  1.00  0.00     0.108 A 
HETATM   21  N   UNL     1     -46.079 -52.650  14.455  1.00  0.00    -0.350 N 
HETATM   22  C   UNL     1     -46.109 -53.091  15.828  1.00  0.00     0.156 C 
ENDBRANCH  15  16
ENDBRANCH  14  15
ENDBRANCH   3  14
TORSDOF 5
ENDMDL
MODEL 8
REMARK VINA RESULT:      -5.3      2.968      4.450
REMARK  5 active torsions:
REMARK  status: ('A' for Active; 'I' for Inactive)
REMARK    1  A    between atoms: C_2  and  N_3 
REMARK    2  A    between atoms: C_2  and  C_10 
REMARK       I    between atoms: C_10  and  N_12 
REMARK    3  A    between atoms: N_12  and  C_13 
REMARK    4  A    between atoms: C_13  and  C_14 
REMARK    5  A    between atoms: C_14  and  C_15 
ROOT
HETATM    1  C   UNL     1     -39.364 -48.294  12.157  1.00  0.00     0.251 C 
HETATM    2  O   UNL     1     -39.186 -47.963  13.329  1.00  0.00    -0.271 OA
HETATM    3  N   UNL     1     -39.734 -47.391  11.181  1.00  0.00    -0.359 N 
HETATM    4  H   UNL     1     -40.106 -47.785  10.318  1.00  0.00     0.162 HD
ENDROOT
BRANCH   1   5
HETATM    5  C   UNL     1     -39.160 -49.743  11.645  1.00  0.00     0.310 C 
HETATM    6  C   UNL     1     -37.673 -49.980  11.347  1.00  0.00     0.053 C 
BRANCH   5   7
HETATM    7  N   UNL     1     -39.787 -50.723  12.594  1.00  0.00     0.101 N 
HETATM    8  C   UNL     1     -38.775 -51.530  13.294  1.00  0.00     0.273 C 
HETATM    9  C   UNL     1     -39.323 -52.188  14.562  1.00  0.00     0.030 C 
HETATM   10  C   UNL     1     -39.914 -53.578  14.350  1.00  0.00     0.002 C 
HETATM   11  C   UNL     1     -40.749 -53.763  13.090  1.00  0.00     0.002 C 
HETATM   12  C   UNL     1     -41.590 -52.546  12.720  1.00  0.00     0.030 C 
HETATM   13  C   UNL     1     -40.816 -51.511  11.894  1.00  0.00     0.273 C 
ENDBRANCH   5   7
ENDBRANCH   1   5
BRANCH   3  14
HETATM   14  C   UNL     1     -40.087 -46.029  11.529  1.00  0.00     0.130 C 
BRANCH  14  15
HETATM   15  C   UNL     1     -41.528 -45.873  12.006  1.00  0.00     0.096 C 
BRANCH  15  16
HETATM   16  C   UNL     1     -42.517 -46.314  10.977  1.00  0.00     0.084 A 
HETATM   17  N   UNL     1     -42.843 -45.626   9.900  1.00  0.00    -0.354 N 
HETATM   18  C   UNL     1     -43.797 -46.365   9.255  1.00  0.00     0.106 A 
ATOM     19  HN  UNL     1     -42.460 -44.727   9.607  1.00  0.00     0.166 HD
HETATM   20  C   UNL     1     -44.051 -47.531   9.938  1.00  0.00     0.108 A 
HETATM   21  N   UNL     1     -43.221 -47.494  11.025  1.00  0.00    -0.350 N 
HETATM   22  C   UNL     1     -43.115 -48.527  12.026  1.00  0.00     0.156 C 
ENDBRANCH  15  16
ENDBRANCH  14  15
ENDBRANCH   3  14
TORSDOF 5
ENDMDL
MODEL 9
REMARK VINA RESULT:      -5.3      2.605      3.195
REMARK  5 active torsions:
REMARK  status: ('A' for Active; 'I' for Inactive)
REMARK    1  A    between atoms: C_2  and  N_3 
REMARK    2  A    between atoms: C_2  and  C_10 
REMARK       I    between atoms: C_10  and  N_12 
REMARK    3  A    between atoms: N_12  and  C_13 
REMARK    4  A    between atoms: C_13  and  C_14 
REMARK    5  A    between atoms: C_14  and  C_15 
ROOT
HETATM    1  C   UNL     1     -42.304 -53.720  13.931  1.00  0.00     0.251 C 
HETATM    2  O   UNL     1     -41.922 -52.933  14.798  1.00  0.00    -0.271 OA
HETATM    3  N   UNL     1     -41.698 -53.809  12.695  1.00  0.00    -0.359 N 
HETATM    4  H   UNL     1     -42.227 -54.284  11.965  1.00  0.00     0.162 HD
ENDROOT
BRANCH   1   5
HETATM    5  C   UNL     1     -43.475 -54.713  14.143  1.00  0.00     0.310 C 
HETATM    6  C   UNL     1     -43.304 -55.434  15.488  1.00  0.00     0.053 C 
BRANCH   5   7
HETATM    7  N   UNL     1     -44.790 -54.014  13.954  1.00  0.00     0.101 N 
HETATM    8  C   UNL     1     -44.695 -52.927  12.965  1.00  0.00     0.273 C 
HETATM    9  C   UNL     1     -46.061 -52.512  12.417  1.00  0.00     0.030 C 
HETATM   10  C   UNL     1     -46.744 -51.394  13.198  1.00  0.00     0.002 C 
HETATM   11  C   UNL     1     -46.633 -51.476  14.715  1.00  0.00     0.002 C 
HETATM   12  C   UNL     1     -46.694 -52.897  15.264  1.00  0.00     0.030 C 
HETATM   13  C   UNL     1     -45.331 -53.601  15.260  1.00  0.00     0.273 C 
ENDBRANCH   5   7
ENDBRANCH   1   5
BRANCH   3  14
HETATM   14  C   UNL     1     -40.675 -52.859  12.302  1.00  0.00     0.130 C 
BRANCH  14  15
HETATM   15  C   UNL     1     -41.233 -51.525  11.815  1.00  0.00     0.096 C 
BRANCH  15  16
HETATM   16  C   UNL     1     -40.254 -50.408  11.973  1.00  0.00     0.084 A 
HETATM   17  N   UNL     1     -39.328 -50.086  11.090  1.00  0.00    -0.354 N 
HETATM   18  C   UNL     1     -38.633 -49.041  11.637  1.00  0.00     0.106 A 
ATOM     19  HN  UNL     1     -39.163 -50.527  10.186  1.00  0.00     0.166 HD
HETATM   20  C   UNL     1     -39.151 -48.706  12.866  1.00  0.00     0.108 A 
HETATM   21  N   UNL     1     -40.190 -49.573  13.064  1.00  0.00    -0.350 N 
HETATM   22  C   UNL     1     -41.057 -49.585  14.216  1.00  0.00     0.156 C 
ENDBRANCH  15  16
ENDBRANCH  14  15
ENDBRANCH   3  14
TORSDOF 5
ENDMDL
