MODEL 1
REMARK VINA RESULT:      -6.2      0.000      0.000
REMARK  4 active torsions:
REMARK  status: ('A' for Active; 'I' for Inactive)
REMARK    1  A    between atoms: N_2  and  C_4 
REMARK    2  A    between atoms: C_7  and  N_8 
REMARK       I    between atoms: N_8  and  C_9 
REMARK       I    between atoms: C_9  and  N_11 
REMARK    3  A    between atoms: N_11  and  C_12 
REMARK    4  A    between atoms: N_16  and  S_18 
ROOT
HETATM    1  N   UNL     1     -42.992 -49.607  12.281  1.00  0.00    -0.308 N 
HETATM    2  C   UNL     1     -42.425 -50.239  13.367  1.00  0.00     0.321 C 
HETATM    3  O   UNL     1     -41.441 -49.852  13.989  1.00  0.00    -0.247 OA
HETATM    4  N   UNL     1     -43.055 -51.419  13.704  1.00  0.00    -0.337 N 
HETATM    5  H   UNL     1     -43.547 -50.183  11.663  1.00  0.00     0.170 HD
HETATM    6  H   UNL     1     -44.063 -51.402  13.586  1.00  0.00     0.164 HD
ENDROOT
BRANCH   1   7
HETATM    7  C   UNL     1     -42.522 -48.362  11.786  1.00  0.00     0.051 A 
HETATM    8  C   UNL     1     -42.970 -47.148  12.284  1.00  0.00     0.035 A 
HETATM    9  C   UNL     1     -42.398 -45.954  11.851  1.00  0.00     0.050 A 
HETATM   10  C   UNL     1     -41.385 -45.954  10.895  1.00  0.00     0.102 A 
HETATM   11  N   UNL     1     -40.988 -47.131  10.346  1.00  0.00    -0.350 N 
HETATM   12  C   UNL     1     -41.562 -48.289  10.786  1.00  0.00     0.119 A 
ATOM     13  HN  UNL     1     -40.273 -47.149   9.619  1.00  0.00     0.166 HD
BRANCH  10  14
HETATM   14  N   UNL     1     -40.752 -44.767  10.528  1.00  0.00    -0.376 N 
HETATM   15  C   UNL     1     -41.104 -43.581  11.291  1.00  0.00     0.150 C 
HETATM   16  C   UNL     1     -39.430 -44.824   9.925  1.00  0.00     0.150 C 
ENDBRANCH  10  14
ENDBRANCH   1   7
BRANCH   4  17
HETATM   17  C   UNL     1     -42.601 -52.065  14.947  1.00  0.00     0.104 C 
HETATM   18  C   UNL     1     -41.536 -53.134  14.708  1.00  0.00     0.028 C 
HETATM   19  C   UNL     1     -42.099 -54.382  14.034  1.00  0.00     0.023 C 
HETATM   20  C   UNL     1     -43.362 -54.906  14.716  1.00  0.00     0.135 C 
HETATM   21  N   UNL     1     -44.344 -53.806  14.893  1.00  0.00    -0.309 N 
HETATM   22  C   UNL     1     -43.797 -52.672  15.699  1.00  0.00     0.160 C 
BRANCH  21  23
HETATM   23  S   UNL     1     -45.942 -54.259  15.249  1.00  0.00     0.224 S 
HETATM   24  O   UNL     1     -46.326 -55.304  14.324  1.00  0.00    -0.206 OA
HETATM   25  O   UNL     1     -46.032 -54.462  16.678  1.00  0.00    -0.206 OA
HETATM   26  C   UNL     1     -46.861 -52.786  14.839  1.00  0.00     0.186 C 
ENDBRANCH  21  23
ENDBRANCH   4  17
TORSDOF 4
ENDMDL
MODEL 2
REMARK VINA RESULT:      -6.1      3.941      8.741
REMARK  4 active torsions:
REMARK  status: ('A' for Active; 'I' for Inactive)
REMARK    1  A    between atoms: N_2  and  C_4 
REMARK    2  A    between atoms: C_7  and  N_8 
REMARK       I    between atoms: N_8  and  C_9 
REMARK       I    between atoms: C_9  and  N_11 
REMARK    3  A    between atoms: N_11  and  C_12 
REMARK    4  A    between atoms: N_16  and  S_18 
ROOT
HETATM    1  N   UNL     1     -40.943 -50.819  11.655  1.00  0.00    -0.308 N 
HETATM    2  C   UNL     1     -41.973 -49.952  11.956  1.00  0.00     0.321 C 
HETATM    3  O   UNL     1     -42.713 -50.030  12.931  1.00  0.00    -0.247 OA
HETATM    4  N   UNL     1     -42.144 -48.959  11.015  1.00  0.00    -0.337 N 
HETATM    5  H   UNL     1     -40.657 -50.860  10.686  1.00  0.00     0.170 HD
HETATM    6  H   UNL     1     -41.279 -48.611  10.614  1.00  0.00     0.164 HD
ENDROOT
BRANCH   1   7
HETATM    7  C   UNL     1     -40.572 -51.895  12.503  1.00  0.00     0.051 A 
HETATM    8  C   UNL     1     -39.576 -51.776  13.461  1.00  0.00     0.035 A 
HETATM    9  C   UNL     1     -39.324 -52.819  14.350  1.00  0.00     0.050 A 
HETATM   10  C   UNL     1     -40.048 -54.007  14.279  1.00  0.00     0.102 A 
HETATM   11  N   UNL     1     -40.975 -54.163  13.300  1.00  0.00    -0.350 N 
HETATM   12  C   UNL     1     -41.206 -53.128  12.440  1.00  0.00     0.119 A 
ATOM     13  HN  UNL     1     -41.490 -55.039  13.209  1.00  0.00     0.166 HD
BRANCH  10  14
HETATM   14  N   UNL     1     -39.858 -55.014  15.223  1.00  0.00    -0.376 N 
HETATM   15  C   UNL     1     -38.484 -55.276  15.625  1.00  0.00     0.150 C 
HETATM   16  C   UNL     1     -40.915 -55.302  16.178  1.00  0.00     0.150 C 
ENDBRANCH  10  14
ENDBRANCH   1   7
BRANCH   4  17
HETATM   17  C   UNL     1     -43.121 -47.910  11.351  1.00  0.00     0.104 C 
HETATM   18  C   UNL     1     -44.139 -47.665  10.238  1.00  0.00     0.028 C 
HETATM   19  C   UNL     1     -43.524 -46.977   9.022  1.00  0.00     0.023 C 
HETATM   20  C   UNL     1     -42.701 -45.744   9.393  1.00  0.00     0.135 C 
HETATM   21  N   UNL     1     -41.731 -46.078  10.467  1.00  0.00    -0.309 N 
HETATM   22  C   UNL     1     -42.397 -46.598  11.700  1.00  0.00     0.160 C 
BRANCH  21  23
HETATM   23  S   UNL     1     -40.466 -44.973  10.724  1.00  0.00     0.224 S 
HETATM   24  O   UNL     1     -39.353 -45.368   9.888  1.00  0.00    -0.206 OA
HETATM   25  O   UNL     1     -41.025 -43.641  10.638  1.00  0.00    -0.206 OA
HETATM   26  C   UNL     1     -40.025 -45.279  12.425  1.00  0.00     0.186 C 
ENDBRANCH  21  23
ENDBRANCH   4  17
TORSDOF 4
ENDMDL
MODEL 3
REMARK VINA RESULT:      -6.0      1.542      1.946
REMARK  4 active torsions:
REMARK  status: ('A' for Active; 'I' for Inactive)
REMARK    1  A    between atoms: N_2  and  C_4 
REMARK    2  A    between atoms: C_7  and  N_8 
REMARK       I    between atoms: N_8  and  C_9 
REMARK       I    between atoms: C_9  and  N_11 
REMARK    3  A    between atoms: N_11  and  C_12 
REMARK    4  A    between atoms: N_16  and  S_18 
ROOT
HETATM    1  N   UNL     1     -43.256 -49.371  11.883  1.00  0.00    -0.308 N 
HETATM    2  C   UNL     1     -42.678 -50.352  12.661  1.00  0.00     0.321 C 
HETATM    3  O   UNL     1     -41.550 -50.314  13.141  1.00  0.00    -0.247 OA
HETATM    4  N   UNL     1     -43.487 -51.454  12.841  1.00  0.00    -0.337 N 
HETATM    5  H   UNL     1     -44.010 -49.662  11.276  1.00  0.00     0.170 HD
HETATM    6  H   UNL     1     -44.474 -51.236  12.937  1.00  0.00     0.164 HD
ENDROOT
BRANCH   1   7
HETATM    7  C   UNL     1     -42.612 -48.138  11.599  1.00  0.00     0.051 A 
HETATM    8  C   UNL     1     -42.807 -47.002  12.370  1.00  0.00     0.035 A 
HETATM    9  C   UNL     1     -42.067 -45.847  12.126  1.00  0.00     0.050 A 
HETATM   10  C   UNL     1     -41.137 -45.803  11.090  1.00  0.00     0.102 A 
HETATM   11  N   UNL     1     -40.988 -46.884  10.283  1.00  0.00    -0.350 N 
HETATM   12  C   UNL     1     -41.723 -48.005  10.540  1.00  0.00     0.119 A 
ATOM     13  HN  UNL     1     -40.338 -46.858   9.497  1.00  0.00     0.166 HD
BRANCH  10  14
HETATM   14  N   UNL     1     -40.334 -44.679  10.903  1.00  0.00    -0.376 N 
HETATM   15  C   UNL     1     -39.339 -44.760   9.845  1.00  0.00     0.150 C 
HETATM   16  C   UNL     1     -40.856 -43.367  11.250  1.00  0.00     0.150 C 
ENDBRANCH  10  14
ENDBRANCH   1   7
BRANCH   4  17
HETATM   17  C   UNL     1     -42.997 -52.471  13.787  1.00  0.00     0.104 C 
HETATM   18  C   UNL     1     -43.186 -53.899  13.278  1.00  0.00     0.028 C 
HETATM   19  C   UNL     1     -44.650 -54.329  13.270  1.00  0.00     0.023 C 
HETATM   20  C   UNL     1     -45.359 -54.043  14.593  1.00  0.00     0.135 C 
HETATM   21  N   UNL     1     -45.134 -52.633  15.002  1.00  0.00    -0.309 N 
HETATM   22  C   UNL     1     -43.684 -52.303  15.153  1.00  0.00     0.160 C 
BRANCH  21  23
HETATM   23  S   UNL     1     -46.159 -52.015  16.207  1.00  0.00     0.224 S 
HETATM   24  O   UNL     1     -45.587 -50.775  16.687  1.00  0.00    -0.206 OA
HETATM   25  O   UNL     1     -47.512 -52.062  15.697  1.00  0.00    -0.206 OA
HETATM   26  C   UNL     1     -46.013 -53.235  17.501  1.00  0.00     0.186 C 
ENDBRANCH  21  23
ENDBRANCH   4  17
TORSDOF 4
ENDMDL
MODEL 4
REMARK VINA RESULT:      -5.6      3.286      4.214
REMARK  4 active torsions:
REMARK  status: ('A' for Active; 'I' for Inactive)
REMARK    1  A    between atoms: N_2  and  C_4 
REMARK    2  A    between atoms: C_7  and  N_8 
REMARK       I    between atoms: N_8  and  C_9 
REMARK       I    between atoms: C_9  and  N_11 
REMARK    3  A    between atoms: N_11  and  C_12 
REMARK    4  A    between atoms: N_16  and  S_18 
ROOT
HETATM    1  N   UNL     1     -41.411 -50.519  13.153  1.00  0.00    -0.308 N 
HETATM    2  C   UNL     1     -41.690 -51.855  12.955  1.00  0.00     0.321 C 
HETATM    3  O   UNL     1     -42.339 -52.321  12.024  1.00  0.00    -0.247 OA
HETATM    4  N   UNL     1     -41.190 -52.672  13.947  1.00  0.00    -0.337 N 
HETATM    5  H   UNL     1     -41.192 -50.240  14.100  1.00  0.00     0.170 HD
HETATM    6  H   UNL     1     -40.287 -52.383  14.310  1.00  0.00     0.164 HD
ENDROOT
BRANCH   1   7
HETATM    7  C   UNL     1     -41.802 -49.508  12.237  1.00  0.00     0.051 A 
HETATM    8  C   UNL     1     -43.008 -48.832  12.347  1.00  0.00     0.035 A 
HETATM    9  C   UNL     1     -43.300 -47.768  11.496  1.00  0.00     0.050 A 
HETATM   10  C   UNL     1     -42.400 -47.379  10.506  1.00  0.00     0.102 A 
HETATM   11  N   UNL     1     -41.249 -48.079  10.341  1.00  0.00    -0.350 N 
HETATM   12  C   UNL     1     -40.983 -49.118  11.186  1.00  0.00     0.119 A 
ATOM     13  HN  UNL     1     -40.594 -47.833   9.599  1.00  0.00     0.166 HD
BRANCH  10  14
HETATM   14  N   UNL     1     -42.653 -46.260   9.715  1.00  0.00    -0.376 N 
HETATM   15  C   UNL     1     -43.467 -46.473   8.528  1.00  0.00     0.150 C 
HETATM   16  C   UNL     1     -42.678 -44.944  10.332  1.00  0.00     0.150 C 
ENDBRANCH  10  14
ENDBRANCH   1   7
BRANCH   4  17
HETATM   17  C   UNL     1     -41.315 -54.121  13.719  1.00  0.00     0.104 C 
HETATM   18  C   UNL     1     -42.610 -54.704  14.282  1.00  0.00     0.028 C 
HETATM   19  C   UNL     1     -42.619 -54.745  15.808  1.00  0.00     0.023 C 
HETATM   20  C   UNL     1     -41.352 -55.370  16.391  1.00  0.00     0.135 C 
HETATM   21  N   UNL     1     -40.147 -54.734  15.799  1.00  0.00    -0.309 N 
HETATM   22  C   UNL     1     -40.104 -54.861  14.311  1.00  0.00     0.160 C 
BRANCH  21  23
HETATM   23  S   UNL     1     -38.674 -54.995  16.604  1.00  0.00     0.224 S 
HETATM   24  O   UNL     1     -37.906 -55.947  15.831  1.00  0.00    -0.206 OA
HETATM   25  O   UNL     1     -38.126 -53.701  16.946  1.00  0.00    -0.206 OA
HETATM   26  C   UNL     1     -39.194 -55.791  18.113  1.00  0.00     0.186 C 
ENDBRANCH  21  23
ENDBRANCH   4  17
TORSDOF 4
ENDMDL
MODEL 5
REMARK VINA RESULT:      -5.5      3.414      8.588
REMARK  4 active torsions:
REMARK  status: ('A' for Active; 'I' for Inactive)
REMARK    1  A    between atoms: N_2  and  C_4 
REMARK    2  A    between atoms: C_7  and  N_8 
REMARK       I    between atoms: N_8  and  C_9 
REMARK       I    between atoms: C_9  and  N_11 
REMARK    3  A    between atoms: N_11  and  C_12 
REMARK    4  A    between atoms: N_16  and  S_18 
ROOT
HETATM    1  N   UNL     1     -43.344 -51.443  13.056  1.00  0.00    -0.308 N 
HETATM    2  C   UNL     1     -42.328 -50.561  12.756  1.00  0.00     0.321 C 
HETATM    3  O   UNL     1     -41.226 -50.528  13.292  1.00  0.00    -0.247 OA
HETATM    4  N   UNL     1     -42.668 -49.645  11.782  1.00  0.00    -0.337 N 
HETATM    5  H   UNL     1     -44.282 -51.151  12.814  1.00  0.00     0.170 HD
HETATM    6  H   UNL     1     -43.260 -50.019  11.047  1.00  0.00     0.164 HD
ENDROOT
BRANCH   1   7
HETATM    7  C   UNL     1     -43.198 -52.489  14.004  1.00  0.00     0.051 A 
HETATM    8  C   UNL     1     -42.530 -53.669  13.712  1.00  0.00     0.035 A 
HETATM    9  C   UNL     1     -42.309 -54.619  14.708  1.00  0.00     0.050 A 
HETATM   10  C   UNL     1     -42.774 -54.414  16.005  1.00  0.00     0.102 A 
HETATM   11  N   UNL     1     -43.492 -53.297  16.286  1.00  0.00    -0.350 N 
HETATM   12  C   UNL     1     -43.696 -52.379  15.295  1.00  0.00     0.119 A 
ATOM     13  HN  UNL     1     -43.871 -53.146  17.220  1.00  0.00     0.166 HD
BRANCH  10  14
HETATM   14  N   UNL     1     -42.475 -55.322  17.019  1.00  0.00    -0.376 N 
HETATM   15  C   UNL     1     -43.243 -55.199  18.248  1.00  0.00     0.150 C 
HETATM   16  C   UNL     1     -41.954 -56.633  16.668  1.00  0.00     0.150 C 
ENDBRANCH  10  14
ENDBRANCH   1   7
BRANCH   4  17
HETATM   17  C   UNL     1     -41.582 -48.775  11.303  1.00  0.00     0.104 C 
HETATM   18  C   UNL     1     -41.159 -47.727  12.332  1.00  0.00     0.028 C 
HETATM   19  C   UNL     1     -42.211 -46.638  12.526  1.00  0.00     0.023 C 
HETATM   20  C   UNL     1     -42.702 -46.047  11.205  1.00  0.00     0.135 C 
HETATM   21  N   UNL     1     -43.105 -47.133  10.275  1.00  0.00    -0.309 N 
HETATM   22  C   UNL     1     -41.990 -48.087   9.989  1.00  0.00     0.160 C 
BRANCH  21  23
HETATM   23  S   UNL     1     -44.049 -46.681   8.937  1.00  0.00     0.224 S 
HETATM   24  O   UNL     1     -45.433 -46.963   9.252  1.00  0.00    -0.206 OA
HETATM   25  O   UNL     1     -43.632 -45.355   8.535  1.00  0.00    -0.206 OA
HETATM   26  C   UNL     1     -43.516 -47.831   7.682  1.00  0.00     0.186 C 
ENDBRANCH  21  23
ENDBRANCH   4  17
TORSDOF 4
ENDMDL
MODEL 6
REMARK VINA RESULT:      -5.4      5.601     10.129
REMARK  4 active torsions:
REMARK  status: ('A' for Active; 'I' for Inactive)
REMARK    1  A    between atoms: N_2  and  C_4 
REMARK    2  A    between atoms: C_7  and  N_8 
REMARK       I    between atoms: N_8  and  C_9 
REMARK       I    between atoms: C_9  and  N_11 
REMARK    3  A    between atoms: N_11  and  C_12 
REMARK    4  A    between atoms: N_16  and  S_18 
ROOT
HETATM    1  N   UNL     1     -39.566 -55.448  17.057  1.00  0.00    -0.308 N 
HETATM    2  C   UNL     1     -39.467 -55.100  15.726  1.00  0.00     0.321 C 
HETATM    3  O   UNL     1     -38.782 -55.673  14.885  1.00  0.00    -0.247 OA
HETATM    4  N   UNL     1     -40.203 -53.982  15.396  1.00  0.00    -0.337 N 
HETATM    5  H   UNL     1     -39.859 -54.719  17.693  1.00  0.00     0.170 HD
HETATM    6  H   UNL     1     -41.091 -53.909  15.883  1.00  0.00     0.164 HD
ENDROOT
BRANCH   1   7
HETATM    7  C   UNL     1     -38.917 -56.586  17.604  1.00  0.00     0.051 A 
HETATM    8  C   UNL     1     -37.658 -56.517  18.181  1.00  0.00     0.035 A 
HETATM    9  C   UNL     1     -37.109 -57.633  18.810  1.00  0.00     0.050 A 
HETATM   10  C   UNL     1     -37.800 -58.842  18.849  1.00  0.00     0.102 A 
HETATM   11  N   UNL     1     -39.001 -58.942  18.225  1.00  0.00    -0.350 N 
HETATM   12  C   UNL     1     -39.521 -57.836  17.615  1.00  0.00     0.119 A 
ATOM     13  HN  UNL     1     -39.506 -59.828  18.211  1.00  0.00     0.166 HD
BRANCH  10  14
HETATM   14  N   UNL     1     -37.289 -59.930  19.554  1.00  0.00    -0.376 N 
HETATM   15  C   UNL     1     -35.883 -60.238  19.345  1.00  0.00     0.150 C 
HETATM   16  C   UNL     1     -37.886 -60.294  20.829  1.00  0.00     0.150 C 
ENDBRANCH  10  14
ENDBRANCH   1   7
BRANCH   4  17
HETATM   17  C   UNL     1     -40.267 -53.646  13.964  1.00  0.00     0.104 C 
HETATM   18  C   UNL     1     -40.148 -52.147  13.698  1.00  0.00     0.028 C 
HETATM   19  C   UNL     1     -41.389 -51.373  14.135  1.00  0.00     0.023 C 
HETATM   20  C   UNL     1     -42.687 -51.995  13.619  1.00  0.00     0.135 C 
HETATM   21  N   UNL     1     -42.722 -53.446  13.935  1.00  0.00    -0.309 N 
HETATM   22  C   UNL     1     -41.567 -54.189  13.347  1.00  0.00     0.160 C 
BRANCH  21  23
HETATM   23  S   UNL     1     -44.232 -54.216  13.815  1.00  0.00     0.224 S 
HETATM   24  O   UNL     1     -44.558 -54.343  12.411  1.00  0.00    -0.206 OA
HETATM   25  O   UNL     1     -44.201 -55.376  14.679  1.00  0.00    -0.206 OA
HETATM   26  C   UNL     1     -45.336 -53.016  14.539  1.00  0.00     0.186 C 
ENDBRANCH  21  23
ENDBRANCH   4  17
TORSDOF 4
ENDMDL
MODEL 7
REMARK VINA RESULT:      -5.4      3.322      4.045
REMARK  4 active torsions:
REMARK  status: ('A' for Active; 'I' for Inactive)
REMARK    1  A    between atoms: N_2  and  C_4 
REMARK    2  A    between atoms: C_7  and  N_8 
REMARK       I    between atoms: N_8  and  C_9 
REMARK       I    between atoms: C_9  and  N_11 
REMARK    3  A    between atoms: N_11  and  C_12 
REMARK    4  A    between atoms: N_16  and  S_18 
ROOT
HETATM    1  N   UNL     1     -40.297 -50.090  13.371  1.00  0.00    -0.308 N 
HETATM    2  C   UNL     1     -40.597 -51.351  12.899  1.00  0.00     0.321 C 
HETATM    3  O   UNL     1     -41.072 -51.609  11.798  1.00  0.00    -0.247 OA
HETATM    4  N   UNL     1     -40.345 -52.352  13.814  1.00  0.00    -0.337 N 
HETATM    5  H   UNL     1     -40.255 -49.983  14.376  1.00  0.00     0.170 HD
HETATM    6  H   UNL     1     -39.518 -52.198  14.382  1.00  0.00     0.164 HD
ENDROOT
BRANCH   1   7
HETATM    7  C   UNL     1     -40.448 -48.919  12.584  1.00  0.00     0.051 A 
HETATM    8  C   UNL     1     -41.607 -48.157  12.601  1.00  0.00     0.035 A 
HETATM    9  C   UNL     1     -41.669 -46.953  11.902  1.00  0.00     0.050 A 
HETATM   10  C   UNL     1     -40.581 -46.503  11.158  1.00  0.00     0.102 A 
HETATM   11  N   UNL     1     -39.467 -47.275  11.075  1.00  0.00    -0.350 N 
HETATM   12  C   UNL     1     -39.427 -48.451  11.767  1.00  0.00     0.119 A 
ATOM     13  HN  UNL     1     -38.674 -46.981  10.505  1.00  0.00     0.166 HD
BRANCH  10  14
HETATM   14  N   UNL     1     -40.612 -45.257  10.533  1.00  0.00    -0.376 N 
HETATM   15  C   UNL     1     -41.483 -44.255  11.126  1.00  0.00     0.150 C 
HETATM   16  C   UNL     1     -39.440 -44.799   9.804  1.00  0.00     0.150 C 
ENDBRANCH  10  14
ENDBRANCH   1   7
BRANCH   4  17
HETATM   17  C   UNL     1     -40.495 -53.732  13.322  1.00  0.00     0.104 C 
HETATM   18  C   UNL     1     -41.933 -54.240  13.403  1.00  0.00     0.028 C 
HETATM   19  C   UNL     1     -42.385 -54.494  14.839  1.00  0.00     0.023 C 
HETATM   20  C   UNL     1     -41.385 -55.332  15.635  1.00  0.00     0.135 C 
HETATM   21  N   UNL     1     -40.021 -54.757  15.512  1.00  0.00    -0.309 N 
HETATM   22  C   UNL     1     -39.558 -54.677  14.093  1.00  0.00     0.160 C 
BRANCH  21  23
HETATM   23  S   UNL     1     -38.863 -55.290  16.635  1.00  0.00     0.224 S 
HETATM   24  O   UNL     1     -39.565 -55.910  17.739  1.00  0.00    -0.206 OA
HETATM   25  O   UNL     1     -37.843 -56.009  15.905  1.00  0.00    -0.206 OA
HETATM   26  C   UNL     1     -38.154 -53.759  17.215  1.00  0.00     0.186 C 
ENDBRANCH  21  23
ENDBRANCH   4  17
TORSDOF 4
ENDMDL
MODEL 8
REMARK VINA RESULT:      -5.3      6.803      9.701
REMARK  4 active torsions:
REMARK  status: ('A' for Active; 'I' for Inactive)
REMARK    1  A    between atoms: N_2  and  C_4 
REMARK    2  A    between atoms: C_7  and  N_8 
REMARK       I    between atoms: N_8  and  C_9 
REMARK       I    between atoms: C_9  and  N_11 
REMARK    3  A    between atoms: N_11  and  C_12 
REMARK    4  A    between atoms: N_16  and  S_18 
ROOT
HETATM    1  N   UNL     1     -39.114 -54.934  15.303  1.00  0.00    -0.308 N 
HETATM    2  C   UNL     1     -38.818 -54.973  16.649  1.00  0.00     0.321 C 
HETATM    3  O   UNL     1     -39.595 -54.709  17.561  1.00  0.00    -0.247 OA
HETATM    4  N   UNL     1     -37.508 -55.313  16.912  1.00  0.00    -0.337 N 
HETATM    5  H   UNL     1     -38.332 -54.823  14.672  1.00  0.00     0.170 HD
HETATM    6  H   UNL     1     -37.124 -56.009  16.279  1.00  0.00     0.164 HD
ENDROOT
BRANCH   1   7
HETATM    7  C   UNL     1     -40.412 -54.638  14.809  1.00  0.00     0.051 A 
HETATM    8  C   UNL     1     -40.617 -53.969  13.613  1.00  0.00     0.035 A 
HETATM    9  C   UNL     1     -41.906 -53.803  13.109  1.00  0.00     0.050 A 
HETATM   10  C   UNL     1     -43.011 -54.283  13.808  1.00  0.00     0.102 A 
HETATM   11  N   UNL     1     -42.830 -54.877  15.015  1.00  0.00    -0.350 N 
HETATM   12  C   UNL     1     -41.558 -55.029  15.489  1.00  0.00     0.119 A 
ATOM     13  HN  UNL     1     -43.629 -55.203  15.558  1.00  0.00     0.166 HD
BRANCH  10  14
HETATM   14  N   UNL     1     -44.291 -54.196  13.261  1.00  0.00    -0.376 N 
HETATM   15  C   UNL     1     -45.291 -55.105  13.800  1.00  0.00     0.150 C 
HETATM   16  C   UNL     1     -44.745 -52.927  12.715  1.00  0.00     0.150 C 
ENDBRANCH  10  14
ENDBRANCH   1   7
BRANCH   4  17
HETATM   17  C   UNL     1     -37.165 -55.526  18.327  1.00  0.00     0.104 C 
HETATM   18  C   UNL     1     -36.874 -54.224  19.072  1.00  0.00     0.028 C 
HETATM   19  C   UNL     1     -35.555 -53.587  18.645  1.00  0.00     0.023 C 
HETATM   20  C   UNL     1     -34.391 -54.576  18.648  1.00  0.00     0.135 C 
HETATM   21  N   UNL     1     -34.756 -55.801  17.891  1.00  0.00    -0.309 N 
HETATM   22  C   UNL     1     -35.965 -56.481  18.448  1.00  0.00     0.160 C 
BRANCH  21  23
HETATM   23  S   UNL     1     -33.479 -56.825  17.434  1.00  0.00     0.224 S 
HETATM   24  O   UNL     1     -34.011 -58.163  17.289  1.00  0.00    -0.206 OA
HETATM   25  O   UNL     1     -32.771 -56.184  16.348  1.00  0.00    -0.206 OA
HETATM   26  C   UNL     1     -32.427 -56.796  18.874  1.00  0.00     0.186 C 
ENDBRANCH  21  23
ENDBRANCH   4  17
TORSDOF 4
ENDMDL
MODEL 9
REMARK VINA RESULT:      -5.2      3.575      4.807
REMARK  4 active torsions:
REMARK  status: ('A' for Active; 'I' for Inactive)
REMARK    1  A    between atoms: N_2  and  C_4 
REMARK    2  A    between atoms: C_7  and  N_8 
REMARK       I    between atoms: N_8  and  C_9 
REMARK       I    between atoms: C_9  and  N_11 
REMARK    3  A    between atoms: N_11  and  C_12 
REMARK    4  A    between atoms: N_16  and  S_18 
ROOT
HETATM    1  N   UNL     1     -40.120 -46.456  11.568  1.00  0.00    -0.308 N 
HETATM    2  C   UNL     1     -39.796 -46.917  12.827  1.00  0.00     0.321 C 
HETATM    3  O   UNL     1     -39.952 -46.302  13.877  1.00  0.00    -0.247 OA
HETATM    4  N   UNL     1     -39.220 -48.169  12.819  1.00  0.00    -0.337 N 
HETATM    5  H   UNL     1     -39.633 -46.883  10.792  1.00  0.00     0.170 HD
HETATM    6  H   UNL     1     -39.604 -48.801  12.123  1.00  0.00     0.164 HD
ENDROOT
BRANCH   1   7
HETATM    7  C   UNL     1     -40.753 -45.205  11.347  1.00  0.00     0.051 A 
HETATM    8  C   UNL     1     -42.132 -45.060  11.345  1.00  0.00     0.035 A 
HETATM    9  C   UNL     1     -42.708 -43.795  11.241  1.00  0.00     0.050 A 
HETATM   10  C   UNL     1     -41.914 -42.658  11.114  1.00  0.00     0.102 A 
HETATM   11  N   UNL     1     -40.565 -42.793  11.042  1.00  0.00    -0.350 N 
HETATM   12  C   UNL     1     -40.022 -44.042  11.146  1.00  0.00     0.119 A 
ATOM     13  HN  UNL     1     -39.969 -41.976  10.913  1.00  0.00     0.166 HD
BRANCH  10  14
HETATM   14  N   UNL     1     -42.487 -41.388  11.100  1.00  0.00    -0.376 N 
HETATM   15  C   UNL     1     -43.873 -41.295  11.534  1.00  0.00     0.150 C 
HETATM   16  C   UNL     1     -41.637 -40.222  11.279  1.00  0.00     0.150 C 
ENDBRANCH  10  14
ENDBRANCH   1   7
BRANCH   4  17
HETATM   17  C   UNL     1     -38.992 -48.786  14.137  1.00  0.00     0.104 C 
HETATM   18  C   UNL     1     -37.566 -49.303  14.314  1.00  0.00     0.028 C 
HETATM   19  C   UNL     1     -37.280 -50.540  13.467  1.00  0.00     0.023 C 
HETATM   20  C   UNL     1     -38.354 -51.618  13.614  1.00  0.00     0.135 C 
HETATM   21  N   UNL     1     -39.703 -51.031  13.411  1.00  0.00    -0.309 N 
HETATM   22  C   UNL     1     -39.998 -49.926  14.373  1.00  0.00     0.160 C 
BRANCH  21  23
HETATM   23  S   UNL     1     -40.975 -52.121  13.128  1.00  0.00     0.224 S 
HETATM   24  O   UNL     1     -40.559 -53.029  12.081  1.00  0.00    -0.206 OA
HETATM   25  O   UNL     1     -41.419 -52.619  14.411  1.00  0.00    -0.206 OA
HETATM   26  C   UNL     1     -42.252 -51.062  12.474  1.00  0.00     0.186 C 
ENDBRANCH  21  23
ENDBRANCH   4  17
TORSDOF 4
ENDMDL
