MODEL 1
REMARK VINA RESULT:      -5.1      0.000      0.000
REMARK  4 active torsions:
REMARK  status: ('A' for Active; 'I' for Inactive)
REMARK    1  A    between atoms: C_2  and  C_3 
REMARK    2  A    between atoms: C_2  and  N_6 
REMARK    3  A    between atoms: C_3  and  O_5 
REMARK    4  A    between atoms: C_10  and  O_11 
ROOT
HETATM    1  N   UNL     1     -42.860 -53.856  14.335  1.00  0.00    -0.304 N 
HETATM    2  C   UNL     1     -42.013 -54.596  15.184  1.00  0.00     0.014 C 
HETATM    3  C   UNL     1     -42.520 -55.273  16.431  1.00  0.00     0.068 C 
HETATM    4  C   UNL     1     -40.713 -54.746  14.865  1.00  0.00     0.061 C 
HETATM    5  C   UNL     1     -40.178 -54.187  13.655  1.00  0.00     0.072 C 
HETATM    6  C   UNL     1     -40.976 -53.608  12.761  1.00  0.00     0.111 C 
HETATM    7  C   UNL     1     -42.419 -53.458  13.055  1.00  0.00     0.251 C 
HETATM    8  O   UNL     1     -43.147 -52.975  12.192  1.00  0.00    -0.268 OA
ENDROOT
BRANCH   1   9
HETATM    9  C   UNL     1     -44.307 -53.627  14.592  1.00  0.00     0.186 C 
HETATM   10  C   UNL     1     -44.660 -52.141  14.616  1.00  0.00     0.044 C 
BRANCH   9  11
HETATM   11  C   UNL     1     -45.323 -54.461  13.788  1.00  0.00     0.163 C 
HETATM   12  O   UNL     1     -45.511 -55.659  13.930  1.00  0.00    -0.648 OA
BRANCH  11  13
HETATM   13  O   UNL     1     -45.930 -53.764  12.794  1.00  0.00    -0.775 OA
HETATM   14  H   UNL     1     -45.283 -53.449  12.131  1.00  0.00     0.167 HD
ENDBRANCH  11  13
ENDBRANCH   9  11
ENDBRANCH   1   9
BRANCH   5  15
HETATM   15  O   UNL     1     -38.826 -54.295  13.432  1.00  0.00    -0.360 OA
HETATM   16  H   UNL     1     -38.387 -54.633  14.231  1.00  0.00     0.217 HD
ENDBRANCH   5  15
TORSDOF 4
ENDMDL
MODEL 2
REMARK VINA RESULT:      -4.9      1.672      4.273
REMARK  4 active torsions:
REMARK  status: ('A' for Active; 'I' for Inactive)
REMARK    1  A    between atoms: C_2  and  C_3 
REMARK    2  A    between atoms: C_2  and  N_6 
REMARK    3  A    between atoms: C_3  and  O_5 
REMARK    4  A    between atoms: C_10  and  O_11 
ROOT
HETATM    1  N   UNL     1     -43.151 -52.865  13.510  1.00  0.00    -0.304 N 
HETATM    2  C   UNL     1     -42.933 -54.108  14.136  1.00  0.00     0.014 C 
HETATM    3  C   UNL     1     -41.577 -54.525  14.642  1.00  0.00     0.068 C 
HETATM    4  C   UNL     1     -43.969 -54.948  14.330  1.00  0.00     0.061 C 
HETATM    5  C   UNL     1     -45.301 -54.585  13.936  1.00  0.00     0.072 C 
HETATM    6  C   UNL     1     -45.566 -53.365  13.476  1.00  0.00     0.111 C 
HETATM    7  C   UNL     1     -44.463 -52.398  13.284  1.00  0.00     0.251 C 
HETATM    8  O   UNL     1     -44.738 -51.259  12.915  1.00  0.00    -0.268 OA
ENDROOT
BRANCH   1   9
HETATM    9  C   UNL     1     -42.082 -51.865  13.245  1.00  0.00     0.186 C 
HETATM   10  C   UNL     1     -41.590 -51.195  14.527  1.00  0.00     0.044 C 
BRANCH   9  11
HETATM   11  C   UNL     1     -40.926 -52.274  12.313  1.00  0.00     0.163 C 
HETATM   12  O   UNL     1     -39.741 -52.218  12.604  1.00  0.00    -0.648 OA
BRANCH  11  13
HETATM   13  O   UNL     1     -41.330 -52.600  11.059  1.00  0.00    -0.775 OA
HETATM   14  H   UNL     1     -42.085 -53.224  11.076  1.00  0.00     0.167 HD
ENDBRANCH  11  13
ENDBRANCH   9  11
ENDBRANCH   1   9
BRANCH   5  15
HETATM   15  O   UNL     1     -46.297 -55.521  14.077  1.00  0.00    -0.360 OA
HETATM   16  H   UNL     1     -46.608 -55.807  13.201  1.00  0.00     0.217 HD
ENDBRANCH   5  15
TORSDOF 4
ENDMDL
MODEL 3
REMARK VINA RESULT:      -4.9      8.317      9.978
REMARK  4 active torsions:
REMARK  status: ('A' for Active; 'I' for Inactive)
REMARK    1  A    between atoms: C_2  and  C_3 
REMARK    2  A    between atoms: C_2  and  N_6 
REMARK    3  A    between atoms: C_3  and  O_5 
REMARK    4  A    between atoms: C_10  and  O_11 
ROOT
HETATM    1  N   UNL     1     -42.364 -45.627  10.218  1.00  0.00    -0.304 N 
HETATM    2  C   UNL     1     -42.205 -47.027  10.225  1.00  0.00     0.014 C 
HETATM    3  C   UNL     1     -41.182 -47.714  11.091  1.00  0.00     0.068 C 
HETATM    4  C   UNL     1     -43.012 -47.795   9.467  1.00  0.00     0.061 C 
HETATM    5  C   UNL     1     -44.055 -47.212   8.671  1.00  0.00     0.072 C 
HETATM    6  C   UNL     1     -44.327 -45.912   8.751  1.00  0.00     0.111 C 
HETATM    7  C   UNL     1     -43.489 -45.039   9.603  1.00  0.00     0.251 C 
HETATM    8  O   UNL     1     -43.794 -43.854   9.709  1.00  0.00    -0.268 OA
ENDROOT
BRANCH   1   9
HETATM    9  C   UNL     1     -41.529 -44.688  11.013  1.00  0.00     0.186 C 
HETATM   10  C   UNL     1     -41.867 -44.737  12.502  1.00  0.00     0.044 C 
BRANCH   9  11
HETATM   11  C   UNL     1     -40.011 -44.675  10.754  1.00  0.00     0.163 C 
HETATM   12  O   UNL     1     -39.157 -44.518  11.612  1.00  0.00    -0.648 OA
BRANCH  11  13
HETATM   13  O   UNL     1     -39.686 -44.734   9.437  1.00  0.00    -0.775 OA
HETATM   14  H   UNL     1     -38.786 -45.095   9.305  1.00  0.00     0.167 HD
ENDBRANCH  11  13
ENDBRANCH   9  11
ENDBRANCH   1   9
BRANCH   5  15
HETATM   15  O   UNL     1     -44.784 -48.039   7.850  1.00  0.00    -0.360 OA
HETATM   16  H   UNL     1     -45.587 -47.580   7.550  1.00  0.00     0.217 HD
ENDBRANCH   5  15
TORSDOF 4
ENDMDL
MODEL 4
REMARK VINA RESULT:      -4.8      1.334      1.536
REMARK  4 active torsions:
REMARK  status: ('A' for Active; 'I' for Inactive)
REMARK    1  A    between atoms: C_2  and  C_3 
REMARK    2  A    between atoms: C_2  and  N_6 
REMARK    3  A    between atoms: C_3  and  O_5 
REMARK    4  A    between atoms: C_10  and  O_11 
ROOT
HETATM    1  N   UNL     1     -43.690 -53.652  14.224  1.00  0.00    -0.304 N 
HETATM    2  C   UNL     1     -42.493 -54.352  14.477  1.00  0.00     0.014 C 
HETATM    3  C   UNL     1     -42.351 -55.304  15.636  1.00  0.00     0.068 C 
HETATM    4  C   UNL     1     -41.444 -54.205  13.644  1.00  0.00     0.061 C 
HETATM    5  C   UNL     1     -41.534 -53.367  12.481  1.00  0.00     0.072 C 
HETATM    6  C   UNL     1     -42.690 -52.808  12.132  1.00  0.00     0.111 C 
HETATM    7  C   UNL     1     -43.877 -52.977  12.999  1.00  0.00     0.251 C 
HETATM    8  O   UNL     1     -44.948 -52.502  12.628  1.00  0.00    -0.268 OA
ENDROOT
BRANCH   1   9
HETATM    9  C   UNL     1     -44.905 -53.740  15.077  1.00  0.00     0.186 C 
HETATM   10  C   UNL     1     -45.261 -52.396  15.711  1.00  0.00     0.044 C 
BRANCH   9  11
HETATM   11  C   UNL     1     -46.137 -54.467  14.506  1.00  0.00     0.163 C 
HETATM   12  O   UNL     1     -46.144 -55.620  14.106  1.00  0.00    -0.648 OA
BRANCH  11  13
HETATM   13  O   UNL     1     -47.223 -53.664  14.366  1.00  0.00    -0.775 OA
HETATM   14  H   UNL     1     -46.990 -52.819  13.930  1.00  0.00     0.167 HD
ENDBRANCH  11  13
ENDBRANCH   9  11
ENDBRANCH   1   9
BRANCH   5  15
HETATM   15  O   UNL     1     -40.402 -53.187  11.723  1.00  0.00    -0.360 OA
HETATM   16  H   UNL     1     -39.843 -52.500  12.124  1.00  0.00     0.217 HD
ENDBRANCH   5  15
TORSDOF 4
ENDMDL
MODEL 5
REMARK VINA RESULT:      -4.8      1.611      4.812
REMARK  4 active torsions:
REMARK  status: ('A' for Active; 'I' for Inactive)
REMARK    1  A    between atoms: C_2  and  C_3 
REMARK    2  A    between atoms: C_2  and  N_6 
REMARK    3  A    between atoms: C_3  and  O_5 
REMARK    4  A    between atoms: C_10  and  O_11 
ROOT
HETATM    1  N   UNL     1     -41.745 -53.828  14.207  1.00  0.00    -0.304 N 
HETATM    2  C   UNL     1     -42.199 -53.246  13.007  1.00  0.00     0.014 C 
HETATM    3  C   UNL     1     -41.293 -52.441  12.112  1.00  0.00     0.068 C 
HETATM    4  C   UNL     1     -43.473 -53.438  12.611  1.00  0.00     0.061 C 
HETATM    5  C   UNL     1     -44.372 -54.253  13.380  1.00  0.00     0.072 C 
HETATM    6  C   UNL     1     -43.938 -54.934  14.438  1.00  0.00     0.111 C 
HETATM    7  C   UNL     1     -42.535 -54.781  14.883  1.00  0.00     0.251 C 
HETATM    8  O   UNL     1     -42.141 -55.464  15.825  1.00  0.00    -0.268 OA
ENDROOT
BRANCH   1   9
HETATM    9  C   UNL     1     -40.363 -53.679  14.736  1.00  0.00     0.186 C 
HETATM   10  C   UNL     1     -40.350 -53.203  16.188  1.00  0.00     0.044 C 
BRANCH   9  11
HETATM   11  C   UNL     1     -39.366 -54.826  14.484  1.00  0.00     0.163 C 
HETATM   12  O   UNL     1     -38.951 -55.591  15.341  1.00  0.00    -0.648 OA
BRANCH  11  13
HETATM   13  O   UNL     1     -38.876 -54.850  13.219  1.00  0.00    -0.775 OA
HETATM   14  H   UNL     1     -39.346 -54.216  12.640  1.00  0.00     0.167 HD
ENDBRANCH  11  13
ENDBRANCH   9  11
ENDBRANCH   1   9
BRANCH   5  15
HETATM   15  O   UNL     1     -45.682 -54.335  12.973  1.00  0.00    -0.360 OA
HETATM   16  H   UNL     1     -46.013 -53.449  12.750  1.00  0.00     0.217 HD
ENDBRANCH   5  15
TORSDOF 4
ENDMDL
MODEL 6
REMARK VINA RESULT:      -4.8      1.629      2.605
REMARK  4 active torsions:
REMARK  status: ('A' for Active; 'I' for Inactive)
REMARK    1  A    between atoms: C_2  and  C_3 
REMARK    2  A    between atoms: C_2  and  N_6 
REMARK    3  A    between atoms: C_3  and  O_5 
REMARK    4  A    between atoms: C_10  and  O_11 
ROOT
HETATM    1  N   UNL     1     -43.682 -53.591  14.118  1.00  0.00    -0.304 N 
HETATM    2  C   UNL     1     -43.637 -52.498  13.230  1.00  0.00     0.014 C 
HETATM    3  C   UNL     1     -44.724 -51.457  13.183  1.00  0.00     0.068 C 
HETATM    4  C   UNL     1     -42.575 -52.343  12.415  1.00  0.00     0.061 C 
HETATM    5  C   UNL     1     -41.470 -53.259  12.456  1.00  0.00     0.072 C 
HETATM    6  C   UNL     1     -41.412 -54.215  13.379  1.00  0.00     0.111 C 
HETATM    7  C   UNL     1     -42.540 -54.396  14.319  1.00  0.00     0.251 C 
HETATM    8  O   UNL     1     -42.440 -55.245  15.201  1.00  0.00    -0.268 OA
ENDROOT
BRANCH   1   9
HETATM    9  C   UNL     1     -44.804 -53.858  15.057  1.00  0.00     0.186 C 
HETATM   10  C   UNL     1     -45.129 -52.644  15.926  1.00  0.00     0.044 C 
BRANCH   9  11
HETATM   11  C   UNL     1     -46.068 -54.537  14.497  1.00  0.00     0.163 C 
HETATM   12  O   UNL     1     -46.106 -55.665  14.030  1.00  0.00    -0.648 OA
BRANCH  11  13
HETATM   13  O   UNL     1     -47.148 -53.717  14.451  1.00  0.00    -0.775 OA
HETATM   14  H   UNL     1     -47.923 -54.165  14.056  1.00  0.00     0.167 HD
ENDBRANCH  11  13
ENDBRANCH   9  11
ENDBRANCH   1   9
BRANCH   5  15
HETATM   15  O   UNL     1     -40.460 -53.099  11.537  1.00  0.00    -0.360 OA
HETATM   16  H   UNL     1     -40.700 -53.540  10.704  1.00  0.00     0.217 HD
ENDBRANCH   5  15
TORSDOF 4
ENDMDL
MODEL 7
REMARK VINA RESULT:      -4.7      3.549      5.007
REMARK  4 active torsions:
REMARK  status: ('A' for Active; 'I' for Inactive)
REMARK    1  A    between atoms: C_2  and  C_3 
REMARK    2  A    between atoms: C_2  and  N_6 
REMARK    3  A    between atoms: C_3  and  O_5 
REMARK    4  A    between atoms: C_10  and  O_11 
ROOT
HETATM    1  N   UNL     1     -39.689 -52.456  13.659  1.00  0.00    -0.304 N 
HETATM    2  C   UNL     1     -40.891 -52.622  12.943  1.00  0.00     0.014 C 
HETATM    3  C   UNL     1     -41.920 -53.652  13.330  1.00  0.00     0.068 C 
HETATM    4  C   UNL     1     -41.162 -51.816  11.898  1.00  0.00     0.061 C 
HETATM    5  C   UNL     1     -40.258 -50.767  11.517  1.00  0.00     0.072 C 
HETATM    6  C   UNL     1     -39.188 -50.489  12.257  1.00  0.00     0.111 C 
HETATM    7  C   UNL     1     -38.874 -51.326  13.436  1.00  0.00     0.251 C 
HETATM    8  O   UNL     1     -37.916 -51.015  14.139  1.00  0.00    -0.268 OA
ENDROOT
BRANCH   1   9
HETATM    9  C   UNL     1     -39.290 -53.290  14.825  1.00  0.00     0.186 C 
HETATM   10  C   UNL     1     -40.149 -53.006  16.056  1.00  0.00     0.044 C 
BRANCH   9  11
HETATM   11  C   UNL     1     -39.071 -54.796  14.594  1.00  0.00     0.163 C 
HETATM   12  O   UNL     1     -39.139 -55.653  15.461  1.00  0.00    -0.648 OA
BRANCH  11  13
HETATM   13  O   UNL     1     -38.666 -55.098  13.334  1.00  0.00    -0.775 OA
HETATM   14  H   UNL     1     -38.221 -55.969  13.298  1.00  0.00     0.167 HD
ENDBRANCH  11  13
ENDBRANCH   9  11
ENDBRANCH   1   9
BRANCH   5  15
HETATM   15  O   UNL     1     -40.547 -50.040  10.388  1.00  0.00    -0.360 OA
HETATM   16  H   UNL     1     -40.688 -50.640   9.636  1.00  0.00     0.217 HD
ENDBRANCH   5  15
TORSDOF 4
ENDMDL
MODEL 8
REMARK VINA RESULT:      -4.7     22.205     23.856
REMARK  4 active torsions:
REMARK  status: ('A' for Active; 'I' for Inactive)
REMARK    1  A    between atoms: C_2  and  C_3 
REMARK    2  A    between atoms: C_2  and  N_6 
REMARK    3  A    between atoms: C_3  and  O_5 
REMARK    4  A    between atoms: C_10  and  O_11 
ROOT
HETATM    1  N   UNL     1     -29.347 -53.410  -5.320  1.00  0.00    -0.304 N 
HETATM    2  C   UNL     1     -29.594 -52.151  -5.901  1.00  0.00     0.014 C 
HETATM    3  C   UNL     1     -28.493 -51.309  -6.491  1.00  0.00     0.068 C 
HETATM    4  C   UNL     1     -30.857 -51.686  -5.975  1.00  0.00     0.061 C 
HETATM    5  C   UNL     1     -31.963 -52.467  -5.496  1.00  0.00     0.072 C 
HETATM    6  C   UNL     1     -31.782 -53.716  -5.076  1.00  0.00     0.111 C 
HETATM    7  C   UNL     1     -30.415 -54.279  -5.016  1.00  0.00     0.251 C 
HETATM    8  O   UNL     1     -30.278 -55.453  -4.681  1.00  0.00    -0.268 OA
ENDROOT
BRANCH   1   9
HETATM    9  C   UNL     1     -27.995 -54.017  -5.187  1.00  0.00     0.186 C 
HETATM   10  C   UNL     1     -27.191 -53.923  -6.482  1.00  0.00     0.044 C 
BRANCH   9  11
HETATM   11  C   UNL     1     -27.159 -53.650  -3.946  1.00  0.00     0.163 C 
HETATM   12  O   UNL     1     -26.754 -52.529  -3.684  1.00  0.00    -0.648 OA
BRANCH  11  13
HETATM   13  O   UNL     1     -26.793 -54.725  -3.203  1.00  0.00    -0.775 OA
HETATM   14  H   UNL     1     -26.075 -54.501  -2.577  1.00  0.00     0.167 HD
ENDBRANCH  11  13
ENDBRANCH   9  11
ENDBRANCH   1   9
BRANCH   5  15
HETATM   15  O   UNL     1     -33.214 -51.900  -5.516  1.00  0.00    -0.360 OA
HETATM   16  H   UNL     1     -33.722 -52.196  -4.741  1.00  0.00     0.217 HD
ENDBRANCH   5  15
TORSDOF 4
ENDMDL
MODEL 9
REMARK VINA RESULT:      -4.6      2.753      5.613
REMARK  4 active torsions:
REMARK  status: ('A' for Active; 'I' for Inactive)
REMARK    1  A    between atoms: C_2  and  C_3 
REMARK    2  A    between atoms: C_2  and  N_6 
REMARK    3  A    between atoms: C_3  and  O_5 
REMARK    4  A    between atoms: C_10  and  O_11 
ROOT
HETATM    1  N   UNL     1     -45.616 -53.210  15.121  1.00  0.00    -0.304 N 
HETATM    2  C   UNL     1     -46.388 -52.191  14.530  1.00  0.00     0.014 C 
HETATM    3  C   UNL     1     -46.481 -52.018  13.036  1.00  0.00     0.068 C 
HETATM    4  C   UNL     1     -47.105 -51.359  15.310  1.00  0.00     0.061 C 
HETATM    5  C   UNL     1     -47.119 -51.510  16.737  1.00  0.00     0.072 C 
HETATM    6  C   UNL     1     -46.520 -52.547  17.318  1.00  0.00     0.111 C 
HETATM    7  C   UNL     1     -45.754 -53.507  16.493  1.00  0.00     0.251 C 
HETATM    8  O   UNL     1     -45.259 -54.488  17.042  1.00  0.00    -0.268 OA
ENDROOT
BRANCH   1   9
HETATM    9  C   UNL     1     -44.788 -54.181  14.356  1.00  0.00     0.186 C 
HETATM   10  C   UNL     1     -45.624 -55.322  13.780  1.00  0.00     0.044 C 
BRANCH   9  11
HETATM   11  C   UNL     1     -43.774 -53.622  13.340  1.00  0.00     0.163 C 
HETATM   12  O   UNL     1     -42.958 -52.746  13.579  1.00  0.00    -0.648 OA
BRANCH  11  13
HETATM   13  O   UNL     1     -43.942 -54.109  12.084  1.00  0.00    -0.775 OA
HETATM   14  H   UNL     1     -44.396 -54.976  12.093  1.00  0.00     0.167 HD
ENDBRANCH  11  13
ENDBRANCH   9  11
ENDBRANCH   1   9
BRANCH   5  15
HETATM   15  O   UNL     1     -47.796 -50.574  17.483  1.00  0.00    -0.360 OA
HETATM   16  H   UNL     1     -48.151 -50.988  18.287  1.00  0.00     0.217 HD
ENDBRANCH   5  15
TORSDOF 4
ENDMDL
