MODEL 1
REMARK VINA RESULT:      -7.2      0.000      0.000
REMARK  7 active torsions:
REMARK  status: ('A' for Active; 'I' for Inactive)
REMARK    1  A    between atoms: N_8  and  C_9 
REMARK    2  A    between atoms: C_9  and  C_10 
REMARK    3  A    between atoms: C_10  and  O_11 
REMARK    4  A    between atoms: C_10  and  C_12 
REMARK    5  A    between atoms: C_12  and  N_13 
REMARK    6  A    between atoms: N_13  and  C_14 
REMARK    7  A    between atoms: C_14  and  C_15 
ROOT
HETATM    1  C   UNL     1     -42.256 -48.714  11.527  1.00  0.00     0.164 C 
ENDROOT
BRANCH   1   2
HETATM    2  C   UNL     1     -41.739 -49.521  12.731  1.00  0.00     0.163 C 
BRANCH   2   3
HETATM    3  N   UNL     1     -41.973 -50.946  12.591  1.00  0.00    -0.339 N 
HETATM    4  C   UNL     1     -41.125 -51.815  11.962  1.00  0.00     0.184 A 
HETATM    5  N   UNL     1     -41.585 -53.043  11.982  1.00  0.00    -0.350 N 
HETATM    6  C   UNL     1     -42.784 -52.964  12.646  1.00  0.00     0.060 A 
ATOM      7  HN  UNL     1     -41.147 -53.876  11.589  1.00  0.00     0.166 HD
HETATM    8  C   UNL     1     -43.693 -53.983  12.958  1.00  0.00     0.039 A 
HETATM    9  C   UNL     1     -43.064 -51.656  13.029  1.00  0.00     0.062 A 
HETATM   10  C   UNL     1     -44.880 -53.673  13.649  1.00  0.00    -0.054 A 
HETATM   11  C   UNL     1     -45.829 -54.792  13.987  1.00  0.00     0.049 C 
HETATM   12  C   UNL     1     -45.155 -52.337  14.014  1.00  0.00    -0.054 A 
HETATM   13  C   UNL     1     -44.242 -51.305  13.702  1.00  0.00     0.039 A 
HETATM   14  C   UNL     1     -46.423 -51.985  14.749  1.00  0.00     0.049 C 
ENDBRANCH   2   3
ENDBRANCH   1   2
BRANCH   1  15
HETATM   15  O   UNL     1     -43.689 -48.690  11.477  1.00  0.00    -0.392 OA
HETATM   16  H   UNL     1     -44.049 -49.063  12.298  1.00  0.00     0.210 HD
ENDBRANCH   1  15
BRANCH   1  17
HETATM   17  C   UNL     1     -41.751 -47.256  11.564  1.00  0.00     0.303 C 
BRANCH  17  18
HETATM   18  N   UNL     1     -41.495 -46.750  10.218  1.00  0.00     0.091 N 
HETATM   19  H   UNL     1     -41.433 -47.537   9.564  1.00  0.00     0.316 HD
BRANCH  18  20
HETATM   20  C   UNL     1     -42.582 -45.894   9.729  1.00  0.00     0.326 C 
BRANCH  20  21
HETATM   21  C   UNL     1     -43.588 -46.729   8.965  1.00  0.00     0.040 A 
HETATM   22  C   UNL     1     -43.178 -47.540   7.924  1.00  0.00     0.044 A 
HETATM   23  C   UNL     1     -44.146 -48.335   7.359  1.00  0.00     0.091 A 
HETATM   24  N   UNL     1     -45.428 -48.349   7.766  1.00  0.00    -0.356 N 
HETATM   25  C   UNL     1     -45.738 -47.532   8.789  1.00  0.00     0.077 A 
ATOM     26  HN  UNL     1     -46.127 -48.946   7.324  1.00  0.00     0.166 HD
HETATM   27  C   UNL     1     -47.158 -47.509   9.260  1.00  0.00     0.089 C 
HETATM   28  N   UNL     1     -44.864 -46.723   9.419  1.00  0.00    -0.348 N 
ATOM     29  HN  UNL     1     -45.149 -46.135  10.201  1.00  0.00     0.167 HD
ENDBRANCH  20  21
ENDBRANCH  18  20
ENDBRANCH  17  18
ENDBRANCH   1  17
TORSDOF 7
ENDMDL
MODEL 2
REMARK VINA RESULT:      -7.1      1.653      2.520
REMARK  7 active torsions:
REMARK  status: ('A' for Active; 'I' for Inactive)
REMARK    1  A    between atoms: N_8  and  C_9 
REMARK    2  A    between atoms: C_9  and  C_10 
REMARK    3  A    between atoms: C_10  and  O_11 
REMARK    4  A    between atoms: C_10  and  C_12 
REMARK    5  A    between atoms: C_12  and  N_13 
REMARK    6  A    between atoms: N_13  and  C_14 
REMARK    7  A    between atoms: C_14  and  C_15 
ROOT
HETATM    1  C   UNL     1     -40.293 -50.053  11.494  1.00  0.00     0.164 C 
ENDROOT
BRANCH   1   2
HETATM    2  C   UNL     1     -41.629 -50.155  12.251  1.00  0.00     0.163 C 
BRANCH   2   3
HETATM    3  N   UNL     1     -42.042 -51.528  12.473  1.00  0.00    -0.339 N 
HETATM    4  C   UNL     1     -41.294 -52.627  12.155  1.00  0.00     0.184 A 
HETATM    5  N   UNL     1     -41.911 -53.742  12.463  1.00  0.00    -0.350 N 
HETATM    6  C   UNL     1     -43.114 -53.348  12.996  1.00  0.00     0.060 A 
ATOM      7  HN  UNL     1     -41.572 -54.696  12.334  1.00  0.00     0.166 HD
HETATM    8  C   UNL     1     -44.160 -54.133  13.498  1.00  0.00     0.039 A 
HETATM    9  C   UNL     1     -43.233 -51.962  13.002  1.00  0.00     0.062 A 
HETATM   10  C   UNL     1     -45.321 -53.512  13.997  1.00  0.00    -0.054 A 
HETATM   11  C   UNL     1     -46.421 -54.380  14.548  1.00  0.00     0.049 C 
HETATM   12  C   UNL     1     -45.431 -52.104  13.979  1.00  0.00    -0.054 A 
HETATM   13  C   UNL     1     -44.380 -51.308  13.473  1.00  0.00     0.039 A 
HETATM   14  C   UNL     1     -46.669 -51.422  14.504  1.00  0.00     0.049 C 
ENDBRANCH   2   3
ENDBRANCH   1   2
BRANCH   1  15
HETATM   15  O   UNL     1     -40.492 -49.872  10.086  1.00  0.00    -0.392 OA
HETATM   16  H   UNL     1     -41.409 -49.599   9.919  1.00  0.00     0.210 HD
ENDBRANCH   1  15
BRANCH   1  17
HETATM   17  C   UNL     1     -39.437 -48.878  12.014  1.00  0.00     0.303 C 
BRANCH  17  18
HETATM   18  N   UNL     1     -39.500 -47.736  11.107  1.00  0.00     0.091 N 
HETATM   19  H   UNL     1     -40.120 -47.957  10.321  1.00  0.00     0.316 HD
BRANCH  18  20
HETATM   20  C   UNL     1     -40.061 -46.543  11.751  1.00  0.00     0.326 C 
BRANCH  20  21
HETATM   21  C   UNL     1     -41.346 -46.142  11.056  1.00  0.00     0.040 A 
HETATM   22  C   UNL     1     -41.898 -44.894  11.271  1.00  0.00     0.044 A 
HETATM   23  C   UNL     1     -43.006 -44.585  10.520  1.00  0.00     0.091 A 
HETATM   24  N   UNL     1     -43.552 -45.423   9.620  1.00  0.00    -0.356 N 
HETATM   25  C   UNL     1     -42.947 -46.615   9.471  1.00  0.00     0.077 A 
ATOM     26  HN  UNL     1     -44.378 -45.168   9.080  1.00  0.00     0.166 HD
HETATM   27  C   UNL     1     -43.533 -47.579   8.488  1.00  0.00     0.089 C 
HETATM   28  N   UNL     1     -41.851 -47.011  10.148  1.00  0.00    -0.348 N 
ATOM     29  HN  UNL     1     -41.422 -47.921   9.984  1.00  0.00     0.167 HD
ENDBRANCH  20  21
ENDBRANCH  18  20
ENDBRANCH  17  18
ENDBRANCH   1  17
TORSDOF 7
ENDMDL
MODEL 3
REMARK VINA RESULT:      -6.9      1.664      2.201
REMARK  7 active torsions:
REMARK  status: ('A' for Active; 'I' for Inactive)
REMARK    1  A    between atoms: N_8  and  C_9 
REMARK    2  A    between atoms: C_9  and  C_10 
REMARK    3  A    between atoms: C_10  and  O_11 
REMARK    4  A    between atoms: C_10  and  C_12 
REMARK    5  A    between atoms: C_12  and  N_13 
REMARK    6  A    between atoms: N_13  and  C_14 
REMARK    7  A    between atoms: C_14  and  C_15 
ROOT
HETATM    1  C   UNL     1     -41.082 -50.612  12.118  1.00  0.00     0.164 C 
ENDROOT
BRANCH   1   2
HETATM    2  C   UNL     1     -40.845 -52.079  11.716  1.00  0.00     0.163 C 
BRANCH   2   3
HETATM    3  N   UNL     1     -41.400 -53.017  12.674  1.00  0.00    -0.339 N 
HETATM    4  C   UNL     1     -40.663 -53.885  13.430  1.00  0.00     0.184 A 
HETATM    5  N   UNL     1     -41.422 -54.617  14.209  1.00  0.00    -0.350 N 
HETATM    6  C   UNL     1     -42.706 -54.211  13.940  1.00  0.00     0.060 A 
ATOM      7  HN  UNL     1     -41.123 -55.334  14.871  1.00  0.00     0.166 HD
HETATM    8  C   UNL     1     -43.911 -54.657  14.498  1.00  0.00     0.039 A 
HETATM    9  C   UNL     1     -42.727 -53.217  12.968  1.00  0.00     0.062 A 
HETATM   10  C   UNL     1     -45.129 -54.099  14.065  1.00  0.00    -0.054 A 
HETATM   11  C   UNL     1     -46.407 -54.585  14.695  1.00  0.00     0.049 C 
HETATM   12  C   UNL     1     -45.132 -53.103  13.064  1.00  0.00    -0.054 A 
HETATM   13  C   UNL     1     -43.920 -52.650  12.498  1.00  0.00     0.039 A 
HETATM   14  C   UNL     1     -46.427 -52.498  12.583  1.00  0.00     0.049 C 
ENDBRANCH   2   3
ENDBRANCH   1   2
BRANCH   1  15
HETATM   15  O   UNL     1     -40.563 -50.327  13.423  1.00  0.00    -0.392 OA
HETATM   16  H   UNL     1     -39.609 -50.148  13.362  1.00  0.00     0.210 HD
ENDBRANCH   1  15
BRANCH   1  17
HETATM   17  C   UNL     1     -40.426 -49.638  11.115  1.00  0.00     0.303 C 
BRANCH  17  18
HETATM   18  N   UNL     1     -41.434 -48.894  10.364  1.00  0.00     0.091 N 
HETATM   19  H   UNL     1     -42.127 -49.547   9.986  1.00  0.00     0.316 HD
BRANCH  18  20
HETATM   20  C   UNL     1     -42.174 -47.951  11.209  1.00  0.00     0.326 C 
BRANCH  20  21
HETATM   21  C   UNL     1     -43.247 -47.263  10.391  1.00  0.00     0.040 A 
HETATM   22  C   UNL     1     -43.026 -46.004   9.866  1.00  0.00     0.044 A 
HETATM   23  C   UNL     1     -44.017 -45.505   9.054  1.00  0.00     0.091 A 
HETATM   24  N   UNL     1     -45.148 -46.172   8.765  1.00  0.00    -0.356 N 
HETATM   25  C   UNL     1     -45.278 -47.393   9.315  1.00  0.00     0.077 A 
ATOM     26  HN  UNL     1     -45.869 -45.774   8.163  1.00  0.00     0.166 HD
HETATM   27  C   UNL     1     -46.530 -48.161   9.027  1.00  0.00     0.089 C 
HETATM   28  N   UNL     1     -44.363 -47.978  10.113  1.00  0.00    -0.348 N 
ATOM     29  HN  UNL     1     -44.504 -48.914  10.490  1.00  0.00     0.167 HD
ENDBRANCH  20  21
ENDBRANCH  18  20
ENDBRANCH  17  18
ENDBRANCH   1  17
TORSDOF 7
ENDMDL
MODEL 4
REMARK VINA RESULT:      -6.8      2.103      3.702
REMARK  7 active torsions:
REMARK  status: ('A' for Active; 'I' for Inactive)
REMARK    1  A    between atoms: N_8  and  C_9 
REMARK    2  A    between atoms: C_9  and  C_10 
REMARK    3  A    between atoms: C_10  and  O_11 
REMARK    4  A    between atoms: C_10  and  C_12 
REMARK    5  A    between atoms: C_12  and  N_13 
REMARK    6  A    between atoms: N_13  and  C_14 
REMARK    7  A    between atoms: C_14  and  C_15 
ROOT
HETATM    1  C   UNL     1     -40.730 -52.857  12.684  1.00  0.00     0.164 C 
ENDROOT
BRANCH   1   2
HETATM    2  C   UNL     1     -41.741 -53.670  13.511  1.00  0.00     0.163 C 
BRANCH   2   3
HETATM    3  N   UNL     1     -43.109 -53.224  13.318  1.00  0.00    -0.339 N 
HETATM    4  C   UNL     1     -43.773 -53.247  12.123  1.00  0.00     0.184 A 
HETATM    5  N   UNL     1     -44.995 -52.784  12.238  1.00  0.00    -0.350 N 
HETATM    6  C   UNL     1     -45.123 -52.441  13.561  1.00  0.00     0.060 A 
ATOM      7  HN  UNL     1     -45.697 -52.698  11.503  1.00  0.00     0.166 HD
HETATM    8  C   UNL     1     -46.229 -51.904  14.234  1.00  0.00     0.039 A 
HETATM    9  C   UNL     1     -43.949 -52.691  14.264  1.00  0.00     0.062 A 
HETATM   10  C   UNL     1     -46.138 -51.618  15.609  1.00  0.00    -0.054 A 
HETATM   11  C   UNL     1     -47.348 -51.059  16.309  1.00  0.00     0.049 C 
HETATM   12  C   UNL     1     -44.932 -51.862  16.302  1.00  0.00    -0.054 A 
HETATM   13  C   UNL     1     -43.814 -52.403  15.629  1.00  0.00     0.039 A 
HETATM   14  C   UNL     1     -44.814 -51.557  17.774  1.00  0.00     0.049 C 
ENDBRANCH   2   3
ENDBRANCH   1   2
BRANCH   1  15
HETATM   15  O   UNL     1     -40.589 -53.376  11.355  1.00  0.00    -0.392 OA
HETATM   16  H   UNL     1     -41.419 -53.249  10.866  1.00  0.00     0.210 HD
ENDBRANCH   1  15
BRANCH   1  17
HETATM   17  C   UNL     1     -41.146 -51.374  12.580  1.00  0.00     0.303 C 
BRANCH  17  18
HETATM   18  N   UNL     1     -40.951 -50.863  11.226  1.00  0.00     0.091 N 
HETATM   19  H   UNL     1     -41.855 -50.822  10.743  1.00  0.00     0.316 HD
BRANCH  18  20
HETATM   20  C   UNL     1     -40.417 -49.497  11.217  1.00  0.00     0.326 C 
BRANCH  20  21
HETATM   21  C   UNL     1     -41.537 -48.511  10.956  1.00  0.00     0.040 A 
HETATM   22  C   UNL     1     -41.932 -47.624  11.939  1.00  0.00     0.044 A 
HETATM   23  C   UNL     1     -42.884 -46.702  11.575  1.00  0.00     0.091 A 
HETATM   24  N   UNL     1     -43.423 -46.637  10.345  1.00  0.00    -0.356 N 
HETATM   25  C   UNL     1     -42.976 -47.535   9.448  1.00  0.00     0.077 A 
ATOM     26  HN  UNL     1     -44.133 -45.944  10.104  1.00  0.00     0.166 HD
HETATM   27  C   UNL     1     -43.563 -47.501   8.072  1.00  0.00     0.089 C 
HETATM   28  N   UNL     1     -42.040 -48.470   9.699  1.00  0.00    -0.348 N 
ATOM     29  HN  UNL     1     -41.725 -49.117   8.977  1.00  0.00     0.167 HD
ENDBRANCH  20  21
ENDBRANCH  18  20
ENDBRANCH  17  18
ENDBRANCH   1  17
TORSDOF 7
ENDMDL
MODEL 5
REMARK VINA RESULT:      -6.8      3.744      5.660
REMARK  7 active torsions:
REMARK  status: ('A' for Active; 'I' for Inactive)
REMARK    1  A    between atoms: N_8  and  C_9 
REMARK    2  A    between atoms: C_9  and  C_10 
REMARK    3  A    between atoms: C_10  and  O_11 
REMARK    4  A    between atoms: C_10  and  C_12 
REMARK    5  A    between atoms: C_12  and  N_13 
REMARK    6  A    between atoms: N_13  and  C_14 
REMARK    7  A    between atoms: C_14  and  C_15 
ROOT
HETATM    1  C   UNL     1     -41.564 -53.464  12.787  1.00  0.00     0.164 C 
ENDROOT
BRANCH   1   2
HETATM    2  C   UNL     1     -42.458 -52.212  12.815  1.00  0.00     0.163 C 
BRANCH   2   3
HETATM    3  N   UNL     1     -43.841 -52.519  13.132  1.00  0.00    -0.339 N 
HETATM    4  C   UNL     1     -44.626 -53.390  12.428  1.00  0.00     0.184 A 
HETATM    5  N   UNL     1     -45.832 -53.475  12.935  1.00  0.00    -0.350 N 
HETATM    6  C   UNL     1     -45.830 -52.617  14.007  1.00  0.00     0.060 A 
ATOM      7  HN  UNL     1     -46.605 -54.052  12.603  1.00  0.00     0.166 HD
HETATM    8  C   UNL     1     -46.860 -52.326  14.911  1.00  0.00     0.039 A 
HETATM    9  C   UNL     1     -44.597 -51.989  14.149  1.00  0.00     0.062 A 
HETATM   10  C   UNL     1     -46.640 -51.398  15.946  1.00  0.00    -0.054 A 
HETATM   11  C   UNL     1     -47.759 -51.118  16.913  1.00  0.00     0.049 C 
HETATM   12  C   UNL     1     -45.386 -50.757  16.063  1.00  0.00    -0.054 A 
HETATM   13  C   UNL     1     -44.344 -51.047  15.155  1.00  0.00     0.039 A 
HETATM   14  C   UNL     1     -45.133 -49.757  17.163  1.00  0.00     0.049 C 
ENDBRANCH   2   3
ENDBRANCH   1   2
BRANCH   1  15
HETATM   15  O   UNL     1     -40.693 -53.472  11.648  1.00  0.00    -0.392 OA
HETATM   16  H   UNL     1     -40.253 -54.335  11.581  1.00  0.00     0.210 HD
ENDBRANCH   1  15
BRANCH   1  17
HETATM   17  C   UNL     1     -40.695 -53.568  14.059  1.00  0.00     0.303 C 
BRANCH  17  18
HETATM   18  N   UNL     1     -40.309 -52.247  14.544  1.00  0.00     0.091 N 
HETATM   19  H   UNL     1     -40.491 -52.187  15.552  1.00  0.00     0.316 HD
BRANCH  18  20
HETATM   20  C   UNL     1     -38.876 -51.986  14.369  1.00  0.00     0.326 C 
BRANCH  20  21
HETATM   21  C   UNL     1     -38.661 -51.094  13.164  1.00  0.00     0.040 A 
HETATM   22  C   UNL     1     -37.418 -51.015  12.564  1.00  0.00     0.044 A 
HETATM   23  C   UNL     1     -37.347 -50.260  11.419  1.00  0.00     0.091 A 
HETATM   24  N   UNL     1     -38.401 -49.619  10.883  1.00  0.00    -0.356 N 
HETATM   25  C   UNL     1     -39.573 -49.754  11.530  1.00  0.00     0.077 A 
ATOM     26  HN  UNL     1     -38.317 -49.060  10.034  1.00  0.00     0.166 HD
HETATM   27  C   UNL     1     -40.766 -49.044  10.971  1.00  0.00     0.089 C 
HETATM   28  N   UNL     1     -39.753 -50.479  12.650  1.00  0.00    -0.348 N 
ATOM     29  HN  UNL     1     -40.668 -50.562  13.092  1.00  0.00     0.167 HD
ENDBRANCH  20  21
ENDBRANCH  18  20
ENDBRANCH  17  18
ENDBRANCH   1  17
TORSDOF 7
ENDMDL
MODEL 6
REMARK VINA RESULT:      -6.7      2.323      7.412
REMARK  7 active torsions:
REMARK  status: ('A' for Active; 'I' for Inactive)
REMARK    1  A    between atoms: N_8  and  C_9 
REMARK    2  A    between atoms: C_9  and  C_10 
REMARK    3  A    between atoms: C_10  and  O_11 
REMARK    4  A    between atoms: C_10  and  C_12 
REMARK    5  A    between atoms: C_12  and  N_13 
REMARK    6  A    between atoms: N_13  and  C_14 
REMARK    7  A    between atoms: C_14  and  C_15 
ROOT
HETATM    1  C   UNL     1     -41.599 -50.034  12.169  1.00  0.00     0.164 C 
ENDROOT
BRANCH   1   2
HETATM    2  C   UNL     1     -40.954 -49.458  10.895  1.00  0.00     0.163 C 
BRANCH   2   3
HETATM    3  N   UNL     1     -41.417 -48.116  10.593  1.00  0.00    -0.339 N 
HETATM    4  C   UNL     1     -42.381 -47.815   9.671  1.00  0.00     0.184 A 
HETATM    5  N   UNL     1     -42.600 -46.524   9.602  1.00  0.00    -0.350 N 
HETATM    6  C   UNL     1     -41.737 -45.966  10.513  1.00  0.00     0.060 A 
ATOM      7  HN  UNL     1     -43.268 -46.039   9.001  1.00  0.00     0.166 HD
HETATM    8  C   UNL     1     -41.559 -44.619  10.854  1.00  0.00     0.039 A 
HETATM    9  C   UNL     1     -40.969 -46.940  11.141  1.00  0.00     0.062 A 
HETATM   10  C   UNL     1     -40.601 -44.266  11.823  1.00  0.00    -0.054 A 
HETATM   11  C   UNL     1     -40.443 -42.812  12.183  1.00  0.00     0.049 C 
HETATM   12  C   UNL     1     -39.817 -45.267  12.438  1.00  0.00    -0.054 A 
HETATM   13  C   UNL     1     -39.993 -46.626  12.098  1.00  0.00     0.039 A 
HETATM   14  C   UNL     1     -38.783 -44.907  13.474  1.00  0.00     0.049 C 
ENDBRANCH   2   3
ENDBRANCH   1   2
BRANCH   1  15
HETATM   15  O   UNL     1     -43.031 -49.987  12.110  1.00  0.00    -0.392 OA
HETATM   16  H   UNL     1     -43.336 -50.401  11.285  1.00  0.00     0.210 HD
ENDBRANCH   1  15
BRANCH   1  17
HETATM   17  C   UNL     1     -41.175 -51.500  12.403  1.00  0.00     0.303 C 
BRANCH  17  18
HETATM   18  N   UNL     1     -42.108 -52.428  11.770  1.00  0.00     0.091 N 
HETATM   19  H   UNL     1     -41.682 -52.814  10.921  1.00  0.00     0.316 HD
BRANCH  18  20
HETATM   20  C   UNL     1     -42.423 -53.575  12.631  1.00  0.00     0.326 C 
BRANCH  20  21
HETATM   21  C   UNL     1     -43.909 -53.605  12.921  1.00  0.00     0.040 A 
HETATM   22  C   UNL     1     -44.423 -54.494  13.845  1.00  0.00     0.044 A 
HETATM   23  C   UNL     1     -45.766 -54.377  14.114  1.00  0.00     0.091 A 
HETATM   24  N   UNL     1     -46.565 -53.465  13.532  1.00  0.00    -0.356 N 
HETATM   25  C   UNL     1     -45.979 -52.636  12.649  1.00  0.00     0.077 A 
ATOM     26  HN  UNL     1     -47.560 -53.405  13.748  1.00  0.00     0.166 HD
HETATM   27  C   UNL     1     -46.839 -51.617  11.970  1.00  0.00     0.089 C 
HETATM   28  N   UNL     1     -44.672 -52.659  12.323  1.00  0.00    -0.348 N 
ATOM     29  HN  UNL     1     -44.276 -51.996  11.658  1.00  0.00     0.167 HD
ENDBRANCH  20  21
ENDBRANCH  18  20
ENDBRANCH  17  18
ENDBRANCH   1  17
TORSDOF 7
ENDMDL
MODEL 7
REMARK VINA RESULT:      -6.5      2.187      3.398
REMARK  7 active torsions:
REMARK  status: ('A' for Active; 'I' for Inactive)
REMARK    1  A    between atoms: N_8  and  C_9 
REMARK    2  A    between atoms: C_9  and  C_10 
REMARK    3  A    between atoms: C_10  and  O_11 
REMARK    4  A    between atoms: C_10  and  C_12 
REMARK    5  A    between atoms: C_12  and  N_13 
REMARK    6  A    between atoms: N_13  and  C_14 
REMARK    7  A    between atoms: C_14  and  C_15 
ROOT
HETATM    1  C   UNL     1     -40.349 -51.465  12.646  1.00  0.00     0.164 C 
ENDROOT
BRANCH   1   2
HETATM    2  C   UNL     1     -41.000 -52.754  13.179  1.00  0.00     0.163 C 
BRANCH   2   3
HETATM    3  N   UNL     1     -41.835 -52.518  14.343  1.00  0.00    -0.339 N 
HETATM    4  C   UNL     1     -41.396 -52.560  15.637  1.00  0.00     0.184 A 
HETATM    5  N   UNL     1     -42.364 -52.310  16.486  1.00  0.00    -0.350 N 
HETATM    6  C   UNL     1     -43.477 -52.106  15.708  1.00  0.00     0.060 A 
ATOM      7  HN  UNL     1     -42.302 -52.275  17.504  1.00  0.00     0.166 HD
HETATM    8  C   UNL     1     -44.786 -51.795  16.099  1.00  0.00     0.039 A 
HETATM    9  C   UNL     1     -43.181 -52.245  14.357  1.00  0.00     0.062 A 
HETATM   10  C   UNL     1     -45.786 -51.633  15.123  1.00  0.00    -0.054 A 
HETATM   11  C   UNL     1     -47.180 -51.281  15.571  1.00  0.00     0.049 C 
HETATM   12  C   UNL     1     -45.470 -51.796  13.756  1.00  0.00    -0.054 A 
HETATM   13  C   UNL     1     -44.153 -52.109  13.356  1.00  0.00     0.039 A 
HETATM   14  C   UNL     1     -46.530 -51.631  12.696  1.00  0.00     0.049 C 
ENDBRANCH   2   3
ENDBRANCH   1   2
BRANCH   1  15
HETATM   15  O   UNL     1     -39.030 -51.705  12.137  1.00  0.00    -0.392 OA
HETATM   16  H   UNL     1     -38.810 -51.031  11.473  1.00  0.00     0.210 HD
ENDBRANCH   1  15
BRANCH   1  17
HETATM   17  C   UNL     1     -41.191 -50.831  11.518  1.00  0.00     0.303 C 
BRANCH  17  18
HETATM   18  N   UNL     1     -40.405 -49.874  10.745  1.00  0.00     0.091 N 
HETATM   19  H   UNL     1     -40.802 -49.789   9.803  1.00  0.00     0.316 HD
BRANCH  18  20
HETATM   20  C   UNL     1     -40.435 -48.529  11.328  1.00  0.00     0.326 C 
BRANCH  20  21
HETATM   21  C   UNL     1     -41.502 -47.698  10.647  1.00  0.00     0.040 A 
HETATM   22  C   UNL     1     -41.811 -46.435  11.115  1.00  0.00     0.044 A 
HETATM   23  C   UNL     1     -42.718 -45.720  10.371  1.00  0.00     0.091 A 
HETATM   24  N   UNL     1     -43.295 -46.187   9.250  1.00  0.00    -0.356 N 
HETATM   25  C   UNL     1     -42.932 -47.424   8.864  1.00  0.00     0.077 A 
ATOM     26  HN  UNL     1     -43.969 -45.635   8.721  1.00  0.00     0.166 HD
HETATM   27  C   UNL     1     -43.562 -47.984   7.627  1.00  0.00     0.089 C 
HETATM   28  N   UNL     1     -42.044 -48.202   9.513  1.00  0.00    -0.348 N 
ATOM     29  HN  UNL     1     -41.792 -49.128   9.167  1.00  0.00     0.167 HD
ENDBRANCH  20  21
ENDBRANCH  18  20
ENDBRANCH  17  18
ENDBRANCH   1  17
TORSDOF 7
ENDMDL
MODEL 8
REMARK VINA RESULT:      -6.5      1.854      2.696
REMARK  7 active torsions:
REMARK  status: ('A' for Active; 'I' for Inactive)
REMARK    1  A    between atoms: N_8  and  C_9 
REMARK    2  A    between atoms: C_9  and  C_10 
REMARK    3  A    between atoms: C_10  and  O_11 
REMARK    4  A    between atoms: C_10  and  C_12 
REMARK    5  A    between atoms: C_12  and  N_13 
REMARK    6  A    between atoms: N_13  and  C_14 
REMARK    7  A    between atoms: C_14  and  C_15 
ROOT
HETATM    1  C   UNL     1     -41.454 -50.384  13.448  1.00  0.00     0.164 C 
ENDROOT
BRANCH   1   2
HETATM    2  C   UNL     1     -41.739 -51.888  13.606  1.00  0.00     0.163 C 
BRANCH   2   3
HETATM    3  N   UNL     1     -43.155 -52.198  13.538  1.00  0.00    -0.339 N 
HETATM    4  C   UNL     1     -43.741 -52.948  12.557  1.00  0.00     0.184 A 
HETATM    5  N   UNL     1     -45.034 -53.067  12.743  1.00  0.00    -0.350 N 
HETATM    6  C   UNL     1     -45.296 -52.359  13.889  1.00  0.00     0.060 A 
ATOM      7  HN  UNL     1     -45.700 -53.576  12.161  1.00  0.00     0.166 HD
HETATM    8  C   UNL     1     -46.516 -52.162  14.550  1.00  0.00     0.039 A 
HETATM    9  C   UNL     1     -44.138 -51.787  14.405  1.00  0.00     0.062 A 
HETATM   10  C   UNL     1     -46.557 -51.385  15.723  1.00  0.00    -0.054 A 
HETATM   11  C   UNL     1     -47.879 -51.206  16.421  1.00  0.00     0.049 C 
HETATM   12  C   UNL     1     -45.374 -50.797  16.222  1.00  0.00    -0.054 A 
HETATM   13  C   UNL     1     -44.141 -50.992  15.560  1.00  0.00     0.039 A 
HETATM   14  C   UNL     1     -45.399 -49.957  17.473  1.00  0.00     0.049 C 
ENDBRANCH   2   3
ENDBRANCH   1   2
BRANCH   1  15
HETATM   15  O   UNL     1     -40.059 -50.087  13.600  1.00  0.00    -0.392 OA
HETATM   16  H   UNL     1     -39.764 -49.528  12.862  1.00  0.00     0.210 HD
ENDBRANCH   1  15
BRANCH   1  17
HETATM   17  C   UNL     1     -41.909 -49.863  12.067  1.00  0.00     0.303 C 
BRANCH  17  18
HETATM   18  N   UNL     1     -43.093 -49.018  12.185  1.00  0.00     0.091 N 
HETATM   19  H   UNL     1     -43.299 -48.854  13.176  1.00  0.00     0.316 HD
BRANCH  18  20
HETATM   20  C   UNL     1     -42.894 -47.695  11.582  1.00  0.00     0.326 C 
BRANCH  20  21
HETATM   21  C   UNL     1     -43.583 -47.637  10.235  1.00  0.00     0.040 A 
HETATM   22  C   UNL     1     -42.846 -47.709   9.069  1.00  0.00     0.044 A 
HETATM   23  C   UNL     1     -43.567 -47.751   7.899  1.00  0.00     0.091 A 
HETATM   24  N   UNL     1     -44.911 -47.723   7.853  1.00  0.00    -0.356 N 
HETATM   25  C   UNL     1     -45.548 -47.657   9.036  1.00  0.00     0.077 A 
ATOM     26  HN  UNL     1     -45.419 -47.750   6.969  1.00  0.00     0.166 HD
HETATM   27  C   UNL     1     -47.044 -47.611   9.023  1.00  0.00     0.089 C 
HETATM   28  N   UNL     1     -44.938 -47.624  10.236  1.00  0.00    -0.348 N 
ATOM     29  HN  UNL     1     -45.470 -47.591  11.105  1.00  0.00     0.167 HD
ENDBRANCH  20  21
ENDBRANCH  18  20
ENDBRANCH  17  18
ENDBRANCH   1  17
TORSDOF 7
ENDMDL
MODEL 9
REMARK VINA RESULT:      -6.3      3.679      5.704
REMARK  7 active torsions:
REMARK  status: ('A' for Active; 'I' for Inactive)
REMARK    1  A    between atoms: N_8  and  C_9 
REMARK    2  A    between atoms: C_9  and  C_10 
REMARK    3  A    between atoms: C_10  and  O_11 
REMARK    4  A    between atoms: C_10  and  C_12 
REMARK    5  A    between atoms: C_12  and  N_13 
REMARK    6  A    between atoms: N_13  and  C_14 
REMARK    7  A    between atoms: C_14  and  C_15 
ROOT
HETATM    1  C   UNL     1     -40.354 -50.226  11.559  1.00  0.00     0.164 C 
ENDROOT
BRANCH   1   2
HETATM    2  C   UNL     1     -41.797 -50.305  12.086  1.00  0.00     0.163 C 
BRANCH   2   3
HETATM    3  N   UNL     1     -42.201 -51.661  12.408  1.00  0.00    -0.339 N 
HETATM    4  C   UNL     1     -41.461 -52.779  12.137  1.00  0.00     0.184 A 
HETATM    5  N   UNL     1     -42.067 -53.871  12.535  1.00  0.00    -0.350 N 
HETATM    6  C   UNL     1     -43.253 -53.443  13.079  1.00  0.00     0.060 A 
ATOM      7  HN  UNL     1     -41.731 -54.831  12.456  1.00  0.00     0.166 HD
HETATM    8  C   UNL     1     -44.282 -54.194  13.663  1.00  0.00     0.039 A 
HETATM    9  C   UNL     1     -43.374 -52.060  13.000  1.00  0.00     0.062 A 
HETATM   10  C   UNL     1     -45.427 -53.542  14.158  1.00  0.00    -0.054 A 
HETATM   11  C   UNL     1     -46.508 -54.373  14.797  1.00  0.00     0.049 C 
HETATM   12  C   UNL     1     -45.540 -52.139  14.053  1.00  0.00    -0.054 A 
HETATM   13  C   UNL     1     -44.506 -51.377  13.465  1.00  0.00     0.039 A 
HETATM   14  C   UNL     1     -46.762 -51.423  14.573  1.00  0.00     0.049 C 
ENDBRANCH   2   3
ENDBRANCH   1   2
BRANCH   1  15
HETATM   15  O   UNL     1     -40.310 -49.828  10.182  1.00  0.00    -0.392 OA
HETATM   16  H   UNL     1     -40.887 -50.408   9.658  1.00  0.00     0.210 HD
ENDBRANCH   1  15
BRANCH   1  17
HETATM   17  C   UNL     1     -39.508 -49.225  12.376  1.00  0.00     0.303 C 
BRANCH  17  18
HETATM   18  N   UNL     1     -39.753 -49.370  13.808  1.00  0.00     0.091 N 
HETATM   19  H   UNL     1     -40.699 -49.734  13.957  1.00  0.00     0.316 HD
BRANCH  18  20
HETATM   20  C   UNL     1     -38.839 -50.332  14.434  1.00  0.00     0.326 C 
BRANCH  20  21
HETATM   21  C   UNL     1     -39.624 -51.509  14.973  1.00  0.00     0.040 A 
HETATM   22  C   UNL     1     -39.078 -52.778  14.963  1.00  0.00     0.044 A 
HETATM   23  C   UNL     1     -39.824 -53.763  15.566  1.00  0.00     0.091 A 
HETATM   24  N   UNL     1     -41.021 -53.543  16.139  1.00  0.00    -0.356 N 
HETATM   25  C   UNL     1     -41.474 -52.277  16.108  1.00  0.00     0.077 A 
ATOM     26  HN  UNL     1     -41.555 -54.295  16.574  1.00  0.00     0.166 HD
HETATM   27  C   UNL     1     -42.809 -51.996  16.724  1.00  0.00     0.089 C 
HETATM   28  N   UNL     1     -40.817 -51.239  15.555  1.00  0.00    -0.348 N 
ATOM     29  HN  UNL     1     -41.200 -50.294  15.573  1.00  0.00     0.167 HD
ENDBRANCH  20  21
ENDBRANCH  18  20
ENDBRANCH  17  18
ENDBRANCH   1  17
TORSDOF 7
ENDMDL
