MODEL 1
REMARK VINA RESULT:      -6.0      0.000      0.000
REMARK  4 active torsions:
REMARK  status: ('A' for Active; 'I' for Inactive)
REMARK    1  A    between atoms: C_2  and  C_5 
REMARK    2  A    between atoms: C_5  and  N_6 
REMARK       I    between atoms: N_6  and  C_7 
REMARK    3  A    between atoms: C_7  and  C_9 
REMARK    4  A    between atoms: C_15  and  N_16 
ROOT
HETATM    1  C   UNL     1     -42.827 -49.380  12.402  1.00  0.00     0.075 A 
HETATM    2  C   UNL     1     -43.487 -48.288  11.798  1.00  0.00     0.022 A 
HETATM    3  C   UNL     1     -42.926 -47.647  10.704  1.00  0.00     0.018 A 
HETATM    4  C   UNL     1     -41.701 -48.094  10.270  1.00  0.00     0.089 A 
HETATM    5  N   UNL     1     -41.050 -49.136  10.826  1.00  0.00    -0.352 N 
ATOM      6  HN  UNL     1     -40.143 -49.421  10.456  1.00  0.00     0.166 HD
HETATM    7  C   UNL     1     -41.594 -49.813  11.879  1.00  0.00     0.119 A 
ENDROOT
BRANCH   1   8
HETATM    8  C   UNL     1     -43.446 -49.918  13.647  1.00  0.00     0.255 C 
HETATM    9  N   UNL     1     -44.350 -50.952  13.491  1.00  0.00    -0.348 N 
HETATM   10  H   UNL     1     -44.637 -51.250  12.566  1.00  0.00     0.163 HD
HETATM   11  O   UNL     1     -43.191 -49.456  14.752  1.00  0.00    -0.268 OA
BRANCH   9  12
HETATM   12  C   UNL     1     -45.073 -51.484  14.650  1.00  0.00     0.240 C 
BRANCH  12  13
HETATM   13  C   UNL     1     -46.594 -51.641  14.494  1.00  0.00     0.403 C 
HETATM   14  F   UNL     1     -47.287 -50.955  15.432  1.00  0.00    -0.169 F 
HETATM   15  F   UNL     1     -46.977 -52.934  14.545  1.00  0.00    -0.169 F 
HETATM   16  F   UNL     1     -46.985 -51.155  13.289  1.00  0.00    -0.169 F 
ENDBRANCH  12  13
ENDBRANCH   9  12
ENDBRANCH   1   8
BRANCH   7  17
HETATM   17  N   UNL     1     -40.885 -50.936  12.236  1.00  0.00    -0.362 N 
HETATM   18  C   UNL     1     -41.378 -52.246  11.766  1.00  0.00     0.150 C 
HETATM   19  C   UNL     1     -41.105 -53.328  12.825  1.00  0.00     0.187 C 
HETATM   20  O   UNL     1     -39.725 -53.356  13.226  1.00  0.00    -0.388 OA
HETATM   21  C   UNL     1     -39.341 -52.078  13.757  1.00  0.00     0.187 C 
HETATM   22  C   UNL     1     -39.503 -50.960  12.713  1.00  0.00     0.150 C 
ENDBRANCH   7  17
TORSDOF 4
ENDMDL
MODEL 2
REMARK VINA RESULT:      -5.6      5.186      6.867
REMARK  4 active torsions:
REMARK  status: ('A' for Active; 'I' for Inactive)
REMARK    1  A    between atoms: C_2  and  C_5 
REMARK    2  A    between atoms: C_5  and  N_6 
REMARK       I    between atoms: N_6  and  C_7 
REMARK    3  A    between atoms: C_7  and  C_9 
REMARK    4  A    between atoms: C_15  and  N_16 
ROOT
HETATM    1  C   UNL     1     -41.605 -47.372  10.964  1.00  0.00     0.075 A 
HETATM    2  C   UNL     1     -42.285 -47.973   9.884  1.00  0.00     0.022 A 
HETATM    3  C   UNL     1     -43.206 -47.248   9.144  1.00  0.00     0.018 A 
HETATM    4  C   UNL     1     -43.447 -45.951   9.530  1.00  0.00     0.089 A 
HETATM    5  N   UNL     1     -42.809 -45.351  10.556  1.00  0.00    -0.352 N 
ATOM      6  HN  UNL     1     -43.031 -44.384  10.793  1.00  0.00     0.166 HD
HETATM    7  C   UNL     1     -41.869 -46.025  11.280  1.00  0.00     0.119 A 
ENDROOT
BRANCH   1   8
HETATM    8  C   UNL     1     -40.732 -48.268  11.776  1.00  0.00     0.255 C 
HETATM    9  N   UNL     1     -40.014 -49.224  11.084  1.00  0.00    -0.348 N 
HETATM   10  H   UNL     1     -40.157 -49.357  10.090  1.00  0.00     0.163 HD
HETATM   11  O   UNL     1     -40.672 -48.183  12.997  1.00  0.00    -0.268 OA
BRANCH   9  12
HETATM   12  C   UNL     1     -39.198 -50.204  11.809  1.00  0.00     0.240 C 
BRANCH  12  13
HETATM   13  C   UNL     1     -37.688 -49.922  11.873  1.00  0.00     0.403 C 
HETATM   14  F   UNL     1     -37.169 -49.591  10.668  1.00  0.00    -0.169 F 
HETATM   15  F   UNL     1     -36.997 -50.975  12.357  1.00  0.00    -0.169 F 
HETATM   16  F   UNL     1     -37.450 -48.873  12.700  1.00  0.00    -0.169 F 
ENDBRANCH  12  13
ENDBRANCH   9  12
ENDBRANCH   1   8
BRANCH   7  17
HETATM   17  N   UNL     1     -41.205 -45.236  12.189  1.00  0.00    -0.362 N 
HETATM   18  C   UNL     1     -40.013 -44.496  11.727  1.00  0.00     0.150 C 
HETATM   19  C   UNL     1     -38.971 -44.410  12.855  1.00  0.00     0.187 C 
HETATM   20  O   UNL     1     -39.528 -43.878  14.067  1.00  0.00    -0.388 OA
HETATM   21  C   UNL     1     -40.622 -44.698  14.508  1.00  0.00     0.187 C 
HETATM   22  C   UNL     1     -41.746 -44.752  13.459  1.00  0.00     0.150 C 
ENDBRANCH   7  17
TORSDOF 4
ENDMDL
MODEL 3
REMARK VINA RESULT:      -5.6      3.266      4.861
REMARK  4 active torsions:
REMARK  status: ('A' for Active; 'I' for Inactive)
REMARK    1  A    between atoms: C_2  and  C_5 
REMARK    2  A    between atoms: C_5  and  N_6 
REMARK       I    between atoms: N_6  and  C_7 
REMARK    3  A    between atoms: C_7  and  C_9 
REMARK    4  A    between atoms: C_15  and  N_16 
ROOT
HETATM    1  C   UNL     1     -44.236 -51.212  13.322  1.00  0.00     0.075 A 
HETATM    2  C   UNL     1     -45.628 -51.151  13.543  1.00  0.00     0.022 A 
HETATM    3  C   UNL     1     -46.390 -52.309  13.545  1.00  0.00     0.018 A 
HETATM    4  C   UNL     1     -45.740 -53.493  13.288  1.00  0.00     0.089 A 
HETATM    5  N   UNL     1     -44.411 -53.580  13.076  1.00  0.00    -0.352 N 
ATOM      6  HN  UNL     1     -43.988 -54.490  12.892  1.00  0.00     0.166 HD
HETATM    7  C   UNL     1     -43.628 -52.463  13.106  1.00  0.00     0.119 A 
ENDROOT
BRANCH   1   8
HETATM    8  C   UNL     1     -43.527 -49.905  13.212  1.00  0.00     0.255 C 
HETATM    9  N   UNL     1     -43.496 -49.322  11.959  1.00  0.00    -0.348 N 
HETATM   10  H   UNL     1     -43.858 -49.816  11.152  1.00  0.00     0.163 HD
HETATM   11  O   UNL     1     -42.975 -49.383  14.172  1.00  0.00    -0.268 OA
BRANCH   9  12
HETATM   12  C   UNL     1     -42.746 -48.081  11.739  1.00  0.00     0.240 C 
BRANCH  12  13
HETATM   13  C   UNL     1     -41.736 -48.090  10.581  1.00  0.00     0.403 C 
HETATM   14  F   UNL     1     -40.933 -49.179  10.599  1.00  0.00    -0.169 F 
HETATM   15  F   UNL     1     -40.956 -46.988  10.581  1.00  0.00    -0.169 F 
HETATM   16  F   UNL     1     -42.395 -48.113   9.395  1.00  0.00    -0.169 F 
ENDBRANCH  12  13
ENDBRANCH   9  12
ENDBRANCH   1   8
BRANCH   7  17
HETATM   17  N   UNL     1     -42.282 -52.734  13.022  1.00  0.00    -0.362 N 
HETATM   18  C   UNL     1     -41.770 -53.932  13.716  1.00  0.00     0.150 C 
HETATM   19  C   UNL     1     -40.356 -53.668  14.261  1.00  0.00     0.187 C 
HETATM   20  O   UNL     1     -39.465 -53.183  13.243  1.00  0.00    -0.388 OA
HETATM   21  C   UNL     1     -39.980 -51.967  12.677  1.00  0.00     0.187 C 
HETATM   22  C   UNL     1     -41.359 -52.184  12.030  1.00  0.00     0.150 C 
ENDBRANCH   7  17
TORSDOF 4
ENDMDL
MODEL 4
REMARK VINA RESULT:      -5.5      2.737      4.899
REMARK  4 active torsions:
REMARK  status: ('A' for Active; 'I' for Inactive)
REMARK    1  A    between atoms: C_2  and  C_5 
REMARK    2  A    between atoms: C_5  and  N_6 
REMARK       I    between atoms: N_6  and  C_7 
REMARK    3  A    between atoms: C_7  and  C_9 
REMARK    4  A    between atoms: C_15  and  N_16 
ROOT
HETATM    1  C   UNL     1     -42.679 -54.296  14.657  1.00  0.00     0.075 A 
HETATM    2  C   UNL     1     -42.900 -55.394  15.515  1.00  0.00     0.022 A 
HETATM    3  C   UNL     1     -41.868 -55.894  16.294  1.00  0.00     0.018 A 
HETATM    4  C   UNL     1     -40.633 -55.305  16.163  1.00  0.00     0.089 A 
HETATM    5  N   UNL     1     -40.395 -54.253  15.353  1.00  0.00    -0.352 N 
ATOM      6  HN  UNL     1     -39.456 -53.858  15.301  1.00  0.00     0.166 HD
HETATM    7  C   UNL     1     -41.398 -53.712  14.603  1.00  0.00     0.119 A 
ENDROOT
BRANCH   1   8
HETATM    8  C   UNL     1     -43.813 -53.913  13.768  1.00  0.00     0.255 C 
HETATM    9  N   UNL     1     -44.915 -53.348  14.381  1.00  0.00    -0.348 N 
HETATM   10  H   UNL     1     -44.971 -53.292  15.391  1.00  0.00     0.163 HD
HETATM   11  O   UNL     1     -43.787 -54.112  12.560  1.00  0.00    -0.268 OA
BRANCH   9  12
HETATM   12  C   UNL     1     -46.111 -53.022  13.597  1.00  0.00     0.240 C 
BRANCH  12  13
HETATM   13  C   UNL     1     -46.378 -51.529  13.349  1.00  0.00     0.403 C 
HETATM   14  F   UNL     1     -47.044 -51.305  12.193  1.00  0.00    -0.169 F 
HETATM   15  F   UNL     1     -45.238 -50.807  13.329  1.00  0.00    -0.169 F 
HETATM   16  F   UNL     1     -47.151 -51.028  14.346  1.00  0.00    -0.169 F 
ENDBRANCH  12  13
ENDBRANCH   9  12
ENDBRANCH   1   8
BRANCH   7  17
HETATM   17  N   UNL     1     -41.034 -52.558  13.948  1.00  0.00    -0.362 N 
HETATM   18  C   UNL     1     -40.576 -51.414  14.760  1.00  0.00     0.150 C 
HETATM   19  C   UNL     1     -41.023 -50.091  14.114  1.00  0.00     0.187 C 
HETATM   20  O   UNL     1     -40.624 -49.999  12.737  1.00  0.00    -0.388 OA
HETATM   21  C   UNL     1     -41.181 -51.092  11.990  1.00  0.00     0.187 C 
HETATM   22  C   UNL     1     -40.698 -52.450  12.528  1.00  0.00     0.150 C 
ENDBRANCH   7  17
TORSDOF 4
ENDMDL
MODEL 5
REMARK VINA RESULT:      -5.5      2.811      4.692
REMARK  4 active torsions:
REMARK  status: ('A' for Active; 'I' for Inactive)
REMARK    1  A    between atoms: C_2  and  C_5 
REMARK    2  A    between atoms: C_5  and  N_6 
REMARK       I    between atoms: N_6  and  C_7 
REMARK    3  A    between atoms: C_7  and  C_9 
REMARK    4  A    between atoms: C_15  and  N_16 
ROOT
HETATM    1  C   UNL     1     -44.418 -51.401  13.592  1.00  0.00     0.075 A 
HETATM    2  C   UNL     1     -45.797 -51.380  13.888  1.00  0.00     0.022 A 
HETATM    3  C   UNL     1     -46.525 -52.559  13.924  1.00  0.00     0.018 A 
HETATM    4  C   UNL     1     -45.859 -53.723  13.625  1.00  0.00     0.089 A 
HETATM    5  N   UNL     1     -44.541 -53.772  13.341  1.00  0.00    -0.352 N 
ATOM      6  HN  UNL     1     -44.103 -54.668  13.128  1.00  0.00     0.166 HD
HETATM    7  C   UNL     1     -43.788 -52.634  13.335  1.00  0.00     0.119 A 
ENDROOT
BRANCH   1   8
HETATM    8  C   UNL     1     -43.752 -50.074  13.451  1.00  0.00     0.255 C 
HETATM    9  N   UNL     1     -43.703 -49.538  12.179  1.00  0.00    -0.348 N 
HETATM   10  H   UNL     1     -44.023 -50.075  11.381  1.00  0.00     0.163 HD
HETATM   11  O   UNL     1     -43.248 -49.496  14.407  1.00  0.00    -0.268 OA
BRANCH   9  12
HETATM   12  C   UNL     1     -42.991 -48.280  11.932  1.00  0.00     0.240 C 
BRANCH  12  13
HETATM   13  C   UNL     1     -43.375 -47.517  10.654  1.00  0.00     0.403 C 
HETATM   14  F   UNL     1     -43.142 -46.188  10.752  1.00  0.00    -0.169 F 
HETATM   15  F   UNL     1     -44.671 -47.699  10.327  1.00  0.00    -0.169 F 
HETATM   16  F   UNL     1     -42.632 -47.966   9.610  1.00  0.00    -0.169 F 
ENDBRANCH  12  13
ENDBRANCH   9  12
ENDBRANCH   1   8
BRANCH   7  17
HETATM   17  N   UNL     1     -42.442 -52.866  13.177  1.00  0.00    -0.362 N 
HETATM   18  C   UNL     1     -41.832 -53.970  13.945  1.00  0.00     0.150 C 
HETATM   19  C   UNL     1     -40.395 -53.604  14.352  1.00  0.00     0.187 C 
HETATM   20  O   UNL     1     -39.601 -53.197  13.226  1.00  0.00    -0.388 OA
HETATM   21  C   UNL     1     -40.204 -52.063  12.584  1.00  0.00     0.187 C 
HETATM   22  C   UNL     1     -41.616 -52.390  12.068  1.00  0.00     0.150 C 
ENDBRANCH   7  17
TORSDOF 4
ENDMDL
MODEL 6
REMARK VINA RESULT:      -5.4      4.823      7.181
REMARK  4 active torsions:
REMARK  status: ('A' for Active; 'I' for Inactive)
REMARK    1  A    between atoms: C_2  and  C_5 
REMARK    2  A    between atoms: C_5  and  N_6 
REMARK       I    between atoms: N_6  and  C_7 
REMARK    3  A    between atoms: C_7  and  C_9 
REMARK    4  A    between atoms: C_15  and  N_16 
ROOT
HETATM    1  C   UNL     1     -40.263 -53.970  14.262  1.00  0.00     0.075 A 
HETATM    2  C   UNL     1     -39.098 -54.635  14.701  1.00  0.00     0.022 A 
HETATM    3  C   UNL     1     -39.145 -55.482  15.797  1.00  0.00     0.018 A 
HETATM    4  C   UNL     1     -40.349 -55.610  16.447  1.00  0.00     0.089 A 
HETATM    5  N   UNL     1     -41.478 -54.989  16.047  1.00  0.00    -0.352 N 
ATOM      6  HN  UNL     1     -42.342 -55.125  16.572  1.00  0.00     0.166 HD
HETATM    7  C   UNL     1     -41.474 -54.179  14.949  1.00  0.00     0.119 A 
ENDROOT
BRANCH   1   8
HETATM    8  C   UNL     1     -40.085 -52.985  13.157  1.00  0.00     0.255 C 
HETATM    9  N   UNL     1     -39.354 -51.850  13.452  1.00  0.00    -0.348 N 
HETATM   10  H   UNL     1     -39.045 -51.668  14.400  1.00  0.00     0.163 HD
HETATM   11  O   UNL     1     -40.581 -53.155  12.050  1.00  0.00    -0.268 OA
BRANCH   9  12
HETATM   12  C   UNL     1     -39.203 -50.787  12.453  1.00  0.00     0.240 C 
BRANCH  12  13
HETATM   13  C   UNL     1     -37.764 -50.358  12.126  1.00  0.00     0.403 C 
HETATM   14  F   UNL     1     -37.596 -50.052  10.819  1.00  0.00    -0.169 F 
HETATM   15  F   UNL     1     -36.864 -51.308  12.458  1.00  0.00    -0.169 F 
HETATM   16  F   UNL     1     -37.445 -49.242  12.830  1.00  0.00    -0.169 F 
ENDBRANCH  12  13
ENDBRANCH   9  12
ENDBRANCH   1   8
BRANCH   7  17
HETATM   17  N   UNL     1     -42.726 -53.742  14.584  1.00  0.00    -0.362 N 
HETATM   18  C   UNL     1     -43.802 -54.745  14.454  1.00  0.00     0.150 C 
HETATM   19  C   UNL     1     -44.760 -54.353  13.317  1.00  0.00     0.187 C 
HETATM   20  O   UNL     1     -45.256 -53.012  13.465  1.00  0.00    -0.388 OA
HETATM   21  C   UNL     1     -44.161 -52.083  13.492  1.00  0.00     0.187 C 
HETATM   22  C   UNL     1     -43.209 -52.364  14.667  1.00  0.00     0.150 C 
ENDBRANCH   7  17
TORSDOF 4
ENDMDL
MODEL 7
REMARK VINA RESULT:      -5.3      2.566      4.639
REMARK  4 active torsions:
REMARK  status: ('A' for Active; 'I' for Inactive)
REMARK    1  A    between atoms: C_2  and  C_5 
REMARK    2  A    between atoms: C_5  and  N_6 
REMARK       I    between atoms: N_6  and  C_7 
REMARK    3  A    between atoms: C_7  and  C_9 
REMARK    4  A    between atoms: C_15  and  N_16 
ROOT
HETATM    1  C   UNL     1     -39.888 -50.462  12.696  1.00  0.00     0.075 A 
HETATM    2  C   UNL     1     -38.710 -51.206  12.924  1.00  0.00     0.022 A 
HETATM    3  C   UNL     1     -37.514 -50.824  12.336  1.00  0.00     0.018 A 
HETATM    4  C   UNL     1     -37.539 -49.729  11.506  1.00  0.00     0.089 A 
HETATM    5  N   UNL     1     -38.649 -48.999  11.272  1.00  0.00    -0.352 N 
ATOM      6  HN  UNL     1     -38.603 -48.195  10.646  1.00  0.00     0.166 HD
HETATM    7  C   UNL     1     -39.833 -49.326  11.866  1.00  0.00     0.119 A 
ENDROOT
BRANCH   1   8
HETATM    8  C   UNL     1     -41.145 -51.024  13.267  1.00  0.00     0.255 C 
HETATM    9  N   UNL     1     -41.937 -51.764  12.410  1.00  0.00    -0.348 N 
HETATM   10  H   UNL     1     -41.709 -51.830  11.425  1.00  0.00     0.163 HD
HETATM   11  O   UNL     1     -41.478 -50.822  14.428  1.00  0.00    -0.268 OA
BRANCH   9  12
HETATM   12  C   UNL     1     -43.234 -52.280  12.861  1.00  0.00     0.240 C 
BRANCH  12  13
HETATM   13  C   UNL     1     -43.309 -53.791  13.134  1.00  0.00     0.403 C 
HETATM   14  F   UNL     1     -44.205 -54.419  12.339  1.00  0.00    -0.169 F 
HETATM   15  F   UNL     1     -43.622 -54.057  14.420  1.00  0.00    -0.169 F 
HETATM   16  F   UNL     1     -42.103 -54.364  12.889  1.00  0.00    -0.169 F 
ENDBRANCH  12  13
ENDBRANCH   9  12
ENDBRANCH   1   8
BRANCH   7  17
HETATM   17  N   UNL     1     -40.830 -48.403  11.649  1.00  0.00    -0.362 N 
HETATM   18  C   UNL     1     -40.917 -47.246  12.562  1.00  0.00     0.150 C 
HETATM   19  C   UNL     1     -42.387 -46.848  12.778  1.00  0.00     0.187 C 
HETATM   20  O   UNL     1     -43.078 -46.637  11.535  1.00  0.00    -0.388 OA
HETATM   21  C   UNL     1     -43.032 -47.831  10.739  1.00  0.00     0.187 C 
HETATM   22  C   UNL     1     -41.585 -48.235  10.408  1.00  0.00     0.150 C 
ENDBRANCH   7  17
TORSDOF 4
ENDMDL
MODEL 8
REMARK VINA RESULT:      -5.3      3.344      4.907
REMARK  4 active torsions:
REMARK  status: ('A' for Active; 'I' for Inactive)
REMARK    1  A    between atoms: C_2  and  C_5 
REMARK    2  A    between atoms: C_5  and  N_6 
REMARK       I    between atoms: N_6  and  C_7 
REMARK    3  A    between atoms: C_7  and  C_9 
REMARK    4  A    between atoms: C_15  and  N_16 
ROOT
HETATM    1  C   UNL     1     -42.801 -49.669  12.863  1.00  0.00     0.075 A 
HETATM    2  C   UNL     1     -44.017 -50.261  13.263  1.00  0.00     0.022 A 
HETATM    3  C   UNL     1     -44.018 -51.455  13.969  1.00  0.00     0.018 A 
HETATM    4  C   UNL     1     -42.801 -52.041  14.221  1.00  0.00     0.089 A 
HETATM    5  N   UNL     1     -41.623 -51.495  13.852  1.00  0.00    -0.352 N 
ATOM      6  HN  UNL     1     -40.752 -51.979  14.070  1.00  0.00     0.166 HD
HETATM    7  C   UNL     1     -41.587 -50.302  13.191  1.00  0.00     0.119 A 
ENDROOT
BRANCH   1   8
HETATM    8  C   UNL     1     -42.908 -48.458  12.001  1.00  0.00     0.255 C 
HETATM    9  N   UNL     1     -42.685 -48.638  10.649  1.00  0.00    -0.348 N 
HETATM   10  H   UNL     1     -42.373 -49.534  10.294  1.00  0.00     0.163 HD
HETATM   11  O   UNL     1     -43.155 -47.351  12.464  1.00  0.00    -0.268 OA
BRANCH   9  12
HETATM   12  C   UNL     1     -42.684 -47.488   9.739  1.00  0.00     0.240 C 
BRANCH  12  13
HETATM   13  C   UNL     1     -43.824 -47.429   8.711  1.00  0.00     0.403 C 
HETATM   14  F   UNL     1     -44.992 -47.903   9.202  1.00  0.00    -0.169 F 
HETATM   15  F   UNL     1     -43.527 -48.114   7.586  1.00  0.00    -0.169 F 
HETATM   16  F   UNL     1     -44.050 -46.141   8.347  1.00  0.00    -0.169 F 
ENDBRANCH  12  13
ENDBRANCH   9  12
ENDBRANCH   1   8
BRANCH   7  17
HETATM   17  N   UNL     1     -40.315 -49.808  13.019  1.00  0.00    -0.362 N 
HETATM   18  C   UNL     1     -39.603 -50.141  11.769  1.00  0.00     0.150 C 
HETATM   19  C   UNL     1     -38.098 -50.306  12.041  1.00  0.00     0.187 C 
HETATM   20  O   UNL     1     -37.543 -49.166  12.718  1.00  0.00    -0.388 OA
HETATM   21  C   UNL     1     -38.221 -48.957  13.967  1.00  0.00     0.187 C 
HETATM   22  C   UNL     1     -39.722 -48.694  13.758  1.00  0.00     0.150 C 
ENDBRANCH   7  17
TORSDOF 4
ENDMDL
MODEL 9
REMARK VINA RESULT:      -5.2      2.265      4.311
REMARK  4 active torsions:
REMARK  status: ('A' for Active; 'I' for Inactive)
REMARK    1  A    between atoms: C_2  and  C_5 
REMARK    2  A    between atoms: C_5  and  N_6 
REMARK       I    between atoms: N_6  and  C_7 
REMARK    3  A    between atoms: C_7  and  C_9 
REMARK    4  A    between atoms: C_15  and  N_16 
ROOT
HETATM    1  C   UNL     1     -42.043 -53.488  14.246  1.00  0.00     0.075 A 
HETATM    2  C   UNL     1     -41.752 -54.631  15.020  1.00  0.00     0.022 A 
HETATM    3  C   UNL     1     -40.460 -54.869  15.463  1.00  0.00     0.018 A 
HETATM    4  C   UNL     1     -39.488 -53.974  15.086  1.00  0.00     0.089 A 
HETATM    5  N   UNL     1     -39.739 -52.871  14.350  1.00  0.00    -0.352 N 
ATOM      6  HN  UNL     1     -38.973 -52.244  14.103  1.00  0.00     0.166 HD
HETATM    7  C   UNL     1     -41.006 -52.588  13.931  1.00  0.00     0.119 A 
ENDROOT
BRANCH   1   8
HETATM    8  C   UNL     1     -43.431 -53.387  13.712  1.00  0.00     0.255 C 
HETATM    9  N   UNL     1     -44.408 -52.982  14.601  1.00  0.00    -0.348 N 
HETATM   10  H   UNL     1     -44.192 -52.856  15.582  1.00  0.00     0.163 HD
HETATM   11  O   UNL     1     -43.703 -53.674  12.552  1.00  0.00    -0.268 OA
BRANCH   9  12
HETATM   12  C   UNL     1     -45.814 -52.939  14.186  1.00  0.00     0.240 C 
BRANCH  12  13
HETATM   13  C   UNL     1     -46.345 -51.578  13.708  1.00  0.00     0.403 C 
HETATM   14  F   UNL     1     -47.240 -51.038  14.567  1.00  0.00    -0.169 F 
HETATM   15  F   UNL     1     -46.919 -51.658  12.490  1.00  0.00    -0.169 F 
HETATM   16  F   UNL     1     -45.320 -50.693  13.609  1.00  0.00    -0.169 F 
ENDBRANCH  12  13
ENDBRANCH   9  12
ENDBRANCH   1   8
BRANCH   7  17
HETATM   17  N   UNL     1     -41.123 -51.360  13.323  1.00  0.00    -0.362 N 
HETATM   18  C   UNL     1     -40.958 -51.293  11.857  1.00  0.00     0.150 C 
HETATM   19  C   UNL     1     -40.279 -49.972  11.459  1.00  0.00     0.187 C 
HETATM   20  O   UNL     1     -40.960 -48.828  12.002  1.00  0.00    -0.388 OA
HETATM   21  C   UNL     1     -41.001 -48.916  13.435  1.00  0.00     0.187 C 
HETATM   22  C   UNL     1     -41.751 -50.174  13.903  1.00  0.00     0.150 C 
ENDBRANCH   7  17
TORSDOF 4
ENDMDL
