MODEL 1
REMARK VINA RESULT:      -5.0      0.000      0.000
REMARK  5 active torsions:
REMARK  status: ('A' for Active; 'I' for Inactive)
REMARK    1  A    between atoms: C_2  and  N_3 
REMARK       I    between atoms: N_3  and  C_4 
REMARK       I    between atoms: C_4  and  N_9 
REMARK    2  A    between atoms: N_5  and  C_7 
REMARK    3  A    between atoms: N_9  and  C_10 
REMARK    4  A    between atoms: C_10  and  C_11 
REMARK    5  A    between atoms: C_11  and  C_12 
ROOT
HETATM    1  N   UNL     1     -42.646 -46.921   9.037  1.00  0.00    -0.227 N 
HETATM    2  C   UNL     1     -42.093 -47.280  10.233  1.00  0.00     0.669 C 
HETATM    3  N   UNL     1     -41.387 -46.539  11.009  1.00  0.00    -0.227 N 
ATOM      4  HN  UNL     1     -41.006 -46.939  11.867  1.00  0.00     0.177 HD
HETATM    5  N   UNL     1     -42.352 -48.579  10.568  1.00  0.00    -0.226 N 
HETATM    6  H   UNL     1     -42.455 -45.973   8.742  1.00  0.00     0.177 HD
HETATM    7  H   UNL     1     -42.428 -49.185   9.764  1.00  0.00     0.177 HD
ENDROOT
BRANCH   5   8
HETATM    8  C   UNL     1     -41.713 -49.187  11.732  1.00  0.00     0.144 C 
BRANCH   8   9
HETATM    9  C   UNL     1     -40.534 -50.056  11.303  1.00  0.00     0.085 C 
BRANCH   9  10
HETATM   10  C   UNL     1     -40.568 -51.381  11.983  1.00  0.00     0.052 A 
HETATM   11  N   UNL     1     -41.136 -52.454  11.473  1.00  0.00    -0.363 N 
HETATM   12  C   UNL     1     -41.020 -53.509  12.356  1.00  0.00     0.095 A 
ATOM     13  HN  UNL     1     -41.593 -52.498  10.562  1.00  0.00     0.165 HD
HETATM   14  C   UNL     1     -40.349 -53.234  13.529  1.00  0.00     0.068 A 
HETATM   15  S   UNL     1     -39.849 -51.596  13.533  1.00  0.00    -0.087 SA
ENDBRANCH   9  10
ENDBRANCH   8   9
ENDBRANCH   5   8
BRANCH   1  16
HETATM   16  C   UNL     1     -43.827 -47.528   8.448  1.00  0.00     0.133 C 
HETATM   17  C   UNL     1     -45.097 -46.911   9.004  1.00  0.00     0.027 C 
ENDBRANCH   1  16
BRANCH   3  18
HETATM   18  C   UNL     1     -41.120 -45.150  10.697  1.00  0.00     0.133 C 
HETATM   19  C   UNL     1     -39.679 -45.055  10.215  1.00  0.00     0.027 C 
ENDBRANCH   3  18
TORSDOF 5
ENDMDL
MODEL 2
REMARK VINA RESULT:      -5.0      1.535      1.926
REMARK  5 active torsions:
REMARK  status: ('A' for Active; 'I' for Inactive)
REMARK    1  A    between atoms: C_2  and  N_3 
REMARK       I    between atoms: N_3  and  C_4 
REMARK       I    between atoms: C_4  and  N_9 
REMARK    2  A    between atoms: N_5  and  C_7 
REMARK    3  A    between atoms: N_9  and  C_10 
REMARK    4  A    between atoms: C_10  and  C_11 
REMARK    5  A    between atoms: C_11  and  C_12 
ROOT
HETATM    1  N   UNL     1     -42.585 -47.041   9.088  1.00  0.00    -0.227 N 
HETATM    2  C   UNL     1     -42.093 -47.328  10.329  1.00  0.00     0.669 C 
HETATM    3  N   UNL     1     -41.404 -46.550  11.084  1.00  0.00    -0.227 N 
ATOM      4  HN  UNL     1     -41.069 -46.897  11.983  1.00  0.00     0.177 HD
HETATM    5  N   UNL     1     -42.395 -48.595  10.739  1.00  0.00    -0.226 N 
HETATM    6  H   UNL     1     -42.361 -46.119   8.739  1.00  0.00     0.177 HD
HETATM    7  H   UNL     1     -42.450 -49.254   9.975  1.00  0.00     0.177 HD
ENDROOT
BRANCH   5   8
HETATM    8  C   UNL     1     -41.821 -49.135  11.968  1.00  0.00     0.144 C 
BRANCH   8   9
HETATM    9  C   UNL     1     -41.201 -50.506  11.713  1.00  0.00     0.085 C 
BRANCH   9  10
HETATM   10  C   UNL     1     -39.719 -50.462  11.866  1.00  0.00     0.052 A 
HETATM   11  N   UNL     1     -38.907 -49.902  10.994  1.00  0.00    -0.363 N 
HETATM   12  C   UNL     1     -37.599 -50.052  11.410  1.00  0.00     0.095 A 
ATOM     13  HN  UNL     1     -39.200 -49.430  10.139  1.00  0.00     0.165 HD
HETATM   14  C   UNL     1     -37.426 -50.713  12.609  1.00  0.00     0.068 A 
HETATM   15  S   UNL     1     -38.953 -51.171  13.236  1.00  0.00    -0.087 SA
ENDBRANCH   9  10
ENDBRANCH   8   9
ENDBRANCH   5   8
BRANCH   1  16
HETATM   16  C   UNL     1     -43.754 -47.663   8.489  1.00  0.00     0.133 C 
HETATM   17  C   UNL     1     -45.035 -47.014   8.982  1.00  0.00     0.027 C 
ENDBRANCH   1  16
BRANCH   3  18
HETATM   18  C   UNL     1     -41.093 -45.191  10.691  1.00  0.00     0.133 C 
HETATM   19  C   UNL     1     -39.629 -45.156  10.274  1.00  0.00     0.027 C 
ENDBRANCH   3  18
TORSDOF 5
ENDMDL
MODEL 3
REMARK VINA RESULT:      -4.9      2.676      4.666
REMARK  5 active torsions:
REMARK  status: ('A' for Active; 'I' for Inactive)
REMARK    1  A    between atoms: C_2  and  N_3 
REMARK       I    between atoms: N_3  and  C_4 
REMARK       I    between atoms: C_4  and  N_9 
REMARK    2  A    between atoms: N_5  and  C_7 
REMARK    3  A    between atoms: N_9  and  C_10 
REMARK    4  A    between atoms: C_10  and  C_11 
REMARK    5  A    between atoms: C_11  and  C_12 
ROOT
HETATM    1  N   UNL     1     -39.126 -49.408  11.938  1.00  0.00    -0.227 N 
HETATM    2  C   UNL     1     -40.231 -50.138  11.604  1.00  0.00     0.669 C 
HETATM    3  N   UNL     1     -41.305 -49.702  11.051  1.00  0.00    -0.227 N 
ATOM      4  HN  UNL     1     -42.075 -50.350  10.879  1.00  0.00     0.177 HD
HETATM    5  N   UNL     1     -40.112 -51.459  11.931  1.00  0.00    -0.226 N 
HETATM    6  H   UNL     1     -39.186 -48.419  11.734  1.00  0.00     0.177 HD
HETATM    7  H   UNL     1     -39.549 -51.611  12.755  1.00  0.00     0.177 HD
ENDROOT
BRANCH   5   8
HETATM    8  C   UNL     1     -41.250 -52.363  11.795  1.00  0.00     0.144 C 
BRANCH   8   9
HETATM    9  C   UNL     1     -41.164 -53.490  12.820  1.00  0.00     0.085 C 
BRANCH   9  10
HETATM   10  C   UNL     1     -42.522 -53.950  13.227  1.00  0.00     0.052 A 
HETATM   11  N   UNL     1     -43.591 -53.847  12.465  1.00  0.00    -0.363 N 
HETATM   12  C   UNL     1     -44.692 -54.338  13.137  1.00  0.00     0.095 A 
ATOM     13  HN  UNL     1     -43.602 -53.463  11.520  1.00  0.00     0.165 HD
HETATM   14  C   UNL     1     -44.450 -54.826  14.404  1.00  0.00     0.068 A 
HETATM   15  S   UNL     1     -42.786 -54.661  14.773  1.00  0.00    -0.087 SA
ENDBRANCH   9  10
ENDBRANCH   8   9
ENDBRANCH   5   8
BRANCH   1  16
HETATM   16  C   UNL     1     -37.778 -49.937  12.049  1.00  0.00     0.133 C 
HETATM   17  C   UNL     1     -37.110 -50.028  10.689  1.00  0.00     0.027 C 
ENDBRANCH   1  16
BRANCH   3  18
HETATM   18  C   UNL     1     -41.451 -48.313  10.666  1.00  0.00     0.133 C 
HETATM   19  C   UNL     1     -42.882 -47.897  10.975  1.00  0.00     0.027 C 
ENDBRANCH   3  18
TORSDOF 5
ENDMDL
MODEL 4
REMARK VINA RESULT:      -4.9      0.960      2.866
REMARK  5 active torsions:
REMARK  status: ('A' for Active; 'I' for Inactive)
REMARK    1  A    between atoms: C_2  and  N_3 
REMARK       I    between atoms: N_3  and  C_4 
REMARK       I    between atoms: C_4  and  N_9 
REMARK    2  A    between atoms: N_5  and  C_7 
REMARK    3  A    between atoms: N_9  and  C_10 
REMARK    4  A    between atoms: C_10  and  C_11 
REMARK    5  A    between atoms: C_11  and  C_12 
ROOT
HETATM    1  N   UNL     1     -41.434 -46.258  10.775  1.00  0.00    -0.227 N 
HETATM    2  C   UNL     1     -41.474 -47.591  10.481  1.00  0.00     0.669 C 
HETATM    3  N   UNL     1     -42.316 -48.188   9.717  1.00  0.00    -0.227 N 
ATOM      4  HN  UNL     1     -42.254 -49.200   9.603  1.00  0.00     0.177 HD
HETATM    5  N   UNL     1     -40.492 -48.301  11.112  1.00  0.00    -0.226 N 
HETATM    6  H   UNL     1     -42.161 -45.701  10.346  1.00  0.00     0.177 HD
HETATM    7  H   UNL     1     -40.243 -47.917  12.011  1.00  0.00     0.177 HD
ENDROOT
BRANCH   5   8
HETATM    8  C   UNL     1     -40.471 -49.760  11.045  1.00  0.00     0.144 C 
BRANCH   8   9
HETATM    9  C   UNL     1     -39.491 -50.329  12.067  1.00  0.00     0.085 C 
BRANCH   9  10
HETATM   10  C   UNL     1     -39.934 -51.668  12.549  1.00  0.00     0.052 A 
HETATM   11  N   UNL     1     -40.765 -52.447  11.888  1.00  0.00    -0.363 N 
HETATM   12  C   UNL     1     -40.995 -53.602  12.609  1.00  0.00     0.095 A 
ATOM     13  HN  UNL     1     -41.176 -52.230  10.980  1.00  0.00     0.165 HD
HETATM   14  C   UNL     1     -40.324 -53.699  13.810  1.00  0.00     0.068 A 
HETATM   15  S   UNL     1     -39.374 -52.295  14.051  1.00  0.00    -0.087 SA
ENDBRANCH   9  10
ENDBRANCH   8   9
ENDBRANCH   5   8
BRANCH   1  16
HETATM   16  C   UNL     1     -40.243 -45.525  11.167  1.00  0.00     0.133 C 
HETATM   17  C   UNL     1     -39.558 -44.902   9.964  1.00  0.00     0.027 C 
ENDBRANCH   1  16
BRANCH   3  18
HETATM   18  C   UNL     1     -43.350 -47.458   9.012  1.00  0.00     0.133 C 
HETATM   19  C   UNL     1     -43.369 -47.960   7.574  1.00  0.00     0.027 C 
ENDBRANCH   3  18
TORSDOF 5
ENDMDL
MODEL 5
REMARK VINA RESULT:      -4.9      3.137      4.397
REMARK  5 active torsions:
REMARK  status: ('A' for Active; 'I' for Inactive)
REMARK    1  A    between atoms: C_2  and  N_3 
REMARK       I    between atoms: N_3  and  C_4 
REMARK       I    between atoms: C_4  and  N_9 
REMARK    2  A    between atoms: N_5  and  C_7 
REMARK    3  A    between atoms: N_9  and  C_10 
REMARK    4  A    between atoms: C_10  and  C_11 
REMARK    5  A    between atoms: C_11  and  C_12 
ROOT
HETATM    1  N   UNL     1     -40.939 -49.048  10.787  1.00  0.00    -0.227 N 
HETATM    2  C   UNL     1     -40.733 -50.248  11.406  1.00  0.00     0.669 C 
HETATM    3  N   UNL     1     -39.603 -50.763  11.734  1.00  0.00    -0.227 N 
ATOM      4  HN  UNL     1     -39.584 -51.686  12.168  1.00  0.00     0.177 HD
HETATM    5  N   UNL     1     -41.896 -50.918  11.662  1.00  0.00    -0.226 N 
HETATM    6  H   UNL     1     -40.100 -48.533  10.558  1.00  0.00     0.177 HD
HETATM    7  H   UNL     1     -42.613 -50.741  10.974  1.00  0.00     0.177 HD
ENDROOT
BRANCH   5   8
HETATM    8  C   UNL     1     -41.868 -52.285  12.175  1.00  0.00     0.144 C 
BRANCH   8   9
HETATM    9  C   UNL     1     -42.615 -52.375  13.502  1.00  0.00     0.085 C 
BRANCH   9  10
HETATM   10  C   UNL     1     -44.083 -52.213  13.304  1.00  0.00     0.052 A 
HETATM   11  N   UNL     1     -44.761 -52.788  12.332  1.00  0.00    -0.363 N 
HETATM   12  C   UNL     1     -46.089 -52.420  12.407  1.00  0.00     0.095 A 
ATOM     13  HN  UNL     1     -44.363 -53.411  11.629  1.00  0.00     0.165 HD
HETATM   14  C   UNL     1     -46.417 -51.577  13.449  1.00  0.00     0.068 A 
HETATM   15  S   UNL     1     -45.013 -51.226  14.365  1.00  0.00    -0.087 SA
ENDBRANCH   9  10
ENDBRANCH   8   9
ENDBRANCH   5   8
BRANCH   1  16
HETATM   16  C   UNL     1     -42.147 -48.248  10.898  1.00  0.00     0.133 C 
HETATM   17  C   UNL     1     -42.618 -47.772   9.535  1.00  0.00     0.027 C 
ENDBRANCH   1  16
BRANCH   3  18
HETATM   18  C   UNL     1     -38.355 -50.065  11.502  1.00  0.00     0.133 C 
HETATM   19  C   UNL     1     -37.271 -50.786  12.291  1.00  0.00     0.027 C 
ENDBRANCH   3  18
TORSDOF 5
ENDMDL
MODEL 6
REMARK VINA RESULT:      -4.8      3.031      6.633
REMARK  5 active torsions:
REMARK  status: ('A' for Active; 'I' for Inactive)
REMARK    1  A    between atoms: C_2  and  N_3 
REMARK       I    between atoms: N_3  and  C_4 
REMARK       I    between atoms: C_4  and  N_9 
REMARK    2  A    between atoms: N_5  and  C_7 
REMARK    3  A    between atoms: N_9  and  C_10 
REMARK    4  A    between atoms: C_10  and  C_11 
REMARK    5  A    between atoms: C_11  and  C_12 
ROOT
HETATM    1  N   UNL     1     -42.803 -52.654  12.489  1.00  0.00    -0.227 N 
HETATM    2  C   UNL     1     -43.086 -51.321  12.585  1.00  0.00     0.669 C 
HETATM    3  N   UNL     1     -44.151 -50.791  13.069  1.00  0.00    -0.227 N 
ATOM      4  HN  UNL     1     -44.252 -49.776  13.055  1.00  0.00     0.177 HD
HETATM    5  N   UNL     1     -42.090 -50.532  12.084  1.00  0.00    -0.226 N 
HETATM    6  H   UNL     1     -43.528 -53.273  12.827  1.00  0.00     0.177 HD
HETATM    7  H   UNL     1     -41.595 -50.962  11.316  1.00  0.00     0.177 HD
ENDROOT
BRANCH   5   8
HETATM    8  C   UNL     1     -42.279 -49.090  11.955  1.00  0.00     0.144 C 
BRANCH   8   9
HETATM    9  C   UNL     1     -41.497 -48.551  10.760  1.00  0.00     0.085 C 
BRANCH   9  10
HETATM   10  C   UNL     1     -42.373 -47.745   9.864  1.00  0.00     0.052 A 
HETATM   11  N   UNL     1     -42.847 -48.181   8.715  1.00  0.00    -0.363 N 
HETATM   12  C   UNL     1     -43.599 -47.191   8.115  1.00  0.00     0.095 A 
ATOM     13  HN  UNL     1     -42.682 -49.110   8.327  1.00  0.00     0.165 HD
HETATM   14  C   UNL     1     -43.706 -46.011   8.821  1.00  0.00     0.068 A 
HETATM   15  S   UNL     1     -42.830 -46.139  10.287  1.00  0.00    -0.087 SA
ENDBRANCH   9  10
ENDBRANCH   8   9
ENDBRANCH   5   8
BRANCH   1  16
HETATM   16  C   UNL     1     -41.468 -53.224  12.457  1.00  0.00     0.133 C 
HETATM   17  C   UNL     1     -41.246 -54.171  13.622  1.00  0.00     0.027 C 
ENDBRANCH   1  16
BRANCH   3  18
HETATM   18  C   UNL     1     -45.212 -51.600  13.634  1.00  0.00     0.133 C 
HETATM   19  C   UNL     1     -46.388 -51.556  12.669  1.00  0.00     0.027 C 
ENDBRANCH   3  18
TORSDOF 5
ENDMDL
MODEL 7
REMARK VINA RESULT:      -4.6      2.696      6.030
REMARK  5 active torsions:
REMARK  status: ('A' for Active; 'I' for Inactive)
REMARK    1  A    between atoms: C_2  and  N_3 
REMARK       I    between atoms: N_3  and  C_4 
REMARK       I    between atoms: C_4  and  N_9 
REMARK    2  A    between atoms: N_5  and  C_7 
REMARK    3  A    between atoms: N_9  and  C_10 
REMARK    4  A    between atoms: C_10  and  C_11 
REMARK    5  A    between atoms: C_11  and  C_12 
ROOT
HETATM    1  N   UNL     1     -41.304 -50.744  12.737  1.00  0.00    -0.227 N 
HETATM    2  C   UNL     1     -40.961 -49.930  11.695  1.00  0.00     0.669 C 
HETATM    3  N   UNL     1     -39.783 -49.743  11.218  1.00  0.00    -0.227 N 
ATOM      4  HN  UNL     1     -39.656 -49.082  10.452  1.00  0.00     0.177 HD
HETATM    5  N   UNL     1     -42.032 -49.272  11.163  1.00  0.00    -0.226 N 
HETATM    6  H   UNL     1     -40.533 -51.231  13.174  1.00  0.00     0.177 HD
HETATM    7  H   UNL     1     -42.745 -49.062  11.846  1.00  0.00     0.177 HD
ENDROOT
BRANCH   5   8
HETATM    8  C   UNL     1     -41.840 -48.240  10.147  1.00  0.00     0.144 C 
BRANCH   8   9
HETATM    9  C   UNL     1     -42.483 -46.928  10.588  1.00  0.00     0.085 C 
BRANCH   9  10
HETATM   10  C   UNL     1     -41.483 -45.824  10.621  1.00  0.00     0.052 A 
HETATM   11  N   UNL     1     -40.257 -45.931  10.152  1.00  0.00    -0.363 N 
HETATM   12  C   UNL     1     -39.575 -44.747  10.355  1.00  0.00     0.095 A 
ATOM     13  HN  UNL     1     -39.869 -46.763   9.707  1.00  0.00     0.165 HD
HETATM   14  C   UNL     1     -40.295 -43.741  10.965  1.00  0.00     0.068 A 
HETATM   15  S   UNL     1     -41.880 -44.293  11.303  1.00  0.00    -0.087 SA
ENDBRANCH   9  10
ENDBRANCH   8   9
ENDBRANCH   5   8
BRANCH   1  16
HETATM   16  C   UNL     1     -42.609 -51.354  12.925  1.00  0.00     0.133 C 
HETATM   17  C   UNL     1     -42.626 -52.784  12.414  1.00  0.00     0.027 C 
ENDBRANCH   1  16
BRANCH   3  18
HETATM   18  C   UNL     1     -38.631 -50.449  11.741  1.00  0.00     0.133 C 
HETATM   19  C   UNL     1     -37.394 -49.880  11.061  1.00  0.00     0.027 C 
ENDBRANCH   3  18
TORSDOF 5
ENDMDL
MODEL 8
REMARK VINA RESULT:      -4.6      3.974      6.294
REMARK  5 active torsions:
REMARK  status: ('A' for Active; 'I' for Inactive)
REMARK    1  A    between atoms: C_2  and  N_3 
REMARK       I    between atoms: N_3  and  C_4 
REMARK       I    between atoms: C_4  and  N_9 
REMARK    2  A    between atoms: N_5  and  C_7 
REMARK    3  A    between atoms: N_9  and  C_10 
REMARK    4  A    between atoms: C_10  and  C_11 
REMARK    5  A    between atoms: C_11  and  C_12 
ROOT
HETATM    1  N   UNL     1     -44.644 -53.136  13.559  1.00  0.00    -0.227 N 
HETATM    2  C   UNL     1     -43.318 -53.225  13.245  1.00  0.00     0.669 C 
HETATM    3  N   UNL     1     -42.448 -53.997  13.788  1.00  0.00    -0.227 N 
ATOM      4  HN  UNL     1     -41.476 -53.946  13.481  1.00  0.00     0.177 HD
HETATM    5  N   UNL     1     -42.951 -52.366  12.248  1.00  0.00    -0.226 N 
HETATM    6  H   UNL     1     -44.950 -53.739  14.310  1.00  0.00     0.177 HD
HETATM    7  H   UNL     1     -43.486 -51.510  12.249  1.00  0.00     0.177 HD
ENDROOT
BRANCH   5   8
HETATM    8  C   UNL     1     -41.545 -52.206  11.887  1.00  0.00     0.144 C 
BRANCH   8   9
HETATM    9  C   UNL     1     -41.080 -50.779  12.161  1.00  0.00     0.085 C 
BRANCH   9  10
HETATM   10  C   UNL     1     -39.593 -50.686  12.146  1.00  0.00     0.052 A 
HETATM   11  N   UNL     1     -38.904 -50.114  11.181  1.00  0.00    -0.363 N 
HETATM   12  C   UNL     1     -37.553 -50.215  11.449  1.00  0.00     0.095 A 
ATOM     13  HN  UNL     1     -39.307 -49.664  10.359  1.00  0.00     0.165 HD
HETATM   14  C   UNL     1     -37.225 -50.852  12.628  1.00  0.00     0.068 A 
HETATM   15  S   UNL     1     -38.655 -51.348  13.429  1.00  0.00    -0.087 SA
ENDBRANCH   9  10
ENDBRANCH   8   9
ENDBRANCH   5   8
BRANCH   1  16
HETATM   16  C   UNL     1     -45.690 -52.701  12.649  1.00  0.00     0.133 C 
HETATM   17  C   UNL     1     -46.482 -51.544  13.233  1.00  0.00     0.027 C 
ENDBRANCH   1  16
BRANCH   3  18
HETATM   18  C   UNL     1     -42.812 -54.940  14.827  1.00  0.00     0.133 C 
HETATM   19  C   UNL     1     -41.660 -54.997  15.821  1.00  0.00     0.027 C 
ENDBRANCH   3  18
TORSDOF 5
ENDMDL
MODEL 9
REMARK VINA RESULT:      -4.5      3.057      6.737
REMARK  5 active torsions:
REMARK  status: ('A' for Active; 'I' for Inactive)
REMARK    1  A    between atoms: C_2  and  N_3 
REMARK       I    between atoms: N_3  and  C_4 
REMARK       I    between atoms: C_4  and  N_9 
REMARK    2  A    between atoms: N_5  and  C_7 
REMARK    3  A    between atoms: N_9  and  C_10 
REMARK    4  A    between atoms: C_10  and  C_11 
REMARK    5  A    between atoms: C_11  and  C_12 
ROOT
HETATM    1  N   UNL     1     -42.120 -48.768  10.583  1.00  0.00    -0.227 N 
HETATM    2  C   UNL     1     -41.919 -47.495  10.130  1.00  0.00     0.669 C 
HETATM    3  N   UNL     1     -42.527 -46.918   9.157  1.00  0.00    -0.227 N 
ATOM      4  HN  UNL     1     -42.261 -45.968   8.898  1.00  0.00     0.177 HD
HETATM    5  N   UNL     1     -40.949 -46.832  10.826  1.00  0.00    -0.226 N 
HETATM    6  H   UNL     1     -42.814 -49.300  10.077  1.00  0.00     0.177 HD
HETATM    7  H   UNL     1     -40.221 -47.443  11.167  1.00  0.00     0.177 HD
ENDROOT
BRANCH   5   8
HETATM    8  C   UNL     1     -40.485 -45.520  10.387  1.00  0.00     0.144 C 
BRANCH   8   9
HETATM    9  C   UNL     1     -40.103 -44.657  11.586  1.00  0.00     0.085 C 
BRANCH   9  10
HETATM   10  C   UNL     1     -40.976 -43.453  11.681  1.00  0.00     0.052 A 
HETATM   11  N   UNL     1     -40.652 -42.272  11.196  1.00  0.00    -0.363 N 
HETATM   12  C   UNL     1     -41.656 -41.364  11.468  1.00  0.00     0.095 A 
ATOM     13  HN  UNL     1     -39.790 -42.060  10.694  1.00  0.00     0.165 HD
HETATM   14  C   UNL     1     -42.747 -41.866  12.148  1.00  0.00     0.068 A 
HETATM   15  S   UNL     1     -42.508 -43.532  12.464  1.00  0.00    -0.087 SA
ENDBRANCH   9  10
ENDBRANCH   8   9
ENDBRANCH   5   8
BRANCH   1  16
HETATM   16  C   UNL     1     -41.857 -49.223  11.938  1.00  0.00     0.133 C 
HETATM   17  C   UNL     1     -43.100 -49.118  12.804  1.00  0.00     0.027 C 
ENDBRANCH   1  16
BRANCH   3  18
HETATM   18  C   UNL     1     -43.580 -47.584   8.418  1.00  0.00     0.133 C 
HETATM   19  C   UNL     1     -44.911 -47.116   8.991  1.00  0.00     0.027 C 
ENDBRANCH   3  18
TORSDOF 5
ENDMDL
