MODEL 1
REMARK VINA RESULT:      -5.7      0.000      0.000
REMARK  2 active torsions:
REMARK  status: ('A' for Active; 'I' for Inactive)
REMARK    1  A    between atoms: C_6  and  N_7 
REMARK    2  A    between atoms: N_7  and  C_8 
ROOT
HETATM    1  C   UNL     1     -38.341 -51.363  13.496  1.00  0.00     0.052 C 
HETATM    2  C   UNL     1     -39.181 -50.587  12.534  1.00  0.00    -0.023 A 
HETATM    3  C   UNL     1     -38.808 -49.347  12.059  1.00  0.00     0.114 A 
HETATM    4  N   UNL     1     -39.560 -48.589  11.230  1.00  0.00    -0.201 N 
ATOM      5  HN  UNL     1     -39.244 -47.673  10.913  1.00  0.00     0.183 HD
HETATM    6  C   UNL     1     -40.740 -49.094  10.843  1.00  0.00     0.678 A 
HETATM    7  N   UNL     1     -41.169 -50.304  11.216  1.00  0.00    -0.196 N 
ATOM      8  HN  UNL     1     -42.057 -50.669  10.872  1.00  0.00     0.184 HD
HETATM    9  C   UNL     1     -40.401 -51.036  12.060  1.00  0.00     0.030 A 
HETATM   10  C   UNL     1     -40.968 -52.362  12.471  1.00  0.00     0.069 C 
ENDROOT
BRANCH   6  11
HETATM   11  N   UNL     1     -41.621 -48.361  10.078  1.00  0.00    -0.219 N 
HETATM   12  H   UNL     1     -41.229 -48.208   9.162  1.00  0.00     0.178 HD
BRANCH  11  13
HETATM   13  C   UNL     1     -42.433 -47.304  10.663  1.00  0.00     0.123 C 
HETATM   14  C   UNL     1     -43.914 -47.722  10.555  1.00  0.00     0.030 C 
HETATM   15  C   UNL     1     -44.582 -47.313   9.248  1.00  0.00     0.028 C 
HETATM   16  C   UNL     1     -44.273 -45.859   8.938  1.00  0.00     0.167 C 
HETATM   17  O   UNL     1     -42.862 -45.727   8.770  1.00  0.00    -0.389 OA
HETATM   18  C   UNL     1     -42.157 -45.936   9.999  1.00  0.00     0.193 C 
ENDBRANCH  11  13
ENDBRANCH   6  11
TORSDOF 2
ENDMDL
MODEL 2
REMARK VINA RESULT:      -5.6      2.382      6.020
REMARK  2 active torsions:
REMARK  status: ('A' for Active; 'I' for Inactive)
REMARK    1  A    between atoms: C_6  and  N_7 
REMARK    2  A    between atoms: N_7  and  C_8 
ROOT
HETATM    1  C   UNL     1     -44.092 -45.279   9.167  1.00  0.00     0.052 C 
HETATM    2  C   UNL     1     -43.211 -46.377   9.670  1.00  0.00    -0.023 A 
HETATM    3  C   UNL     1     -42.562 -46.306  10.885  1.00  0.00     0.114 A 
HETATM    4  N   UNL     1     -41.716 -47.251  11.353  1.00  0.00    -0.201 N 
ATOM      5  HN  UNL     1     -41.252 -47.148  12.256  1.00  0.00     0.183 HD
HETATM    6  C   UNL     1     -41.514 -48.328  10.582  1.00  0.00     0.678 A 
HETATM    7  N   UNL     1     -42.131 -48.506   9.409  1.00  0.00    -0.196 N 
ATOM      8  HN  UNL     1     -41.978 -49.356   8.866  1.00  0.00     0.184 HD
HETATM    9  C   UNL     1     -42.962 -47.535   8.955  1.00  0.00     0.030 A 
HETATM   10  C   UNL     1     -43.581 -47.784   7.612  1.00  0.00     0.069 C 
ENDROOT
BRANCH   6  11
HETATM   11  N   UNL     1     -40.599 -49.299  10.925  1.00  0.00    -0.219 N 
HETATM   12  H   UNL     1     -40.931 -50.201  10.621  1.00  0.00     0.178 HD
BRANCH  11  13
HETATM   13  C   UNL     1     -39.851 -49.228  12.173  1.00  0.00     0.123 C 
HETATM   14  C   UNL     1     -38.425 -48.738  11.848  1.00  0.00     0.030 C 
HETATM   15  C   UNL     1     -37.449 -49.854  11.496  1.00  0.00     0.028 C 
HETATM   16  C   UNL     1     -37.556 -50.979  12.510  1.00  0.00     0.167 C 
HETATM   17  O   UNL     1     -38.877 -51.514  12.447  1.00  0.00    -0.389 OA
HETATM   18  C   UNL     1     -39.854 -50.580  12.920  1.00  0.00     0.193 C 
ENDBRANCH  11  13
ENDBRANCH   6  11
TORSDOF 2
ENDMDL
MODEL 3
REMARK VINA RESULT:      -5.5      4.331      6.236
REMARK  2 active torsions:
REMARK  status: ('A' for Active; 'I' for Inactive)
REMARK    1  A    between atoms: C_6  and  N_7 
REMARK    2  A    between atoms: N_7  and  C_8 
ROOT
HETATM    1  C   UNL     1     -45.294 -54.979  13.708  1.00  0.00     0.052 C 
HETATM    2  C   UNL     1     -44.074 -54.198  13.341  1.00  0.00    -0.023 A 
HETATM    3  C   UNL     1     -44.041 -53.343  12.259  1.00  0.00     0.114 A 
HETATM    4  N   UNL     1     -42.945 -52.658  11.861  1.00  0.00    -0.201 N 
ATOM      5  HN  UNL     1     -42.968 -52.045  11.047  1.00  0.00     0.183 HD
HETATM    6  C   UNL     1     -41.827 -52.821  12.583  1.00  0.00     0.678 A 
HETATM    7  N   UNL     1     -41.773 -53.594  13.672  1.00  0.00    -0.196 N 
ATOM      8  HN  UNL     1     -40.913 -53.665  14.216  1.00  0.00     0.184 HD
HETATM    9  C   UNL     1     -42.882 -54.282  14.039  1.00  0.00     0.030 A 
HETATM   10  C   UNL     1     -42.733 -55.163  15.243  1.00  0.00     0.069 C 
ENDROOT
BRANCH   6  11
HETATM   11  N   UNL     1     -40.635 -52.244  12.204  1.00  0.00    -0.219 N 
HETATM   12  H   UNL     1     -40.063 -52.926  11.730  1.00  0.00     0.178 HD
BRANCH  11  13
HETATM   13  C   UNL     1     -39.971 -51.256  13.043  1.00  0.00     0.123 C 
HETATM   14  C   UNL     1     -39.808 -49.962  12.221  1.00  0.00     0.030 C 
HETATM   15  C   UNL     1     -38.529 -49.906  11.394  1.00  0.00     0.028 C 
HETATM   16  C   UNL     1     -37.340 -50.310  12.248  1.00  0.00     0.167 C 
HETATM   17  O   UNL     1     -37.532 -51.660  12.671  1.00  0.00    -0.389 OA
HETATM   18  C   UNL     1     -38.624 -51.781  13.589  1.00  0.00     0.193 C 
ENDBRANCH  11  13
ENDBRANCH   6  11
TORSDOF 2
ENDMDL
MODEL 4
REMARK VINA RESULT:      -5.4      4.025      5.715
REMARK  2 active torsions:
REMARK  status: ('A' for Active; 'I' for Inactive)
REMARK    1  A    between atoms: C_6  and  N_7 
REMARK    2  A    between atoms: N_7  and  C_8 
ROOT
HETATM    1  C   UNL     1     -43.654 -54.966  14.459  1.00  0.00     0.052 C 
HETATM    2  C   UNL     1     -42.832 -54.083  13.578  1.00  0.00    -0.023 A 
HETATM    3  C   UNL     1     -41.453 -54.074  13.619  1.00  0.00     0.114 A 
HETATM    4  N   UNL     1     -40.674 -53.255  12.877  1.00  0.00    -0.201 N 
ATOM      5  HN  UNL     1     -39.657 -53.279  12.950  1.00  0.00     0.183 HD
HETATM    6  C   UNL     1     -41.295 -52.409  12.043  1.00  0.00     0.678 A 
HETATM    7  N   UNL     1     -42.624 -52.374  11.903  1.00  0.00    -0.196 N 
ATOM      8  HN  UNL     1     -43.059 -51.741  11.231  1.00  0.00     0.184 HD
HETATM    9  C   UNL     1     -43.383 -53.195  12.670  1.00  0.00     0.030 A 
HETATM   10  C   UNL     1     -44.866 -53.067  12.491  1.00  0.00     0.069 C 
ENDROOT
BRANCH   6  11
HETATM   11  N   UNL     1     -40.596 -51.470  11.318  1.00  0.00    -0.219 N 
HETATM   12  H   UNL     1     -39.968 -51.933  10.678  1.00  0.00     0.178 HD
BRANCH  11  13
HETATM   13  C   UNL     1     -40.161 -50.217  11.920  1.00  0.00     0.123 C 
HETATM   14  C   UNL     1     -38.725 -49.928  11.439  1.00  0.00     0.030 C 
HETATM   15  C   UNL     1     -37.639 -50.554  12.307  1.00  0.00     0.028 C 
HETATM   16  C   UNL     1     -37.922 -50.277  13.773  1.00  0.00     0.167 C 
HETATM   17  O   UNL     1     -39.165 -50.891  14.112  1.00  0.00    -0.389 OA
HETATM   18  C   UNL     1     -40.270 -50.254  13.461  1.00  0.00     0.193 C 
ENDBRANCH  11  13
ENDBRANCH   6  11
TORSDOF 2
ENDMDL
MODEL 5
REMARK VINA RESULT:      -5.3      4.230      5.948
REMARK  2 active torsions:
REMARK  status: ('A' for Active; 'I' for Inactive)
REMARK    1  A    between atoms: C_6  and  N_7 
REMARK    2  A    between atoms: N_7  and  C_8 
ROOT
HETATM    1  C   UNL     1     -44.352 -54.623  14.038  1.00  0.00     0.052 C 
HETATM    2  C   UNL     1     -43.390 -53.745  13.305  1.00  0.00    -0.023 A 
HETATM    3  C   UNL     1     -42.148 -54.187  12.898  1.00  0.00     0.114 A 
HETATM    4  N   UNL     1     -41.229 -53.413  12.280  1.00  0.00    -0.201 N 
ATOM      5  HN  UNL     1     -40.319 -53.783  12.007  1.00  0.00     0.183 HD
HETATM    6  C   UNL     1     -41.564 -52.137  12.041  1.00  0.00     0.678 A 
HETATM    7  N   UNL     1     -42.759 -51.629  12.360  1.00  0.00    -0.196 N 
ATOM      8  HN  UNL     1     -42.990 -50.663  12.130  1.00  0.00     0.184 HD
HETATM    9  C   UNL     1     -43.657 -52.424  12.993  1.00  0.00     0.030 A 
HETATM   10  C   UNL     1     -44.957 -51.772  13.360  1.00  0.00     0.069 C 
ENDROOT
BRANCH   6  11
HETATM   11  N   UNL     1     -40.663 -51.244  11.505  1.00  0.00    -0.219 N 
HETATM   12  H   UNL     1     -40.208 -51.659  10.706  1.00  0.00     0.178 HD
BRANCH  11  13
HETATM   13  C   UNL     1     -39.883 -50.353  12.352  1.00  0.00     0.123 C 
HETATM   14  C   UNL     1     -38.803 -49.685  11.478  1.00  0.00     0.030 C 
HETATM   15  C   UNL     1     -37.507 -50.481  11.373  1.00  0.00     0.028 C 
HETATM   16  C   UNL     1     -37.064 -50.939  12.751  1.00  0.00     0.167 C 
HETATM   17  O   UNL     1     -38.069 -51.802  13.280  1.00  0.00    -0.389 OA
HETATM   18  C   UNL     1     -39.282 -51.097  13.566  1.00  0.00     0.193 C 
ENDBRANCH  11  13
ENDBRANCH   6  11
TORSDOF 2
ENDMDL
MODEL 6
REMARK VINA RESULT:      -4.9      1.895      2.432
REMARK  2 active torsions:
REMARK  status: ('A' for Active; 'I' for Inactive)
REMARK    1  A    between atoms: C_6  and  N_7 
REMARK    2  A    between atoms: N_7  and  C_8 
ROOT
HETATM    1  C   UNL     1     -37.316 -48.116  14.872  1.00  0.00     0.052 C 
HETATM    2  C   UNL     1     -38.196 -47.785  13.711  1.00  0.00    -0.023 A 
HETATM    3  C   UNL     1     -38.922 -46.614  13.643  1.00  0.00     0.114 A 
HETATM    4  N   UNL     1     -39.769 -46.299  12.638  1.00  0.00    -0.201 N 
ATOM      5  HN  UNL     1     -40.292 -45.423  12.638  1.00  0.00     0.183 HD
HETATM    6  C   UNL     1     -39.893 -47.187  11.641  1.00  0.00     0.678 A 
HETATM    7  N   UNL     1     -39.200 -48.329  11.598  1.00  0.00    -0.196 N 
ATOM      8  HN  UNL     1     -39.295 -48.964  10.805  1.00  0.00     0.184 HD
HETATM    9  C   UNL     1     -38.369 -48.627  12.627  1.00  0.00     0.030 A 
HETATM   10  C   UNL     1     -37.660 -49.945  12.530  1.00  0.00     0.069 C 
ENDROOT
BRANCH   6  11
HETATM   11  N   UNL     1     -40.801 -47.003  10.622  1.00  0.00    -0.219 N 
HETATM   12  H   UNL     1     -40.393 -46.424   9.904  1.00  0.00     0.178 HD
BRANCH  11  13
HETATM   13  C   UNL     1     -42.225 -46.861  10.892  1.00  0.00     0.123 C 
HETATM   14  C   UNL     1     -42.975 -47.936  10.080  1.00  0.00     0.030 C 
HETATM   15  C   UNL     1     -43.348 -47.502   8.667  1.00  0.00     0.028 C 
HETATM   16  C   UNL     1     -43.981 -46.122   8.696  1.00  0.00     0.167 C 
HETATM   17  O   UNL     1     -43.017 -45.198   9.201  1.00  0.00    -0.389 OA
HETATM   18  C   UNL     1     -42.726 -45.432  10.583  1.00  0.00     0.193 C 
ENDBRANCH  11  13
ENDBRANCH   6  11
TORSDOF 2
ENDMDL
MODEL 7
REMARK VINA RESULT:      -4.9      3.354      5.038
REMARK  2 active torsions:
REMARK  status: ('A' for Active; 'I' for Inactive)
REMARK    1  A    between atoms: C_6  and  N_7 
REMARK    2  A    between atoms: N_7  and  C_8 
ROOT
HETATM    1  C   UNL     1     -39.108 -47.982  12.521  1.00  0.00     0.052 C 
HETATM    2  C   UNL     1     -39.928 -49.198  12.238  1.00  0.00    -0.023 A 
HETATM    3  C   UNL     1     -41.282 -49.135  11.982  1.00  0.00     0.114 A 
HETATM    4  N   UNL     1     -42.069 -50.214  11.773  1.00  0.00    -0.201 N 
ATOM      5  HN  UNL     1     -43.069 -50.116  11.597  1.00  0.00     0.183 HD
HETATM    6  C   UNL     1     -41.481 -51.417  11.808  1.00  0.00     0.678 A 
HETATM    7  N   UNL     1     -40.168 -51.577  12.007  1.00  0.00    -0.196 N 
ATOM      8  HN  UNL     1     -39.750 -52.508  11.992  1.00  0.00     0.184 HD
HETATM    9  C   UNL     1     -39.404 -50.479  12.229  1.00  0.00     0.030 A 
HETATM   10  C   UNL     1     -37.950 -50.740  12.490  1.00  0.00     0.069 C 
ENDROOT
BRANCH   6  11
HETATM   11  N   UNL     1     -42.211 -52.580  11.704  1.00  0.00    -0.219 N 
HETATM   12  H   UNL     1     -42.757 -52.563  10.856  1.00  0.00     0.178 HD
BRANCH  11  13
HETATM   13  C   UNL     1     -42.787 -53.222  12.878  1.00  0.00     0.123 C 
HETATM   14  C   UNL     1     -44.192 -53.735  12.502  1.00  0.00     0.030 C 
HETATM   15  C   UNL     1     -45.302 -52.710  12.698  1.00  0.00     0.028 C 
HETATM   16  C   UNL     1     -45.172 -52.055  14.061  1.00  0.00     0.167 C 
HETATM   17  O   UNL     1     -43.923 -51.365  14.108  1.00  0.00    -0.389 OA
HETATM   18  C   UNL     1     -42.814 -52.270  14.095  1.00  0.00     0.193 C 
ENDBRANCH  11  13
ENDBRANCH   6  11
TORSDOF 2
ENDMDL
MODEL 8
REMARK VINA RESULT:      -4.9      5.533      6.216
REMARK  2 active torsions:
REMARK  status: ('A' for Active; 'I' for Inactive)
REMARK    1  A    between atoms: C_6  and  N_7 
REMARK    2  A    between atoms: N_7  and  C_8 
ROOT
HETATM    1  C   UNL     1     -39.315 -53.390  14.391  1.00  0.00     0.052 C 
HETATM    2  C   UNL     1     -40.699 -53.191  13.866  1.00  0.00    -0.023 A 
HETATM    3  C   UNL     1     -41.267 -54.037  12.935  1.00  0.00     0.114 A 
HETATM    4  N   UNL     1     -42.494 -53.864  12.396  1.00  0.00    -0.201 N 
ATOM      5  HN  UNL     1     -42.866 -54.514  11.702  1.00  0.00     0.183 HD
HETATM    6  C   UNL     1     -43.201 -52.804  12.810  1.00  0.00     0.678 A 
HETATM    7  N   UNL     1     -42.754 -51.952  13.738  1.00  0.00    -0.196 N 
ATOM      8  HN  UNL     1     -43.335 -51.176  14.055  1.00  0.00     0.184 HD
HETATM    9  C   UNL     1     -41.513 -52.140  14.252  1.00  0.00     0.030 A 
HETATM   10  C   UNL     1     -41.062 -51.119  15.254  1.00  0.00     0.069 C 
ENDROOT
BRANCH   6  11
HETATM   11  N   UNL     1     -44.419 -52.487  12.251  1.00  0.00    -0.219 N 
HETATM   12  H   UNL     1     -44.405 -51.534  11.924  1.00  0.00     0.178 HD
BRANCH  11  13
HETATM   13  C   UNL     1     -45.663 -53.006  12.803  1.00  0.00     0.123 C 
HETATM   14  C   UNL     1     -46.537 -51.806  13.222  1.00  0.00     0.030 C 
HETATM   15  C   UNL     1     -46.281 -51.316  14.643  1.00  0.00     0.028 C 
HETATM   16  C   UNL     1     -46.254 -52.492  15.603  1.00  0.00     0.167 C 
HETATM   17  O   UNL     1     -45.174 -53.347  15.231  1.00  0.00    -0.389 OA
HETATM   18  C   UNL     1     -45.408 -53.985  13.971  1.00  0.00     0.193 C 
ENDBRANCH  11  13
ENDBRANCH   6  11
TORSDOF 2
ENDMDL
MODEL 9
REMARK VINA RESULT:      -4.9      2.499      3.800
REMARK  2 active torsions:
REMARK  status: ('A' for Active; 'I' for Inactive)
REMARK    1  A    between atoms: C_6  and  N_7 
REMARK    2  A    between atoms: N_7  and  C_8 
ROOT
HETATM    1  C   UNL     1     -42.779 -55.109  14.993  1.00  0.00     0.052 C 
HETATM    2  C   UNL     1     -42.505 -53.958  14.081  1.00  0.00    -0.023 A 
HETATM    3  C   UNL     1     -41.335 -53.228  14.141  1.00  0.00     0.114 A 
HETATM    4  N   UNL     1     -41.069 -52.150  13.371  1.00  0.00    -0.201 N 
ATOM      5  HN  UNL     1     -40.192 -51.636  13.460  1.00  0.00     0.183 HD
HETATM    6  C   UNL     1     -42.007 -51.783  12.486  1.00  0.00     0.678 A 
HETATM    7  N   UNL     1     -43.153 -52.452  12.325  1.00  0.00    -0.196 N 
ATOM      8  HN  UNL     1     -43.827 -52.163  11.616  1.00  0.00     0.184 HD
HETATM    9  C   UNL     1     -43.401 -53.521  13.121  1.00  0.00     0.030 A 
HETATM   10  C   UNL     1     -44.726 -54.193  12.914  1.00  0.00     0.069 C 
ENDROOT
BRANCH   6  11
HETATM   11  N   UNL     1     -41.872 -50.643  11.725  1.00  0.00    -0.219 N 
HETATM   12  H   UNL     1     -41.337 -50.850  10.895  1.00  0.00     0.178 HD
BRANCH  11  13
HETATM   13  C   UNL     1     -41.703 -49.335  12.342  1.00  0.00     0.123 C 
HETATM   14  C   UNL     1     -43.087 -48.661  12.422  1.00  0.00     0.030 C 
HETATM   15  C   UNL     1     -43.464 -47.863  11.179  1.00  0.00     0.028 C 
HETATM   16  C   UNL     1     -42.308 -46.971  10.762  1.00  0.00     0.167 C 
HETATM   17  O   UNL     1     -41.198 -47.804  10.431  1.00  0.00    -0.389 OA
HETATM   18  C   UNL     1     -40.670 -48.472  11.582  1.00  0.00     0.193 C 
ENDBRANCH  11  13
ENDBRANCH   6  11
TORSDOF 2
ENDMDL
