MODEL 1
REMARK VINA RESULT:      -5.9      0.000      0.000
REMARK  4 active torsions:
REMARK  status: ('A' for Active; 'I' for Inactive)
REMARK    1  A    between atoms: C_2  and  N_3 
REMARK       I    between atoms: N_3  and  C_4 
REMARK       I    between atoms: C_4  and  N_6 
REMARK    2  A    between atoms: N_6  and  C_7 
REMARK    3  A    between atoms: C_7  and  C_8 
REMARK    4  A    between atoms: C_8  and  C_9 
ROOT
HETATM    1  C   UNL     1     -41.164 -51.000  11.991  1.00  0.00     0.019 A 
HETATM    2  C   UNL     1     -40.591 -52.189  12.391  1.00  0.00     0.078 A 
HETATM    3  S   UNL     1     -41.700 -53.104  13.303  1.00  0.00    -0.064 SA
HETATM    4  C   UNL     1     -42.916 -51.884  13.081  1.00  0.00     0.146 A 
HETATM    5  N   UNL     1     -42.491 -50.844  12.384  1.00  0.00    -0.340 N 
ATOM      6  HN  UNL     1     -43.063 -50.029  12.161  1.00  0.00     0.168 HD
HETATM    7  N   UNL     1     -44.175 -52.018  13.574  1.00  0.00    -0.361 N 
HETATM    8  C   UNL     1     -45.197 -51.007  13.358  1.00  0.00     0.125 C 
HETATM    9  C   UNL     1     -46.509 -51.694  13.760  1.00  0.00     0.021 C 
HETATM   10  C   UNL     1     -46.176 -53.176  13.827  1.00  0.00     0.021 C 
HETATM   11  C   UNL     1     -44.707 -53.197  14.224  1.00  0.00     0.125 C 
ENDROOT
BRANCH   1  12
HETATM   12  C   UNL     1     -40.473 -49.960  11.161  1.00  0.00     0.077 C 
BRANCH  12  13
HETATM   13  C   UNL     1     -41.151 -48.589  11.151  1.00  0.00     0.130 C 
BRANCH  13  14
HETATM   14  N   UNL     1     -42.144 -48.472  10.088  1.00  0.00    -0.343 N 
HETATM   15  C   UNL     1     -43.324 -47.803  10.280  1.00  0.00     0.316 C 
HETATM   16  N   UNL     1     -44.099 -47.766   9.148  1.00  0.00    -0.344 N 
HETATM   17  O   UNL     1     -43.646 -47.295  11.340  1.00  0.00    -0.247 OA
HETATM   18  H   UNL     1     -43.810 -48.295   8.344  1.00  0.00     0.164 HD
HETATM   19  H   UNL     1     -41.900 -48.785   9.161  1.00  0.00     0.164 HD
BRANCH  16  20
HETATM   20  C   UNL     1     -45.425 -47.184   9.153  1.00  0.00     0.120 C 
HETATM   21  C   UNL     1     -46.501 -48.222   8.889  1.00  0.00     0.026 C 
ENDBRANCH  16  20
ENDBRANCH  13  14
ENDBRANCH  12  13
ENDBRANCH   1  12
TORSDOF 4
ENDMDL
MODEL 2
REMARK VINA RESULT:      -5.7      1.364      1.596
REMARK  4 active torsions:
REMARK  status: ('A' for Active; 'I' for Inactive)
REMARK    1  A    between atoms: C_2  and  N_3 
REMARK       I    between atoms: N_3  and  C_4 
REMARK       I    between atoms: C_4  and  N_6 
REMARK    2  A    between atoms: N_6  and  C_7 
REMARK    3  A    between atoms: C_7  and  C_8 
REMARK    4  A    between atoms: C_8  and  C_9 
ROOT
HETATM    1  C   UNL     1     -40.587 -51.875  12.874  1.00  0.00     0.019 A 
HETATM    2  C   UNL     1     -40.369 -53.185  13.248  1.00  0.00     0.078 A 
HETATM    3  S   UNL     1     -41.804 -53.875  13.849  1.00  0.00    -0.064 SA
HETATM    4  C   UNL     1     -42.666 -52.400  13.536  1.00  0.00     0.146 A 
HETATM    5  N   UNL     1     -41.901 -51.445  13.035  1.00  0.00    -0.340 N 
ATOM      6  HN  UNL     1     -42.233 -50.510  12.797  1.00  0.00     0.168 HD
HETATM    7  N   UNL     1     -43.996 -52.273  13.779  1.00  0.00    -0.361 N 
HETATM    8  C   UNL     1     -44.718 -51.047  13.487  1.00  0.00     0.125 C 
HETATM    9  C   UNL     1     -46.199 -51.440  13.575  1.00  0.00     0.021 C 
HETATM   10  C   UNL     1     -46.207 -52.961  13.552  1.00  0.00     0.021 C 
HETATM   11  C   UNL     1     -44.883 -53.337  14.202  1.00  0.00     0.125 C 
ENDROOT
BRANCH   1  12
HETATM   12  C   UNL     1     -39.541 -50.972  12.290  1.00  0.00     0.077 C 
BRANCH  12  13
HETATM   13  C   UNL     1     -39.895 -49.484  12.302  1.00  0.00     0.130 C 
BRANCH  13  14
HETATM   14  N   UNL     1     -40.389 -49.024  11.009  1.00  0.00    -0.343 N 
HETATM   15  C   UNL     1     -41.673 -48.571  10.852  1.00  0.00     0.316 C 
HETATM   16  N   UNL     1     -41.928 -48.140   9.574  1.00  0.00    -0.344 N 
HETATM   17  O   UNL     1     -42.496 -48.551  11.752  1.00  0.00    -0.247 OA
HETATM   18  H   UNL     1     -41.230 -48.284   8.865  1.00  0.00     0.164 HD
HETATM   19  H   UNL     1     -39.736 -48.924  10.249  1.00  0.00     0.164 HD
BRANCH  16  20
HETATM   20  C   UNL     1     -43.247 -47.703   9.168  1.00  0.00     0.120 C 
HETATM   21  C   UNL     1     -43.443 -47.811   7.666  1.00  0.00     0.026 C 
ENDBRANCH  16  20
ENDBRANCH  13  14
ENDBRANCH  12  13
ENDBRANCH   1  12
TORSDOF 4
ENDMDL
MODEL 3
REMARK VINA RESULT:      -5.5      2.793      6.230
REMARK  4 active torsions:
REMARK  status: ('A' for Active; 'I' for Inactive)
REMARK    1  A    between atoms: C_2  and  N_3 
REMARK       I    between atoms: N_3  and  C_4 
REMARK       I    between atoms: C_4  and  N_6 
REMARK    2  A    between atoms: N_6  and  C_7 
REMARK    3  A    between atoms: C_7  and  C_8 
REMARK    4  A    between atoms: C_8  and  C_9 
ROOT
HETATM    1  C   UNL     1     -41.482 -49.472  11.984  1.00  0.00     0.019 A 
HETATM    2  C   UNL     1     -40.401 -48.615  12.000  1.00  0.00     0.078 A 
HETATM    3  S   UNL     1     -40.690 -47.276  10.989  1.00  0.00    -0.064 SA
HETATM    4  C   UNL     1     -42.273 -47.882  10.611  1.00  0.00     0.146 A 
HETATM    5  N   UNL     1     -42.544 -49.037  11.195  1.00  0.00    -0.340 N 
ATOM      6  HN  UNL     1     -43.421 -49.546  11.082  1.00  0.00     0.168 HD
HETATM    7  N   UNL     1     -43.132 -47.209   9.802  1.00  0.00    -0.361 N 
HETATM    8  C   UNL     1     -44.467 -47.706   9.513  1.00  0.00     0.125 C 
HETATM    9  C   UNL     1     -45.193 -46.513   8.877  1.00  0.00     0.021 C 
HETATM   10  C   UNL     1     -44.322 -45.306   9.189  1.00  0.00     0.021 C 
HETATM   11  C   UNL     1     -42.916 -45.885   9.255  1.00  0.00     0.125 C 
ENDROOT
BRANCH   1  12
HETATM   12  C   UNL     1     -41.571 -50.745  12.772  1.00  0.00     0.077 C 
BRANCH  12  13
HETATM   13  C   UNL     1     -41.609 -52.021  11.931  1.00  0.00     0.130 C 
BRANCH  13  14
HETATM   14  N   UNL     1     -42.930 -52.641  11.928  1.00  0.00    -0.343 N 
HETATM   15  C   UNL     1     -43.314 -53.516  12.910  1.00  0.00     0.316 C 
HETATM   16  N   UNL     1     -44.606 -53.951  12.753  1.00  0.00    -0.344 N 
HETATM   17  O   UNL     1     -42.586 -53.865  13.823  1.00  0.00    -0.247 OA
HETATM   18  H   UNL     1     -45.106 -53.696  11.920  1.00  0.00     0.164 HD
HETATM   19  H   UNL     1     -43.612 -52.323  11.257  1.00  0.00     0.164 HD
BRANCH  16  20
HETATM   20  C   UNL     1     -45.185 -54.946  13.630  1.00  0.00     0.120 C 
HETATM   21  C   UNL     1     -46.183 -54.337  14.600  1.00  0.00     0.026 C 
ENDBRANCH  16  20
ENDBRANCH  13  14
ENDBRANCH  12  13
ENDBRANCH   1  12
TORSDOF 4
ENDMDL
MODEL 4
REMARK VINA RESULT:      -5.4      2.007      2.440
REMARK  4 active torsions:
REMARK  status: ('A' for Active; 'I' for Inactive)
REMARK    1  A    between atoms: C_2  and  N_3 
REMARK       I    between atoms: N_3  and  C_4 
REMARK       I    between atoms: C_4  and  N_6 
REMARK    2  A    between atoms: N_6  and  C_7 
REMARK    3  A    between atoms: C_7  and  C_8 
REMARK    4  A    between atoms: C_8  and  C_9 
ROOT
HETATM    1  C   UNL     1     -39.159 -50.500  12.631  1.00  0.00     0.019 A 
HETATM    2  C   UNL     1     -38.279 -51.300  13.331  1.00  0.00     0.078 A 
HETATM    3  S   UNL     1     -39.125 -52.514  14.174  1.00  0.00    -0.064 SA
HETATM    4  C   UNL     1     -40.630 -51.941  13.525  1.00  0.00     0.146 A 
HETATM    5  N   UNL     1     -40.493 -50.883  12.744  1.00  0.00    -0.340 N 
ATOM      6  HN  UNL     1     -41.268 -50.405  12.283  1.00  0.00     0.168 HD
HETATM    7  N   UNL     1     -41.814 -52.547  13.798  1.00  0.00    -0.361 N 
HETATM    8  C   UNL     1     -43.067 -52.082  13.228  1.00  0.00     0.125 C 
HETATM    9  C   UNL     1     -44.061 -53.218  13.501  1.00  0.00     0.021 C 
HETATM   10  C   UNL     1     -43.202 -54.412  13.887  1.00  0.00     0.021 C 
HETATM   11  C   UNL     1     -41.981 -53.780  14.539  1.00  0.00     0.125 C 
ENDROOT
BRANCH   1  12
HETATM   12  C   UNL     1     -38.754 -49.341  11.769  1.00  0.00     0.077 C 
BRANCH  12  13
HETATM   13  C   UNL     1     -39.477 -48.029  12.073  1.00  0.00     0.130 C 
BRANCH  13  14
HETATM   14  N   UNL     1     -40.233 -47.537  10.926  1.00  0.00    -0.343 N 
HETATM   15  C   UNL     1     -41.538 -47.901  10.718  1.00  0.00     0.316 C 
HETATM   16  N   UNL     1     -42.084 -47.296   9.613  1.00  0.00    -0.344 N 
HETATM   17  O   UNL     1     -42.145 -48.675  11.438  1.00  0.00    -0.247 OA
HETATM   18  H   UNL     1     -41.489 -46.751   9.014  1.00  0.00     0.164 HD
HETATM   19  H   UNL     1     -39.823 -46.821  10.347  1.00  0.00     0.164 HD
BRANCH  16  20
HETATM   20  C   UNL     1     -43.424 -47.607   9.161  1.00  0.00     0.120 C 
HETATM   21  C   UNL     1     -43.469 -47.880   7.668  1.00  0.00     0.026 C 
ENDBRANCH  16  20
ENDBRANCH  13  14
ENDBRANCH  12  13
ENDBRANCH   1  12
TORSDOF 4
ENDMDL
MODEL 5
REMARK VINA RESULT:      -5.1      2.905      3.496
REMARK  4 active torsions:
REMARK  status: ('A' for Active; 'I' for Inactive)
REMARK    1  A    between atoms: C_2  and  N_3 
REMARK       I    between atoms: N_3  and  C_4 
REMARK       I    between atoms: C_4  and  N_6 
REMARK    2  A    between atoms: N_6  and  C_7 
REMARK    3  A    between atoms: C_7  and  C_8 
REMARK    4  A    between atoms: C_8  and  C_9 
ROOT
HETATM    1  C   UNL     1     -39.977 -48.693  12.339  1.00  0.00     0.019 A 
HETATM    2  C   UNL     1     -38.959 -48.499  13.249  1.00  0.00     0.078 A 
HETATM    3  S   UNL     1     -38.705 -49.913  14.164  1.00  0.00    -0.064 SA
HETATM    4  C   UNL     1     -39.941 -50.738  13.265  1.00  0.00     0.146 A 
HETATM    5  N   UNL     1     -40.521 -49.975  12.354  1.00  0.00    -0.340 N 
ATOM      6  HN  UNL     1     -41.272 -50.287  11.739  1.00  0.00     0.168 HD
HETATM    7  N   UNL     1     -40.251 -52.041  13.489  1.00  0.00    -0.361 N 
HETATM    8  C   UNL     1     -41.266 -52.734  12.714  1.00  0.00     0.125 C 
HETATM    9  C   UNL     1     -41.053 -54.218  13.040  1.00  0.00     0.021 C 
HETATM   10  C   UNL     1     -39.685 -54.287  13.700  1.00  0.00     0.021 C 
HETATM   11  C   UNL     1     -39.548 -52.935  14.385  1.00  0.00     0.125 C 
ENDROOT
BRANCH   1  12
HETATM   12  C   UNL     1     -40.454 -47.659  11.363  1.00  0.00     0.077 C 
BRANCH  12  13
HETATM   13  C   UNL     1     -41.673 -46.856  11.821  1.00  0.00     0.130 C 
BRANCH  13  14
HETATM   14  N   UNL     1     -42.928 -47.476  11.410  1.00  0.00    -0.343 N 
HETATM   15  C   UNL     1     -43.498 -47.202  10.194  1.00  0.00     0.316 C 
HETATM   16  N   UNL     1     -44.648 -47.919   9.977  1.00  0.00    -0.344 N 
HETATM   17  O   UNL     1     -43.031 -46.409   9.394  1.00  0.00    -0.247 OA
HETATM   18  H   UNL     1     -45.022 -48.475  10.726  1.00  0.00     0.164 HD
HETATM   19  H   UNL     1     -43.315 -48.211  11.981  1.00  0.00     0.164 HD
BRANCH  16  20
HETATM   20  C   UNL     1     -45.458 -47.718   8.794  1.00  0.00     0.120 C 
HETATM   21  C   UNL     1     -46.849 -47.217   9.137  1.00  0.00     0.026 C 
ENDBRANCH  16  20
ENDBRANCH  13  14
ENDBRANCH  12  13
ENDBRANCH   1  12
TORSDOF 4
ENDMDL
MODEL 6
REMARK VINA RESULT:      -5.1      4.113      6.505
REMARK  4 active torsions:
REMARK  status: ('A' for Active; 'I' for Inactive)
REMARK    1  A    between atoms: C_2  and  N_3 
REMARK       I    between atoms: N_3  and  C_4 
REMARK       I    between atoms: C_4  and  N_6 
REMARK    2  A    between atoms: N_6  and  C_7 
REMARK    3  A    between atoms: C_7  and  C_8 
REMARK    4  A    between atoms: C_8  and  C_9 
ROOT
HETATM    1  C   UNL     1     -41.649 -46.945  12.961  1.00  0.00     0.019 A 
HETATM    2  C   UNL     1     -42.509 -46.899  14.039  1.00  0.00     0.078 A 
HETATM    3  S   UNL     1     -43.069 -45.310  14.284  1.00  0.00    -0.064 SA
HETATM    4  C   UNL     1     -42.170 -44.762  12.902  1.00  0.00     0.146 A 
HETATM    5  N   UNL     1     -41.473 -45.722  12.318  1.00  0.00    -0.340 N 
ATOM      6  HN  UNL     1     -40.880 -45.584  11.499  1.00  0.00     0.168 HD
HETATM    7  N   UNL     1     -42.209 -43.472  12.479  1.00  0.00    -0.361 N 
HETATM    8  C   UNL     1     -41.479 -43.026  11.304  1.00  0.00     0.125 C 
HETATM    9  C   UNL     1     -42.061 -41.641  10.991  1.00  0.00     0.021 C 
HETATM   10  C   UNL     1     -43.346 -41.559  11.801  1.00  0.00     0.021 C 
HETATM   11  C   UNL     1     -43.061 -42.432  13.015  1.00  0.00     0.125 C 
ENDROOT
BRANCH   1  12
HETATM   12  C   UNL     1     -40.982 -48.190  12.457  1.00  0.00     0.077 C 
BRANCH  12  13
HETATM   13  C   UNL     1     -41.208 -48.486  10.974  1.00  0.00     0.130 C 
BRANCH  13  14
HETATM   14  N   UNL     1     -42.625 -48.563  10.636  1.00  0.00    -0.343 N 
HETATM   15  C   UNL     1     -43.249 -47.570   9.929  1.00  0.00     0.316 C 
HETATM   16  N   UNL     1     -44.568 -47.852   9.673  1.00  0.00    -0.344 N 
HETATM   17  O   UNL     1     -42.690 -46.549   9.565  1.00  0.00    -0.247 OA
HETATM   18  H   UNL     1     -44.980 -48.666  10.094  1.00  0.00     0.164 HD
HETATM   19  H   UNL     1     -43.121 -49.421  10.822  1.00  0.00     0.164 HD
BRANCH  16  20
HETATM   20  C   UNL     1     -45.435 -46.899   9.015  1.00  0.00     0.120 C 
HETATM   21  C   UNL     1     -46.896 -47.302   9.108  1.00  0.00     0.026 C 
ENDBRANCH  16  20
ENDBRANCH  13  14
ENDBRANCH  12  13
ENDBRANCH   1  12
TORSDOF 4
ENDMDL
MODEL 7
REMARK VINA RESULT:      -5.1      4.241      5.990
REMARK  4 active torsions:
REMARK  status: ('A' for Active; 'I' for Inactive)
REMARK    1  A    between atoms: C_2  and  N_3 
REMARK       I    between atoms: N_3  and  C_4 
REMARK       I    between atoms: C_4  and  N_6 
REMARK    2  A    between atoms: N_6  and  C_7 
REMARK    3  A    between atoms: C_7  and  C_8 
REMARK    4  A    between atoms: C_8  and  C_9 
ROOT
HETATM    1  C   UNL     1     -38.303 -48.745  13.280  1.00  0.00     0.019 A 
HETATM    2  C   UNL     1     -37.853 -49.218  14.495  1.00  0.00     0.078 A 
HETATM    3  S   UNL     1     -38.036 -48.028  15.698  1.00  0.00    -0.064 SA
HETATM    4  C   UNL     1     -38.755 -46.947  14.545  1.00  0.00     0.146 A 
HETATM    5  N   UNL     1     -38.822 -47.453  13.325  1.00  0.00    -0.340 N 
ATOM      6  HN  UNL     1     -39.205 -46.960  12.519  1.00  0.00     0.168 HD
HETATM    7  N   UNL     1     -39.207 -45.714  14.892  1.00  0.00    -0.361 N 
HETATM    8  C   UNL     1     -39.835 -44.825  13.929  1.00  0.00     0.125 C 
HETATM    9  C   UNL     1     -40.489 -43.731  14.783  1.00  0.00     0.021 C 
HETATM   10  C   UNL     1     -40.494 -44.284  16.199  1.00  0.00     0.021 C 
HETATM   11  C   UNL     1     -39.267 -45.184  16.238  1.00  0.00     0.125 C 
ENDROOT
BRANCH   1  12
HETATM   12  C   UNL     1     -38.302 -49.536  12.005  1.00  0.00     0.077 C 
BRANCH  12  13
HETATM   13  C   UNL     1     -39.595 -50.302  11.722  1.00  0.00     0.130 C 
BRANCH  13  14
HETATM   14  N   UNL     1     -40.351 -49.719  10.619  1.00  0.00    -0.343 N 
HETATM   15  C   UNL     1     -41.272 -48.727  10.827  1.00  0.00     0.316 C 
HETATM   16  N   UNL     1     -41.841 -48.281   9.660  1.00  0.00    -0.344 N 
HETATM   17  O   UNL     1     -41.552 -48.287  11.929  1.00  0.00    -0.247 OA
HETATM   18  H   UNL     1     -41.632 -48.764   8.803  1.00  0.00     0.164 HD
HETATM   19  H   UNL     1     -40.100 -49.969   9.675  1.00  0.00     0.164 HD
BRANCH  16  20
HETATM   20  C   UNL     1     -42.902 -47.296   9.658  1.00  0.00     0.120 C 
HETATM   21  C   UNL     1     -43.952 -47.596   8.603  1.00  0.00     0.026 C 
ENDBRANCH  16  20
ENDBRANCH  13  14
ENDBRANCH  12  13
ENDBRANCH   1  12
TORSDOF 4
ENDMDL
MODEL 8
REMARK VINA RESULT:      -5.0      3.945      5.355
REMARK  4 active torsions:
REMARK  status: ('A' for Active; 'I' for Inactive)
REMARK    1  A    between atoms: C_2  and  N_3 
REMARK       I    between atoms: N_3  and  C_4 
REMARK       I    between atoms: C_4  and  N_6 
REMARK    2  A    between atoms: N_6  and  C_7 
REMARK    3  A    between atoms: C_7  and  C_8 
REMARK    4  A    between atoms: C_8  and  C_9 
ROOT
HETATM    1  C   UNL     1     -40.240 -47.663  11.454  1.00  0.00     0.019 A 
HETATM    2  C   UNL     1     -40.590 -48.966  11.165  1.00  0.00     0.078 A 
HETATM    3  S   UNL     1     -39.653 -50.049  12.085  1.00  0.00    -0.064 SA
HETATM    4  C   UNL     1     -38.852 -48.721  12.865  1.00  0.00     0.146 A 
HETATM    5  N   UNL     1     -39.255 -47.539  12.431  1.00  0.00    -0.340 N 
ATOM      6  HN  UNL     1     -38.891 -46.648  12.768  1.00  0.00     0.168 HD
HETATM    7  N   UNL     1     -37.917 -48.906  13.833  1.00  0.00    -0.361 N 
HETATM    8  C   UNL     1     -37.272 -47.791  14.504  1.00  0.00     0.125 C 
HETATM    9  C   UNL     1     -36.579 -48.420  15.719  1.00  0.00     0.021 C 
HETATM   10  C   UNL     1     -37.192 -49.805  15.852  1.00  0.00     0.021 C 
HETATM   11  C   UNL     1     -37.550 -50.178  14.421  1.00  0.00     0.125 C 
ENDROOT
BRANCH   1  12
HETATM   12  C   UNL     1     -40.875 -46.454  10.834  1.00  0.00     0.077 C 
BRANCH  12  13
HETATM   13  C   UNL     1     -42.195 -46.021  11.473  1.00  0.00     0.130 C 
BRANCH  13  14
HETATM   14  N   UNL     1     -43.280 -46.953  11.183  1.00  0.00    -0.343 N 
HETATM   15  C   UNL     1     -43.934 -46.939   9.979  1.00  0.00     0.316 C 
HETATM   16  N   UNL     1     -44.888 -47.921   9.885  1.00  0.00    -0.344 N 
HETATM   17  O   UNL     1     -43.691 -46.142   9.089  1.00  0.00    -0.247 OA
HETATM   18  H   UNL     1     -45.099 -48.472  10.699  1.00  0.00     0.164 HD
HETATM   19  H   UNL     1     -43.467 -47.697  11.836  1.00  0.00     0.164 HD
BRANCH  16  20
HETATM   20  C   UNL     1     -45.756 -48.031   8.732  1.00  0.00     0.120 C 
HETATM   21  C   UNL     1     -47.114 -47.398   8.981  1.00  0.00     0.026 C 
ENDBRANCH  16  20
ENDBRANCH  13  14
ENDBRANCH  12  13
ENDBRANCH   1  12
TORSDOF 4
ENDMDL
MODEL 9
REMARK VINA RESULT:      -4.9      3.098      3.712
REMARK  4 active torsions:
REMARK  status: ('A' for Active; 'I' for Inactive)
REMARK    1  A    between atoms: C_2  and  N_3 
REMARK       I    between atoms: N_3  and  C_4 
REMARK       I    between atoms: C_4  and  N_6 
REMARK    2  A    between atoms: N_6  and  C_7 
REMARK    3  A    between atoms: C_7  and  C_8 
REMARK    4  A    between atoms: C_8  and  C_9 
ROOT
HETATM    1  C   UNL     1     -38.710 -51.410  13.988  1.00  0.00     0.019 A 
HETATM    2  C   UNL     1     -38.698 -51.676  15.341  1.00  0.00     0.078 A 
HETATM    3  S   UNL     1     -40.205 -52.294  15.837  1.00  0.00    -0.064 SA
HETATM    4  C   UNL     1     -40.792 -52.220  14.204  1.00  0.00     0.146 A 
HETATM    5  N   UNL     1     -39.906 -51.733  13.352  1.00  0.00    -0.340 N 
ATOM      6  HN  UNL     1     -40.078 -51.608  12.354  1.00  0.00     0.168 HD
HETATM    7  N   UNL     1     -42.037 -52.642  13.863  1.00  0.00    -0.361 N 
HETATM    8  C   UNL     1     -42.512 -52.606  12.490  1.00  0.00     0.125 C 
HETATM    9  C   UNL     1     -43.782 -53.468  12.499  1.00  0.00     0.021 C 
HETATM   10  C   UNL     1     -43.731 -54.235  13.811  1.00  0.00     0.021 C 
HETATM   11  C   UNL     1     -42.978 -53.300  14.745  1.00  0.00     0.125 C 
ENDROOT
BRANCH   1  12
HETATM   12  C   UNL     1     -37.543 -50.868  13.217  1.00  0.00     0.077 C 
BRANCH  12  13
HETATM   13  C   UNL     1     -37.827 -50.571  11.744  1.00  0.00     0.130 C 
BRANCH  13  14
HETATM   14  N   UNL     1     -38.259 -49.194  11.532  1.00  0.00    -0.343 N 
HETATM   15  C   UNL     1     -39.575 -48.882  11.308  1.00  0.00     0.316 C 
HETATM   16  N   UNL     1     -39.782 -47.531  11.180  1.00  0.00    -0.344 N 
HETATM   17  O   UNL     1     -40.462 -49.715  11.234  1.00  0.00    -0.247 OA
HETATM   18  H   UNL     1     -38.986 -46.918  11.152  1.00  0.00     0.164 HD
HETATM   19  H   UNL     1     -37.594 -48.450  11.676  1.00  0.00     0.164 HD
BRANCH  16  20
HETATM   20  C   UNL     1     -41.084 -46.989  10.853  1.00  0.00     0.120 C 
HETATM   21  C   UNL     1     -41.014 -45.513  10.507  1.00  0.00     0.026 C 
ENDBRANCH  16  20
ENDBRANCH  13  14
ENDBRANCH  12  13
ENDBRANCH   1  12
TORSDOF 4
ENDMDL
