MODEL 1
REMARK VINA RESULT:      -5.3      0.000      0.000
REMARK  4 active torsions:
REMARK  status: ('A' for Active; 'I' for Inactive)
REMARK    1  A    between atoms: N_1  and  C_5 
REMARK    2  A    between atoms: C_8  and  N_12 
REMARK    3  A    between atoms: C_13  and  C_16 
REMARK    4  A    between atoms: O_15  and  C_16 
ROOT
HETATM    1  N   UNL     1     -43.381 -46.147  10.158  1.00  0.00    -0.282 N 
HETATM    2  C   UNL     1     -44.175 -45.263   9.419  1.00  0.00     0.329 A 
HETATM    3  N   UNL     1     -45.341 -45.735   8.863  1.00  0.00    -0.299 N 
ATOM      4  HN  UNL     1     -45.926 -45.118   8.299  1.00  0.00     0.171 HD
HETATM    5  C   UNL     1     -43.769 -47.450  10.368  1.00  0.00     0.101 A 
HETATM    6  C   UNL     1     -44.904 -47.922   9.854  1.00  0.00     0.059 A 
HETATM    7  C   UNL     1     -45.695 -46.966   9.056  1.00  0.00     0.082 A 
HETATM    8  O   UNL     1     -43.842 -44.089   9.268  1.00  0.00    -0.246 OA
ENDROOT
BRANCH   1   9
HETATM    9  C   UNL     1     -42.157 -45.607  10.732  1.00  0.00     0.232 C 
HETATM   10  O   UNL     1     -40.996 -46.341  10.289  1.00  0.00    -0.359 OA
HETATM   11  C   UNL     1     -40.067 -46.441  11.384  1.00  0.00     0.147 C 
HETATM   12  C   UNL     1     -40.653 -45.650  12.546  1.00  0.00     0.038 C 
HETATM   13  C   UNL     1     -42.132 -45.665  12.253  1.00  0.00     0.057 C 
BRANCH  11  14
HETATM   14  C   UNL     1     -39.832 -47.919  11.709  1.00  0.00     0.196 C 
BRANCH  14  15
HETATM   15  O   UNL     1     -40.485 -48.752  10.759  1.00  0.00    -0.398 OA
HETATM   16  H   UNL     1     -40.725 -48.189  10.002  1.00  0.00     0.209 HD
ENDBRANCH  14  15
ENDBRANCH  11  14
ENDBRANCH   1   9
BRANCH   7  17
HETATM   17  N   UNL     1     -46.860 -47.380   8.470  1.00  0.00    -0.288 NA
HETATM   18  H   UNL     1     -47.667 -47.199   9.060  1.00  0.00     0.125 HD
HETATM   19  H   UNL     1     -47.005 -47.128   7.502  1.00  0.00     0.125 HD
ENDBRANCH   7  17
TORSDOF 4
ENDMDL
MODEL 2
REMARK VINA RESULT:      -5.1      2.388      3.769
REMARK  4 active torsions:
REMARK  status: ('A' for Active; 'I' for Inactive)
REMARK    1  A    between atoms: N_1  and  C_5 
REMARK    2  A    between atoms: C_8  and  N_12 
REMARK    3  A    between atoms: C_13  and  C_16 
REMARK    4  A    between atoms: O_15  and  C_16 
ROOT
HETATM    1  N   UNL     1     -41.411 -47.845  11.180  1.00  0.00    -0.282 N 
HETATM    2  C   UNL     1     -40.925 -46.635  10.674  1.00  0.00     0.329 A 
HETATM    3  N   UNL     1     -41.795 -45.803  10.007  1.00  0.00    -0.299 N 
ATOM      4  HN  UNL     1     -41.460 -44.927   9.607  1.00  0.00     0.171 HD
HETATM    5  C   UNL     1     -42.739 -48.186  11.060  1.00  0.00     0.101 A 
HETATM    6  C   UNL     1     -43.601 -47.387  10.436  1.00  0.00     0.059 A 
HETATM    7  C   UNL     1     -43.041 -46.137   9.889  1.00  0.00     0.082 A 
HETATM    8  O   UNL     1     -39.745 -46.317  10.819  1.00  0.00    -0.246 OA
ENDROOT
BRANCH   1   9
HETATM    9  C   UNL     1     -40.459 -48.694  11.881  1.00  0.00     0.232 C 
HETATM   10  O   UNL     1     -40.239 -49.934  11.177  1.00  0.00    -0.359 OA
HETATM   11  C   UNL     1     -40.095 -50.994  12.141  1.00  0.00     0.147 C 
HETATM   12  C   UNL     1     -40.147 -50.356  13.522  1.00  0.00     0.038 C 
HETATM   13  C   UNL     1     -40.918 -49.084  13.278  1.00  0.00     0.057 C 
BRANCH  11  14
HETATM   14  C   UNL     1     -41.193 -52.036  11.908  1.00  0.00     0.196 C 
BRANCH  14  15
HETATM   15  O   UNL     1     -40.638 -53.247  11.409  1.00  0.00    -0.398 OA
HETATM   16  H   UNL     1     -41.203 -53.537  10.671  1.00  0.00     0.209 HD
ENDBRANCH  14  15
ENDBRANCH  11  14
ENDBRANCH   1   9
BRANCH   7  17
HETATM   17  N   UNL     1     -43.855 -45.274   9.209  1.00  0.00    -0.288 NA
HETATM   18  H   UNL     1     -44.835 -45.416   9.437  1.00  0.00     0.125 HD
HETATM   19  H   UNL     1     -43.584 -44.300   9.190  1.00  0.00     0.125 HD
ENDBRANCH   7  17
TORSDOF 4
ENDMDL
MODEL 3
REMARK VINA RESULT:      -5.1      7.429      9.155
REMARK  4 active torsions:
REMARK  status: ('A' for Active; 'I' for Inactive)
REMARK    1  A    between atoms: N_1  and  C_5 
REMARK    2  A    between atoms: C_8  and  N_12 
REMARK    3  A    between atoms: C_13  and  C_16 
REMARK    4  A    between atoms: O_15  and  C_16 
ROOT
HETATM    1  N   UNL     1     -43.440 -53.361  14.054  1.00  0.00    -0.282 N 
HETATM    2  C   UNL     1     -42.855 -54.455  14.702  1.00  0.00     0.329 A 
HETATM    3  N   UNL     1     -41.551 -54.777  14.400  1.00  0.00    -0.299 N 
ATOM      4  HN  UNL     1     -41.109 -55.584  14.840  1.00  0.00     0.171 HD
HETATM    5  C   UNL     1     -42.724 -52.590  13.167  1.00  0.00     0.101 A 
HETATM    6  C   UNL     1     -41.455 -52.873  12.877  1.00  0.00     0.059 A 
HETATM    7  C   UNL     1     -40.888 -54.052  13.557  1.00  0.00     0.082 A 
HETATM    8  O   UNL     1     -43.488 -55.116  15.523  1.00  0.00    -0.246 OA
ENDROOT
BRANCH   1   9
HETATM    9  C   UNL     1     -44.819 -53.053  14.403  1.00  0.00     0.232 C 
HETATM   10  O   UNL     1     -45.726 -53.406  13.337  1.00  0.00    -0.359 OA
HETATM   11  C   UNL     1     -46.763 -52.410  13.263  1.00  0.00     0.147 C 
HETATM   12  C   UNL     1     -46.528 -51.430  14.404  1.00  0.00     0.038 C 
HETATM   13  C   UNL     1     -45.052 -51.573  14.674  1.00  0.00     0.057 C 
BRANCH  11  14
HETATM   14  C   UNL     1     -46.731 -51.755  11.879  1.00  0.00     0.196 C 
BRANCH  14  15
HETATM   15  O   UNL     1     -47.533 -52.486  10.959  1.00  0.00    -0.398 OA
HETATM   16  H   UNL     1     -47.400 -53.431  11.151  1.00  0.00     0.209 HD
ENDBRANCH  14  15
ENDBRANCH  11  14
ENDBRANCH   1   9
BRANCH   7  17
HETATM   17  N   UNL     1     -39.599 -54.427  13.292  1.00  0.00    -0.288 NA
HETATM   18  H   UNL     1     -39.387 -54.385  12.299  1.00  0.00     0.125 HD
HETATM   19  H   UNL     1     -38.873 -54.032  13.875  1.00  0.00     0.125 HD
ENDBRANCH   7  17
TORSDOF 4
ENDMDL
MODEL 4
REMARK VINA RESULT:      -5.0      5.537      7.614
REMARK  4 active torsions:
REMARK  status: ('A' for Active; 'I' for Inactive)
REMARK    1  A    between atoms: N_1  and  C_5 
REMARK    2  A    between atoms: C_8  and  N_12 
REMARK    3  A    between atoms: C_13  and  C_16 
REMARK    4  A    between atoms: O_15  and  C_16 
ROOT
HETATM    1  N   UNL     1     -42.068 -51.794  12.591  1.00  0.00    -0.282 N 
HETATM    2  C   UNL     1     -40.780 -52.208  12.232  1.00  0.00     0.329 A 
HETATM    3  N   UNL     1     -39.903 -51.271  11.737  1.00  0.00    -0.299 N 
ATOM      4  HN  UNL     1     -38.966 -51.551  11.445  1.00  0.00     0.171 HD
HETATM    5  C   UNL     1     -42.445 -50.474  12.497  1.00  0.00     0.101 A 
HETATM    6  C   UNL     1     -41.604 -49.549  12.039  1.00  0.00     0.059 A 
HETATM    7  C   UNL     1     -40.269 -50.033  11.642  1.00  0.00     0.082 A 
HETATM    8  O   UNL     1     -40.436 -53.382  12.355  1.00  0.00    -0.246 OA
ENDROOT
BRANCH   1   9
HETATM    9  C   UNL     1     -42.964 -52.816  13.113  1.00  0.00     0.232 C 
HETATM   10  O   UNL     1     -44.069 -53.058  12.217  1.00  0.00    -0.359 OA
HETATM   11  C   UNL     1     -45.255 -53.294  12.998  1.00  0.00     0.147 C 
HETATM   12  C   UNL     1     -44.840 -53.279  14.462  1.00  0.00     0.038 C 
HETATM   13  C   UNL     1     -43.587 -52.440  14.450  1.00  0.00     0.057 C 
BRANCH  11  14
HETATM   14  C   UNL     1     -46.304 -52.234  12.650  1.00  0.00     0.196 C 
BRANCH  14  15
HETATM   15  O   UNL     1     -46.807 -52.438  11.335  1.00  0.00    -0.398 OA
HETATM   16  H   UNL     1     -46.627 -51.626  10.830  1.00  0.00     0.209 HD
ENDBRANCH  14  15
ENDBRANCH  11  14
ENDBRANCH   1   9
BRANCH   7  17
HETATM   17  N   UNL     1     -39.356 -49.149  11.135  1.00  0.00    -0.288 NA
HETATM   18  H   UNL     1     -39.236 -49.260  10.132  1.00  0.00     0.125 HD
HETATM   19  H   UNL     1     -39.434 -48.184  11.426  1.00  0.00     0.125 HD
ENDBRANCH   7  17
TORSDOF 4
ENDMDL
MODEL 5
REMARK VINA RESULT:      -4.9      2.265      3.574
REMARK  4 active torsions:
REMARK  status: ('A' for Active; 'I' for Inactive)
REMARK    1  A    between atoms: N_1  and  C_5 
REMARK    2  A    between atoms: C_8  and  N_12 
REMARK    3  A    between atoms: C_13  and  C_16 
REMARK    4  A    between atoms: O_15  and  C_16 
ROOT
HETATM    1  N   UNL     1     -42.176 -46.304  10.438  1.00  0.00    -0.282 N 
HETATM    2  C   UNL     1     -41.954 -47.651  10.130  1.00  0.00     0.329 A 
HETATM    3  N   UNL     1     -42.695 -48.226   9.123  1.00  0.00    -0.299 N 
ATOM      4  HN  UNL     1     -42.570 -49.212   8.895  1.00  0.00     0.171 HD
HETATM    5  C   UNL     1     -43.080 -45.549   9.726  1.00  0.00     0.101 A 
HETATM    6  C   UNL     1     -43.792 -46.081   8.735  1.00  0.00     0.059 A 
HETATM    7  C   UNL     1     -43.551 -47.511   8.465  1.00  0.00     0.082 A 
HETATM    8  O   UNL     1     -41.117 -48.310  10.744  1.00  0.00    -0.246 OA
ENDROOT
BRANCH   1   9
HETATM    9  C   UNL     1     -41.371 -45.734  11.508  1.00  0.00     0.232 C 
HETATM   10  O   UNL     1     -42.098 -44.722  12.235  1.00  0.00    -0.359 OA
HETATM   11  C   UNL     1     -41.189 -43.662  12.586  1.00  0.00     0.147 C 
HETATM   12  C   UNL     1     -39.803 -44.085  12.120  1.00  0.00     0.038 C 
HETATM   13  C   UNL     1     -40.102 -45.057  11.008  1.00  0.00     0.057 C 
BRANCH  11  14
HETATM   14  C   UNL     1     -41.674 -42.355  11.953  1.00  0.00     0.196 C 
BRANCH  14  15
HETATM   15  O   UNL     1     -40.582 -41.629  11.402  1.00  0.00    -0.398 OA
HETATM   16  H   UNL     1     -40.444 -40.847  11.966  1.00  0.00     0.209 HD
ENDBRANCH  14  15
ENDBRANCH  11  14
ENDBRANCH   1   9
BRANCH   7  17
HETATM   17  N   UNL     1     -44.262 -48.140   7.480  1.00  0.00    -0.288 NA
HETATM   18  H   UNL     1     -44.063 -49.136   7.444  1.00  0.00     0.125 HD
HETATM   19  H   UNL     1     -45.248 -47.925   7.412  1.00  0.00     0.125 HD
ENDBRANCH   7  17
TORSDOF 4
ENDMDL
MODEL 6
REMARK VINA RESULT:      -4.8      8.239      9.700
REMARK  4 active torsions:
REMARK  status: ('A' for Active; 'I' for Inactive)
REMARK    1  A    between atoms: N_1  and  C_5 
REMARK    2  A    between atoms: C_8  and  N_12 
REMARK    3  A    between atoms: C_13  and  C_16 
REMARK    4  A    between atoms: O_15  and  C_16 
ROOT
HETATM    1  N   UNL     1     -40.928 -54.285  14.462  1.00  0.00    -0.282 N 
HETATM    2  C   UNL     1     -41.090 -53.733  13.187  1.00  0.00     0.329 A 
HETATM    3  N   UNL     1     -42.345 -53.738  12.623  1.00  0.00    -0.299 N 
ATOM      4  HN  UNL     1     -42.486 -53.364  11.685  1.00  0.00     0.171 HD
HETATM    5  C   UNL     1     -42.000 -54.785  15.165  1.00  0.00     0.101 A 
HETATM    6  C   UNL     1     -43.226 -54.781  14.646  1.00  0.00     0.059 A 
HETATM    7  C   UNL     1     -43.347 -54.220  13.288  1.00  0.00     0.082 A 
HETATM    8  O   UNL     1     -40.135 -53.252  12.579  1.00  0.00    -0.246 OA
ENDROOT
BRANCH   1   9
HETATM    9  C   UNL     1     -39.585 -54.258  15.023  1.00  0.00     0.232 C 
HETATM   10  O   UNL     1     -39.049 -55.588  15.178  1.00  0.00    -0.359 OA
HETATM   11  C   UNL     1     -38.281 -55.639  16.395  1.00  0.00     0.147 C 
HETATM   12  C   UNL     1     -38.276 -54.235  16.983  1.00  0.00     0.038 C 
HETATM   13  C   UNL     1     -39.525 -53.621  16.405  1.00  0.00     0.057 C 
BRANCH  11  14
HETATM   14  C   UNL     1     -38.891 -56.689  17.329  1.00  0.00     0.196 C 
BRANCH  14  15
HETATM   15  O   UNL     1     -39.988 -57.342  16.702  1.00  0.00    -0.398 OA
HETATM   16  H   UNL     1     -40.245 -58.085  17.276  1.00  0.00     0.209 HD
ENDBRANCH  14  15
ENDBRANCH  11  14
ENDBRANCH   1   9
BRANCH   7  17
HETATM   17  N   UNL     1     -44.568 -54.205  12.671  1.00  0.00    -0.288 NA
HETATM   18  H   UNL     1     -44.745 -55.062  12.156  1.00  0.00     0.125 HD
HETATM   19  H   UNL     1     -45.360 -53.896  13.220  1.00  0.00     0.125 HD
ENDBRANCH   7  17
TORSDOF 4
ENDMDL
MODEL 7
REMARK VINA RESULT:      -4.8      8.957     10.306
REMARK  4 active torsions:
REMARK  status: ('A' for Active; 'I' for Inactive)
REMARK    1  A    between atoms: N_1  and  C_5 
REMARK    2  A    between atoms: C_8  and  N_12 
REMARK    3  A    between atoms: C_13  and  C_16 
REMARK    4  A    between atoms: O_15  and  C_16 
ROOT
HETATM    1  N   UNL     1     -42.333 -54.476  15.131  1.00  0.00    -0.282 N 
HETATM    2  C   UNL     1     -41.190 -54.788  15.875  1.00  0.00     0.329 A 
HETATM    3  N   UNL     1     -39.973 -54.804  15.233  1.00  0.00    -0.299 N 
ATOM      4  HN  UNL     1     -39.127 -55.052  15.747  1.00  0.00     0.171 HD
HETATM    5  C   UNL     1     -42.249 -54.147  13.797  1.00  0.00     0.101 A 
HETATM    6  C   UNL     1     -41.079 -54.138  13.163  1.00  0.00     0.059 A 
HETATM    7  C   UNL     1     -39.904 -54.503  13.975  1.00  0.00     0.082 A 
HETATM    8  O   UNL     1     -41.266 -55.042  17.076  1.00  0.00    -0.246 OA
ENDROOT
BRANCH   1   9
HETATM    9  C   UNL     1     -43.600 -54.467  15.848  1.00  0.00     0.232 C 
HETATM   10  O   UNL     1     -44.676 -54.968  15.026  1.00  0.00    -0.359 OA
HETATM   11  C   UNL     1     -45.864 -54.204  15.305  1.00  0.00     0.147 C 
HETATM   12  C   UNL     1     -45.522 -53.231  16.424  1.00  0.00     0.038 C 
HETATM   13  C   UNL     1     -44.028 -53.076  16.291  1.00  0.00     0.057 C 
BRANCH  11  14
HETATM   14  C   UNL     1     -46.331 -53.517  14.019  1.00  0.00     0.196 C 
BRANCH  14  15
HETATM   15  O   UNL     1     -45.719 -54.111  12.881  1.00  0.00    -0.398 OA
HETATM   16  H   UNL     1     -45.909 -53.535  12.119  1.00  0.00     0.209 HD
ENDBRANCH  14  15
ENDBRANCH  11  14
ENDBRANCH   1   9
BRANCH   7  17
HETATM   17  N   UNL     1     -38.667 -54.545  13.392  1.00  0.00    -0.288 NA
HETATM   18  H   UNL     1     -38.617 -55.245  12.657  1.00  0.00     0.125 HD
HETATM   19  H   UNL     1     -38.247 -53.662  13.134  1.00  0.00     0.125 HD
ENDBRANCH   7  17
TORSDOF 4
ENDMDL
MODEL 8
REMARK VINA RESULT:      -4.7      3.657      6.137
REMARK  4 active torsions:
REMARK  status: ('A' for Active; 'I' for Inactive)
REMARK    1  A    between atoms: N_1  and  C_5 
REMARK    2  A    between atoms: C_8  and  N_12 
REMARK    3  A    between atoms: C_13  and  C_16 
REMARK    4  A    between atoms: O_15  and  C_16 
ROOT
HETATM    1  N   UNL     1     -40.437 -49.466  11.728  1.00  0.00    -0.282 N 
HETATM    2  C   UNL     1     -40.455 -50.844  11.972  1.00  0.00     0.329 A 
HETATM    3  N   UNL     1     -39.264 -51.479  12.240  1.00  0.00    -0.299 N 
ATOM      4  HN  UNL     1     -39.246 -52.487  12.397  1.00  0.00     0.171 HD
HETATM    5  C   UNL     1     -39.268 -48.744  11.797  1.00  0.00     0.101 A 
HETATM    6  C   UNL     1     -38.108 -49.337  12.074  1.00  0.00     0.059 A 
HETATM    7  C   UNL     1     -38.167 -50.794  12.293  1.00  0.00     0.082 A 
HETATM    8  O   UNL     1     -41.509 -51.477  11.948  1.00  0.00    -0.246 OA
ENDROOT
BRANCH   1   9
HETATM    9  C   UNL     1     -41.718 -48.832  11.451  1.00  0.00     0.232 C 
HETATM   10  O   UNL     1     -41.650 -47.994  10.279  1.00  0.00    -0.359 OA
HETATM   11  C   UNL     1     -42.454 -46.821  10.501  1.00  0.00     0.147 C 
HETATM   12  C   UNL     1     -43.123 -46.985  11.859  1.00  0.00     0.038 C 
HETATM   13  C   UNL     1     -42.197 -47.930  12.580  1.00  0.00     0.057 C 
BRANCH  11  14
HETATM   14  C   UNL     1     -41.565 -45.578  10.405  1.00  0.00     0.196 C 
BRANCH  14  15
HETATM   15  O   UNL     1     -40.253 -45.930   9.985  1.00  0.00    -0.398 OA
HETATM   16  H   UNL     1     -40.305 -46.824   9.603  1.00  0.00     0.209 HD
ENDBRANCH  14  15
ENDBRANCH  11  14
ENDBRANCH   1   9
BRANCH   7  17
HETATM   17  N   UNL     1     -37.014 -51.483  12.555  1.00  0.00    -0.288 NA
HETATM   18  H   UNL     1     -36.900 -51.670  13.547  1.00  0.00     0.125 HD
HETATM   19  H   UNL     1     -36.809 -52.282  11.970  1.00  0.00     0.125 HD
ENDBRANCH   7  17
TORSDOF 4
ENDMDL
MODEL 9
REMARK VINA RESULT:      -4.6      4.454      6.530
REMARK  4 active torsions:
REMARK  status: ('A' for Active; 'I' for Inactive)
REMARK    1  A    between atoms: N_1  and  C_5 
REMARK    2  A    between atoms: C_8  and  N_12 
REMARK    3  A    between atoms: C_13  and  C_16 
REMARK    4  A    between atoms: O_15  and  C_16 
ROOT
HETATM    1  N   UNL     1     -40.225 -50.516  12.188  1.00  0.00    -0.282 N 
HETATM    2  C   UNL     1     -39.192 -49.688  11.736  1.00  0.00     0.329 A 
HETATM    3  N   UNL     1     -39.521 -48.495  11.135  1.00  0.00    -0.299 N 
ATOM      4  HN  UNL     1     -38.788 -47.884  10.774  1.00  0.00     0.171 HD
HETATM    5  C   UNL     1     -41.544 -50.136  12.080  1.00  0.00     0.101 A 
HETATM    6  C   UNL     1     -41.882 -48.977  11.519  1.00  0.00     0.059 A 
HETATM    7  C   UNL     1     -40.765 -48.149  11.027  1.00  0.00     0.082 A 
HETATM    8  O   UNL     1     -38.014 -50.015  11.871  1.00  0.00    -0.246 OA
ENDROOT
BRANCH   1   9
HETATM    9  C   UNL     1     -39.834 -51.767  12.820  1.00  0.00     0.232 C 
HETATM   10  O   UNL     1     -40.492 -52.897  12.209  1.00  0.00    -0.359 OA
HETATM   11  C   UNL     1     -40.825 -53.850  13.236  1.00  0.00     0.147 C 
HETATM   12  C   UNL     1     -40.265 -53.314  14.546  1.00  0.00     0.038 C 
HETATM   13  C   UNL     1     -40.190 -51.828  14.299  1.00  0.00     0.057 C 
BRANCH  11  14
HETATM   14  C   UNL     1     -42.342 -54.054  13.258  1.00  0.00     0.196 C 
BRANCH  14  15
HETATM   15  O   UNL     1     -42.948 -53.438  12.129  1.00  0.00    -0.398 OA
HETATM   16  H   UNL     1     -43.339 -54.149  11.590  1.00  0.00     0.209 HD
ENDBRANCH  14  15
ENDBRANCH  11  14
ENDBRANCH   1   9
BRANCH   7  17
HETATM   17  N   UNL     1     -41.030 -46.956  10.413  1.00  0.00    -0.288 NA
HETATM   18  H   UNL     1     -41.914 -46.559  10.717  1.00  0.00     0.125 HD
HETATM   19  H   UNL     1     -40.279 -46.280  10.372  1.00  0.00     0.125 HD
ENDBRANCH   7  17
TORSDOF 4
ENDMDL
