MODEL 1
REMARK VINA RESULT:      -6.4      0.000      0.000
REMARK  4 active torsions:
REMARK  status: ('A' for Active; 'I' for Inactive)
REMARK    1  A    between atoms: C_6  and  N_7 
REMARK       I    between atoms: N_7  and  C_8 
REMARK       I    between atoms: C_8  and  N_10 
REMARK    2  A    between atoms: N_10  and  C_11 
REMARK    3  A    between atoms: C_11  and  C_12 
REMARK    4  A    between atoms: C_12  and  C_13 
ROOT
HETATM    1  N   UNL     1     -41.035 -49.266  10.596  1.00  0.00    -0.304 N 
HETATM    2  C   UNL     1     -41.116 -50.020  11.740  1.00  0.00     0.320 C 
HETATM    3  O   UNL     1     -41.832 -49.749  12.702  1.00  0.00    -0.247 OA
HETATM    4  N   UNL     1     -40.303 -51.132  11.740  1.00  0.00    -0.343 N 
HETATM    5  H   UNL     1     -40.662 -49.695   9.757  1.00  0.00     0.171 HD
HETATM    6  H   UNL     1     -39.972 -51.481  10.854  1.00  0.00     0.164 HD
ENDROOT
BRANCH   1   7
HETATM    7  C   UNL     1     -41.629 -48.028  10.401  1.00  0.00     0.105 A 
HETATM    8  C   UNL     1     -42.850 -47.830   9.878  1.00  0.00     0.037 A 
HETATM    9  C   UNL     1     -43.416 -46.515   9.738  1.00  0.00     0.020 A 
HETATM   10  C   UNL     1     -42.743 -45.446  10.175  1.00  0.00     0.094 A 
HETATM   11  N   UNL     1     -41.490 -45.575  10.739  1.00  0.00    -0.327 N 
HETATM   12  C   UNL     1     -40.791 -44.390  11.201  1.00  0.00     0.159 C 
HETATM   13  C   UNL     1     -40.842 -46.810  10.848  1.00  0.00     0.274 A 
HETATM   14  O   UNL     1     -39.696 -46.959  11.280  1.00  0.00    -0.266 OA
ENDBRANCH   1   7
BRANCH   4  15
HETATM   15  C   UNL     1     -40.468 -52.054  12.851  1.00  0.00     0.128 C 
BRANCH  15  16
HETATM   16  C   UNL     1     -40.909 -53.465  12.466  1.00  0.00     0.053 C 
BRANCH  16  17
HETATM   17  C   UNL     1     -42.216 -53.866  13.140  1.00  0.00    -0.082 A 
HETATM   18  C   UNL     1     -42.223 -54.572  14.279  1.00  0.00    -0.024 A 
HETATM   19  C   UNL     1     -43.448 -55.024  15.001  1.00  0.00     0.027 A 
HETATM   20  C   UNL     1     -44.796 -54.626  14.413  1.00  0.00     0.004 A 
HETATM   21  C   UNL     1     -44.816 -53.806  13.127  1.00  0.00     0.005 A 
HETATM   22  C   UNL     1     -43.488 -53.446  12.459  1.00  0.00     0.034 A 
ENDBRANCH  16  17
ENDBRANCH  15  16
ENDBRANCH   4  15
TORSDOF 4
ENDMDL
MODEL 2
REMARK VINA RESULT:      -6.2      2.386      4.057
REMARK  4 active torsions:
REMARK  status: ('A' for Active; 'I' for Inactive)
REMARK    1  A    between atoms: C_6  and  N_7 
REMARK       I    between atoms: N_7  and  C_8 
REMARK       I    between atoms: C_8  and  N_10 
REMARK    2  A    between atoms: N_10  and  C_11 
REMARK    3  A    between atoms: C_11  and  C_12 
REMARK    4  A    between atoms: C_12  and  C_13 
ROOT
HETATM    1  N   UNL     1     -41.469 -51.498  11.456  1.00  0.00    -0.304 N 
HETATM    2  C   UNL     1     -42.325 -52.108  12.340  1.00  0.00     0.320 C 
HETATM    3  O   UNL     1     -42.407 -51.828  13.533  1.00  0.00    -0.247 OA
HETATM    4  N   UNL     1     -43.100 -53.098  11.778  1.00  0.00    -0.343 N 
HETATM    5  H   UNL     1     -41.660 -51.573  10.464  1.00  0.00     0.171 HD
HETATM    6  H   UNL     1     -43.226 -53.096  10.777  1.00  0.00     0.164 HD
ENDROOT
BRANCH   1   7
HETATM    7  C   UNL     1     -40.481 -50.583  11.789  1.00  0.00     0.105 A 
HETATM    8  C   UNL     1     -39.294 -50.890  12.336  1.00  0.00     0.037 A 
HETATM    9  C   UNL     1     -38.302 -49.889  12.622  1.00  0.00     0.020 A 
HETATM   10  C   UNL     1     -38.530 -48.611  12.303  1.00  0.00     0.094 A 
HETATM   11  N   UNL     1     -39.722 -48.223  11.723  1.00  0.00    -0.327 N 
HETATM   12  C   UNL     1     -39.931 -46.825  11.392  1.00  0.00     0.159 C 
HETATM   13  C   UNL     1     -40.761 -49.125  11.476  1.00  0.00     0.274 A 
HETATM   14  O   UNL     1     -41.865 -48.808  11.026  1.00  0.00    -0.266 OA
ENDBRANCH   1   7
BRANCH   4  15
HETATM   15  C   UNL     1     -44.138 -53.664  12.624  1.00  0.00     0.128 C 
BRANCH  15  16
HETATM   16  C   UNL     1     -45.447 -52.877  12.664  1.00  0.00     0.053 C 
BRANCH  16  17
HETATM   17  C   UNL     1     -45.920 -52.616  14.089  1.00  0.00    -0.082 A 
HETATM   18  C   UNL     1     -46.702 -51.568  14.382  1.00  0.00    -0.024 A 
HETATM   19  C   UNL     1     -47.199 -51.222  15.745  1.00  0.00     0.027 A 
HETATM   20  C   UNL     1     -46.812 -52.152  16.889  1.00  0.00     0.004 A 
HETATM   21  C   UNL     1     -45.939 -53.362  16.580  1.00  0.00     0.005 A 
HETATM   22  C   UNL     1     -45.455 -53.579  15.146  1.00  0.00     0.034 A 
ENDBRANCH  16  17
ENDBRANCH  15  16
ENDBRANCH   4  15
TORSDOF 4
ENDMDL
MODEL 3
REMARK VINA RESULT:      -6.1      1.845      3.013
REMARK  4 active torsions:
REMARK  status: ('A' for Active; 'I' for Inactive)
REMARK    1  A    between atoms: C_6  and  N_7 
REMARK       I    between atoms: N_7  and  C_8 
REMARK       I    between atoms: C_8  and  N_10 
REMARK    2  A    between atoms: N_10  and  C_11 
REMARK    3  A    between atoms: C_11  and  C_12 
REMARK    4  A    between atoms: C_12  and  C_13 
ROOT
HETATM    1  N   UNL     1     -41.265 -50.279  11.207  1.00  0.00    -0.304 N 
HETATM    2  C   UNL     1     -41.867 -51.075  12.150  1.00  0.00     0.320 C 
HETATM    3  O   UNL     1     -42.233 -50.686  13.256  1.00  0.00    -0.247 OA
HETATM    4  N   UNL     1     -42.024 -52.387  11.761  1.00  0.00    -0.343 N 
HETATM    5  H   UNL     1     -41.261 -50.588  10.241  1.00  0.00     0.171 HD
HETATM    6  H   UNL     1     -41.995 -52.600  10.775  1.00  0.00     0.164 HD
ENDROOT
BRANCH   1   7
HETATM    7  C   UNL     1     -40.856 -48.968  11.399  1.00  0.00     0.105 A 
HETATM    8  C   UNL     1     -39.734 -48.592  12.033  1.00  0.00     0.037 A 
HETATM    9  C   UNL     1     -39.356 -47.211  12.163  1.00  0.00     0.020 A 
HETATM   10  C   UNL     1     -40.106 -46.256  11.605  1.00  0.00     0.094 A 
HETATM   11  N   UNL     1     -41.265 -46.568  10.923  1.00  0.00    -0.327 N 
HETATM   12  C   UNL     1     -42.053 -45.503  10.331  1.00  0.00     0.159 C 
HETATM   13  C   UNL     1     -41.736 -47.881  10.811  1.00  0.00     0.274 A 
HETATM   14  O   UNL     1     -42.801 -48.194  10.272  1.00  0.00    -0.266 OA
ENDBRANCH   1   7
BRANCH   4  15
HETATM   15  C   UNL     1     -42.800 -53.236  12.649  1.00  0.00     0.128 C 
BRANCH  15  16
HETATM   16  C   UNL     1     -44.271 -53.402  12.271  1.00  0.00     0.053 C 
BRANCH  16  17
HETATM   17  C   UNL     1     -45.207 -52.988  13.400  1.00  0.00    -0.082 A 
HETATM   18  C   UNL     1     -45.834 -51.803  13.386  1.00  0.00    -0.024 A 
HETATM   19  C   UNL     1     -46.752 -51.305  14.450  1.00  0.00     0.027 A 
HETATM   20  C   UNL     1     -47.022 -52.228  15.632  1.00  0.00     0.004 A 
HETATM   21  C   UNL     1     -46.337 -53.589  15.664  1.00  0.00     0.005 A 
HETATM   22  C   UNL     1     -45.379 -53.962  14.531  1.00  0.00     0.034 A 
ENDBRANCH  16  17
ENDBRANCH  15  16
ENDBRANCH   4  15
TORSDOF 4
ENDMDL
MODEL 4
REMARK VINA RESULT:      -6.1      3.035      7.557
REMARK  4 active torsions:
REMARK  status: ('A' for Active; 'I' for Inactive)
REMARK    1  A    between atoms: C_6  and  N_7 
REMARK       I    between atoms: N_7  and  C_8 
REMARK       I    between atoms: C_8  and  N_10 
REMARK    2  A    between atoms: N_10  and  C_11 
REMARK    3  A    between atoms: C_11  and  C_12 
REMARK    4  A    between atoms: C_12  and  C_13 
ROOT
HETATM    1  N   UNL     1     -41.632 -52.946  12.157  1.00  0.00    -0.304 N 
HETATM    2  C   UNL     1     -41.190 -51.658  12.331  1.00  0.00     0.320 C 
HETATM    3  O   UNL     1     -41.162 -51.073  13.410  1.00  0.00    -0.247 OA
HETATM    4  N   UNL     1     -40.782 -51.042  11.168  1.00  0.00    -0.343 N 
HETATM    5  H   UNL     1     -41.358 -53.445  11.318  1.00  0.00     0.171 HD
HETATM    6  H   UNL     1     -40.539 -51.623  10.380  1.00  0.00     0.164 HD
ENDROOT
BRANCH   1   7
HETATM    7  C   UNL     1     -42.234 -53.732  13.129  1.00  0.00     0.105 A 
HETATM    8  C   UNL     1     -41.601 -54.289  14.175  1.00  0.00     0.037 A 
HETATM    9  C   UNL     1     -42.299 -55.064  15.165  1.00  0.00     0.020 A 
HETATM   10  C   UNL     1     -43.626 -55.211  15.087  1.00  0.00     0.094 A 
HETATM   11  N   UNL     1     -44.345 -54.652  14.049  1.00  0.00    -0.327 N 
HETATM   12  C   UNL     1     -45.783 -54.835  14.000  1.00  0.00     0.159 C 
HETATM   13  C   UNL     1     -43.731 -53.943  13.011  1.00  0.00     0.274 A 
HETATM   14  O   UNL     1     -44.328 -53.489  12.032  1.00  0.00    -0.266 OA
ENDBRANCH   1   7
BRANCH   4  15
HETATM   15  C   UNL     1     -40.153 -49.740  11.313  1.00  0.00     0.128 C 
BRANCH  15  16
HETATM   16  C   UNL     1     -38.631 -49.763  11.451  1.00  0.00     0.053 C 
BRANCH  16  17
HETATM   17  C   UNL     1     -38.173 -49.399  12.857  1.00  0.00    -0.082 A 
HETATM   18  C   UNL     1     -38.346 -48.164  13.348  1.00  0.00    -0.024 A 
HETATM   19  C   UNL     1     -37.917 -47.710  14.702  1.00  0.00     0.027 A 
HETATM   20  C   UNL     1     -37.256 -48.741  15.610  1.00  0.00     0.004 A 
HETATM   21  C   UNL     1     -37.064 -50.158  15.084  1.00  0.00     0.005 A 
HETATM   22  C   UNL     1     -37.507 -50.484  13.657  1.00  0.00     0.034 A 
ENDBRANCH  16  17
ENDBRANCH  15  16
ENDBRANCH   4  15
TORSDOF 4
ENDMDL
MODEL 5
REMARK VINA RESULT:      -6.1      3.021      4.571
REMARK  4 active torsions:
REMARK  status: ('A' for Active; 'I' for Inactive)
REMARK    1  A    between atoms: C_6  and  N_7 
REMARK       I    between atoms: N_7  and  C_8 
REMARK       I    between atoms: C_8  and  N_10 
REMARK    2  A    between atoms: N_10  and  C_11 
REMARK    3  A    between atoms: C_11  and  C_12 
REMARK    4  A    between atoms: C_12  and  C_13 
ROOT
HETATM    1  N   UNL     1     -41.740 -51.443  11.610  1.00  0.00    -0.304 N 
HETATM    2  C   UNL     1     -42.582 -52.076  12.491  1.00  0.00     0.320 C 
HETATM    3  O   UNL     1     -42.656 -51.817  13.689  1.00  0.00    -0.247 OA
HETATM    4  N   UNL     1     -43.352 -53.065  11.920  1.00  0.00    -0.343 N 
HETATM    5  H   UNL     1     -41.939 -51.504  10.618  1.00  0.00     0.171 HD
HETATM    6  H   UNL     1     -43.486 -53.049  10.920  1.00  0.00     0.164 HD
ENDROOT
BRANCH   1   7
HETATM    7  C   UNL     1     -40.759 -50.524  11.950  1.00  0.00     0.105 A 
HETATM    8  C   UNL     1     -40.845 -49.196  11.763  1.00  0.00     0.037 A 
HETATM    9  C   UNL     1     -39.799 -48.298  12.174  1.00  0.00     0.020 A 
HETATM   10  C   UNL     1     -38.719 -48.772  12.804  1.00  0.00     0.094 A 
HETATM   11  N   UNL     1     -38.570 -50.123  13.045  1.00  0.00    -0.327 N 
HETATM   12  C   UNL     1     -37.383 -50.597  13.731  1.00  0.00     0.159 C 
HETATM   13  C   UNL     1     -39.509 -51.067  12.617  1.00  0.00     0.274 A 
HETATM   14  O   UNL     1     -39.380 -52.286  12.750  1.00  0.00    -0.266 OA
ENDBRANCH   1   7
BRANCH   4  15
HETATM   15  C   UNL     1     -44.376 -53.656  12.765  1.00  0.00     0.128 C 
BRANCH  15  16
HETATM   16  C   UNL     1     -45.678 -52.861  12.864  1.00  0.00     0.053 C 
BRANCH  16  17
HETATM   17  C   UNL     1     -46.084 -52.596  14.309  1.00  0.00    -0.082 A 
HETATM   18  C   UNL     1     -46.849 -51.545  14.636  1.00  0.00    -0.024 A 
HETATM   19  C   UNL     1     -47.283 -51.196  16.019  1.00  0.00     0.027 A 
HETATM   20  C   UNL     1     -46.844 -52.124  17.146  1.00  0.00     0.004 A 
HETATM   21  C   UNL     1     -45.988 -53.337  16.800  1.00  0.00     0.005 A 
HETATM   22  C   UNL     1     -45.572 -53.557  15.345  1.00  0.00     0.034 A 
ENDBRANCH  16  17
ENDBRANCH  15  16
ENDBRANCH   4  15
TORSDOF 4
ENDMDL
MODEL 6
REMARK VINA RESULT:      -6.1      2.099      7.958
REMARK  4 active torsions:
REMARK  status: ('A' for Active; 'I' for Inactive)
REMARK    1  A    between atoms: C_6  and  N_7 
REMARK       I    between atoms: N_7  and  C_8 
REMARK       I    between atoms: C_8  and  N_10 
REMARK    2  A    between atoms: N_10  and  C_11 
REMARK    3  A    between atoms: C_11  and  C_12 
REMARK    4  A    between atoms: C_12  and  C_13 
ROOT
HETATM    1  N   UNL     1     -41.632 -52.893  12.071  1.00  0.00    -0.304 N 
HETATM    2  C   UNL     1     -41.183 -51.602  12.203  1.00  0.00     0.320 C 
HETATM    3  O   UNL     1     -41.104 -51.000  13.271  1.00  0.00    -0.247 OA
HETATM    4  N   UNL     1     -40.829 -51.006  11.013  1.00  0.00    -0.343 N 
HETATM    5  H   UNL     1     -41.398 -53.406  11.229  1.00  0.00     0.171 HD
HETATM    6  H   UNL     1     -40.623 -51.600  10.224  1.00  0.00     0.164 HD
ENDROOT
BRANCH   1   7
HETATM    7  C   UNL     1     -42.188 -53.662  13.083  1.00  0.00     0.105 A 
HETATM    8  C   UNL     1     -41.508 -54.201  14.108  1.00  0.00     0.037 A 
HETATM    9  C   UNL     1     -42.160 -54.960  15.142  1.00  0.00     0.020 A 
HETATM   10  C   UNL     1     -43.488 -55.108  15.127  1.00  0.00     0.094 A 
HETATM   11  N   UNL     1     -44.254 -54.568  14.114  1.00  0.00    -0.327 N 
HETATM   12  C   UNL     1     -45.694 -54.753  14.133  1.00  0.00     0.159 C 
HETATM   13  C   UNL     1     -43.690 -53.876  13.037  1.00  0.00     0.274 A 
HETATM   14  O   UNL     1     -44.331 -53.440  12.078  1.00  0.00    -0.266 OA
ENDBRANCH   1   7
BRANCH   4  15
HETATM   15  C   UNL     1     -40.194 -49.703  11.107  1.00  0.00     0.128 C 
BRANCH  15  16
HETATM   16  C   UNL     1     -41.139 -48.508  10.986  1.00  0.00     0.053 C 
BRANCH  16  17
HETATM   17  C   UNL     1     -40.520 -47.225  11.527  1.00  0.00    -0.082 A 
HETATM   18  C   UNL     1     -39.962 -47.181  12.745  1.00  0.00    -0.024 A 
HETATM   19  C   UNL     1     -39.349 -45.971  13.365  1.00  0.00     0.027 A 
HETATM   20  C   UNL     1     -39.329 -44.692  12.536  1.00  0.00     0.004 A 
HETATM   21  C   UNL     1     -39.940 -44.719  11.140  1.00  0.00     0.005 A 
HETATM   22  C   UNL     1     -40.580 -46.014  10.638  1.00  0.00     0.034 A 
ENDBRANCH  16  17
ENDBRANCH  15  16
ENDBRANCH   4  15
TORSDOF 4
ENDMDL
MODEL 7
REMARK VINA RESULT:      -6.0      3.018      7.207
REMARK  4 active torsions:
REMARK  status: ('A' for Active; 'I' for Inactive)
REMARK    1  A    between atoms: C_6  and  N_7 
REMARK       I    between atoms: N_7  and  C_8 
REMARK       I    between atoms: C_8  and  N_10 
REMARK    2  A    between atoms: N_10  and  C_11 
REMARK    3  A    between atoms: C_11  and  C_12 
REMARK    4  A    between atoms: C_12  and  C_13 
ROOT
HETATM    1  N   UNL     1     -41.946 -52.535  11.809  1.00  0.00    -0.304 N 
HETATM    2  C   UNL     1     -41.418 -51.296  12.075  1.00  0.00     0.320 C 
HETATM    3  O   UNL     1     -41.584 -50.681  13.125  1.00  0.00    -0.247 OA
HETATM    4  N   UNL     1     -40.677 -50.768  11.041  1.00  0.00    -0.343 N 
HETATM    5  H   UNL     1     -41.536 -53.089  11.066  1.00  0.00     0.171 HD
HETATM    6  H   UNL     1     -40.319 -51.398  10.340  1.00  0.00     0.164 HD
ENDROOT
BRANCH   1   7
HETATM    7  C   UNL     1     -42.847 -53.219  12.613  1.00  0.00     0.105 A 
HETATM    8  C   UNL     1     -44.174 -53.271  12.416  1.00  0.00     0.037 A 
HETATM    9  C   UNL     1     -45.044 -54.031  13.273  1.00  0.00     0.020 A 
HETATM   10  C   UNL     1     -44.533 -54.751  14.277  1.00  0.00     0.094 A 
HETATM   11  N   UNL     1     -43.176 -54.758  14.530  1.00  0.00    -0.327 N 
HETATM   12  C   UNL     1     -42.660 -55.552  15.630  1.00  0.00     0.159 C 
HETATM   13  C   UNL     1     -42.272 -53.993  13.785  1.00  0.00     0.274 A 
HETATM   14  O   UNL     1     -41.064 -53.917  14.022  1.00  0.00    -0.266 OA
ENDBRANCH   1   7
BRANCH   4  15
HETATM   15  C   UNL     1     -39.960 -49.536  11.324  1.00  0.00     0.128 C 
BRANCH  15  16
HETATM   16  C   UNL     1     -38.463 -49.699  11.585  1.00  0.00     0.053 C 
BRANCH  16  17
HETATM   17  C   UNL     1     -38.096 -49.411  13.036  1.00  0.00    -0.082 A 
HETATM   18  C   UNL     1     -37.477 -50.328  13.792  1.00  0.00    -0.024 A 
HETATM   19  C   UNL     1     -37.095 -50.145  15.222  1.00  0.00     0.027 A 
HETATM   20  C   UNL     1     -37.406 -48.798  15.864  1.00  0.00     0.004 A 
HETATM   21  C   UNL     1     -38.093 -47.731  15.021  1.00  0.00     0.005 A 
HETATM   22  C   UNL     1     -38.476 -48.061  13.578  1.00  0.00     0.034 A 
ENDBRANCH  16  17
ENDBRANCH  15  16
ENDBRANCH   4  15
TORSDOF 4
ENDMDL
MODEL 8
REMARK VINA RESULT:      -6.0      1.769      7.939
REMARK  4 active torsions:
REMARK  status: ('A' for Active; 'I' for Inactive)
REMARK    1  A    between atoms: C_6  and  N_7 
REMARK       I    between atoms: N_7  and  C_8 
REMARK       I    between atoms: C_8  and  N_10 
REMARK    2  A    between atoms: N_10  and  C_11 
REMARK    3  A    between atoms: C_11  and  C_12 
REMARK    4  A    between atoms: C_12  and  C_13 
ROOT
HETATM    1  N   UNL     1     -41.100 -50.953  11.286  1.00  0.00    -0.304 N 
HETATM    2  C   UNL     1     -41.335 -49.632  11.578  1.00  0.00     0.320 C 
HETATM    3  O   UNL     1     -41.694 -49.217  12.677  1.00  0.00    -0.247 OA
HETATM    4  N   UNL     1     -41.147 -48.779  10.513  1.00  0.00    -0.343 N 
HETATM    5  H   UNL     1     -40.540 -51.178  10.471  1.00  0.00     0.171 HD
HETATM    6  H   UNL     1     -40.582 -49.096   9.741  1.00  0.00     0.164 HD
ENDROOT
BRANCH   1   7
HETATM    7  C   UNL     1     -41.358 -52.025  12.127  1.00  0.00     0.105 A 
HETATM    8  C   UNL     1     -42.554 -52.615  12.284  1.00  0.00     0.037 A 
HETATM    9  C   UNL     1     -42.739 -53.748  13.150  1.00  0.00     0.020 A 
HETATM   10  C   UNL     1     -41.693 -54.275  13.796  1.00  0.00     0.094 A 
HETATM   11  N   UNL     1     -40.431 -53.731  13.670  1.00  0.00    -0.327 N 
HETATM   12  C   UNL     1     -39.322 -54.332  14.388  1.00  0.00     0.159 C 
HETATM   13  C   UNL     1     -40.182 -52.589  12.901  1.00  0.00     0.274 A 
HETATM   14  O   UNL     1     -39.084 -52.032  12.819  1.00  0.00    -0.266 OA
ENDBRANCH   1   7
BRANCH   4  15
HETATM   15  C   UNL     1     -41.221 -47.357  10.804  1.00  0.00     0.128 C 
BRANCH  15  16
HETATM   16  C   UNL     1     -39.874 -46.648  10.933  1.00  0.00     0.053 C 
BRANCH  16  17
HETATM   17  C   UNL     1     -39.983 -45.336  11.700  1.00  0.00    -0.082 A 
HETATM   18  C   UNL     1     -39.755 -45.280  13.020  1.00  0.00    -0.024 A 
HETATM   19  C   UNL     1     -39.855 -44.050  13.857  1.00  0.00     0.027 A 
HETATM   20  C   UNL     1     -40.216 -42.748  13.151  1.00  0.00     0.004 A 
HETATM   21  C   UNL     1     -40.462 -42.780  11.647  1.00  0.00     0.005 A 
HETATM   22  C   UNL     1     -40.374 -44.118  10.911  1.00  0.00     0.034 A 
ENDBRANCH  16  17
ENDBRANCH  15  16
ENDBRANCH   4  15
TORSDOF 4
ENDMDL
MODEL 9
REMARK VINA RESULT:      -6.0      1.911      6.962
REMARK  4 active torsions:
REMARK  status: ('A' for Active; 'I' for Inactive)
REMARK    1  A    between atoms: C_6  and  N_7 
REMARK       I    between atoms: N_7  and  C_8 
REMARK       I    between atoms: C_8  and  N_10 
REMARK    2  A    between atoms: N_10  and  C_11 
REMARK    3  A    between atoms: C_11  and  C_12 
REMARK    4  A    between atoms: C_12  and  C_13 
ROOT
HETATM    1  N   UNL     1     -41.241 -51.030  11.261  1.00  0.00    -0.304 N 
HETATM    2  C   UNL     1     -41.363 -49.698  11.571  1.00  0.00     0.320 C 
HETATM    3  O   UNL     1     -41.511 -49.260  12.709  1.00  0.00    -0.247 OA
HETATM    4  N   UNL     1     -41.322 -48.860  10.478  1.00  0.00    -0.343 N 
HETATM    5  H   UNL     1     -40.840 -51.286  10.366  1.00  0.00     0.171 HD
HETATM    6  H   UNL     1     -40.911 -49.208   9.626  1.00  0.00     0.164 HD
ENDROOT
BRANCH   1   7
HETATM    7  C   UNL     1     -41.400 -52.084  12.149  1.00  0.00     0.105 A 
HETATM    8  C   UNL     1     -42.551 -52.739  12.375  1.00  0.00     0.037 A 
HETATM    9  C   UNL     1     -42.632 -53.848  13.286  1.00  0.00     0.020 A 
HETATM   10  C   UNL     1     -41.531 -54.287  13.906  1.00  0.00     0.094 A 
HETATM   11  N   UNL     1     -40.311 -53.673  13.710  1.00  0.00    -0.327 N 
HETATM   12  C   UNL     1     -39.140 -54.180  14.402  1.00  0.00     0.159 C 
HETATM   13  C   UNL     1     -40.162 -52.548  12.893  1.00  0.00     0.274 A 
HETATM   14  O   UNL     1     -39.105 -51.929  12.747  1.00  0.00    -0.266 OA
ENDBRANCH   1   7
BRANCH   4  15
HETATM   15  C   UNL     1     -41.281 -47.435  10.758  1.00  0.00     0.128 C 
BRANCH  15  16
HETATM   16  C   UNL     1     -42.642 -46.743  10.811  1.00  0.00     0.053 C 
BRANCH  16  17
HETATM   17  C   UNL     1     -43.614 -47.300   9.779  1.00  0.00    -0.082 A 
HETATM   18  C   UNL     1     -44.906 -47.501  10.076  1.00  0.00    -0.024 A 
HETATM   19  C   UNL     1     -45.925 -48.057   9.141  1.00  0.00     0.027 A 
HETATM   20  C   UNL     1     -45.469 -48.397   7.727  1.00  0.00     0.004 A 
HETATM   21  C   UNL     1     -44.009 -48.162   7.357  1.00  0.00     0.005 A 
HETATM   22  C   UNL     1     -43.052 -47.629   8.424  1.00  0.00     0.034 A 
ENDBRANCH  16  17
ENDBRANCH  15  16
ENDBRANCH   4  15
TORSDOF 4
ENDMDL
