MODEL 1
REMARK VINA RESULT:      -6.4      0.000      0.000
REMARK  4 active torsions:
REMARK  status: ('A' for Active; 'I' for Inactive)
REMARK       I    between atoms: C_2  and  N_3 
REMARK       I    between atoms: C_2  and  N_13 
REMARK    1  A    between atoms: N_3  and  C_4 
REMARK    2  A    between atoms: C_4  and  C_5 
REMARK    3  A    between atoms: C_5  and  C_6 
REMARK    4  A    between atoms: N_16  and  C_19 
ROOT
HETATM    1  O   UNL     1     -38.848 -53.405  13.645  1.00  0.00    -0.247 OA
HETATM    2  C   UNL     1     -39.423 -52.342  13.856  1.00  0.00     0.318 C 
HETATM    3  N   UNL     1     -38.829 -51.123  13.649  1.00  0.00    -0.343 N 
HETATM    4  N   UNL     1     -40.721 -52.249  14.320  1.00  0.00    -0.331 N 
HETATM    5  C   UNL     1     -41.432 -53.464  14.732  1.00  0.00     0.158 C 
HETATM    6  C   UNL     1     -42.725 -53.695  13.921  1.00  0.00     0.293 C 
HETATM    7  N   UNL     1     -43.611 -52.507  13.806  1.00  0.00     0.096 N 
HETATM    8  C   UNL     1     -42.793 -51.393  13.268  1.00  0.00     0.293 C 
HETATM    9  C   UNL     1     -41.563 -51.061  14.134  1.00  0.00     0.158 C 
HETATM   10  H   UNL     1     -39.038 -50.462  14.383  1.00  0.00     0.164 HD
ENDROOT
BRANCH   3  11
HETATM   11  C   UNL     1     -37.509 -51.018  13.063  1.00  0.00     0.129 C 
BRANCH  11  12
HETATM   12  C   UNL     1     -37.525 -50.203  11.767  1.00  0.00     0.060 C 
BRANCH  12  13
HETATM   13  C   UNL     1     -38.804 -49.437  11.607  1.00  0.00    -0.041 A 
HETATM   14  C   UNL     1     -38.977 -48.190  12.209  1.00  0.00     0.010 A 
HETATM   15  C   UNL     1     -40.178 -47.508  12.041  1.00  0.00     0.018 A 
HETATM   16  C   UNL     1     -41.169 -48.104  11.281  1.00  0.00     0.087 A 
HETATM   17  N   UNL     1     -41.043 -49.315  10.696  1.00  0.00    -0.375 N 
HETATM   18  C   UNL     1     -39.866 -49.951  10.870  1.00  0.00     0.094 A 
ATOM     19  HN  UNL     1     -41.800 -49.727  10.150  1.00  0.00     0.164 HD
ENDBRANCH  12  13
ENDBRANCH  11  12
ENDBRANCH   3  11
BRANCH   7  20
HETATM   20  C   UNL     1     -44.261 -52.151  15.078  1.00  0.00     0.227 C 
HETATM   21  C   UNL     1     -44.997 -53.323  15.775  1.00  0.00     0.041 C 
HETATM   22  C   UNL     1     -46.393 -52.746  16.062  1.00  0.00    -0.012 C 
HETATM   23  C   UNL     1     -47.169 -52.686  14.734  1.00  0.00     0.005 C 
HETATM   24  C   UNL     1     -46.096 -51.272  16.320  1.00  0.00     0.011 C 
HETATM   25  C   UNL     1     -46.488 -51.532  13.989  1.00  0.00     0.007 C 
HETATM   26  C   UNL     1     -45.391 -51.086  14.975  1.00  0.00     0.019 C 
ENDBRANCH   7  20
TORSDOF 4
ENDMDL
MODEL 2
REMARK VINA RESULT:      -6.3      2.169      7.377
REMARK  4 active torsions:
REMARK  status: ('A' for Active; 'I' for Inactive)
REMARK       I    between atoms: C_2  and  N_3 
REMARK       I    between atoms: C_2  and  N_13 
REMARK    1  A    between atoms: N_3  and  C_4 
REMARK    2  A    between atoms: C_4  and  C_5 
REMARK    3  A    between atoms: C_5  and  C_6 
REMARK    4  A    between atoms: N_16  and  C_19 
ROOT
HETATM    1  O   UNL     1     -40.424 -52.402  12.138  1.00  0.00    -0.247 OA
HETATM    2  C   UNL     1     -41.397 -51.654  12.112  1.00  0.00     0.318 C 
HETATM    3  N   UNL     1     -42.674 -52.088  12.363  1.00  0.00    -0.343 N 
HETATM    4  N   UNL     1     -41.320 -50.304  11.828  1.00  0.00    -0.331 N 
HETATM    5  C   UNL     1     -40.045 -49.727  11.389  1.00  0.00     0.158 C 
HETATM    6  C   UNL     1     -39.547 -48.610  12.331  1.00  0.00     0.293 C 
HETATM    7  N   UNL     1     -40.567 -47.585  12.678  1.00  0.00     0.096 N 
HETATM    8  C   UNL     1     -41.750 -48.299  13.217  1.00  0.00     0.293 C 
HETATM    9  C   UNL     1     -42.341 -49.332  12.239  1.00  0.00     0.158 C 
HETATM   10  H   UNL     1     -43.350 -51.683  11.733  1.00  0.00     0.164 HD
ENDROOT
BRANCH   3  11
HETATM   11  C   UNL     1     -42.939 -53.447  12.784  1.00  0.00     0.129 C 
BRANCH  11  12
HETATM   12  C   UNL     1     -44.404 -53.834  12.568  1.00  0.00     0.060 C 
BRANCH  12  13
HETATM   13  C   UNL     1     -45.293 -53.261  13.631  1.00  0.00    -0.041 A 
HETATM   14  C   UNL     1     -46.016 -52.088  13.410  1.00  0.00     0.010 A 
HETATM   15  C   UNL     1     -46.829 -51.583  14.419  1.00  0.00     0.018 A 
HETATM   16  C   UNL     1     -46.885 -52.268  15.620  1.00  0.00     0.087 A 
HETATM   17  N   UNL     1     -46.189 -53.397  15.876  1.00  0.00    -0.375 N 
HETATM   18  C   UNL     1     -45.412 -53.868  14.877  1.00  0.00     0.094 A 
ATOM     19  HN  UNL     1     -46.248 -53.870  16.778  1.00  0.00     0.164 HD
ENDBRANCH  12  13
ENDBRANCH  11  12
ENDBRANCH   3  11
BRANCH   7  20
HETATM   20  C   UNL     1     -40.917 -46.717  11.542  1.00  0.00     0.227 C 
HETATM   21  C   UNL     1     -39.704 -46.059  10.836  1.00  0.00     0.041 C 
HETATM   22  C   UNL     1     -40.084 -44.569  10.790  1.00  0.00    -0.012 C 
HETATM   23  C   UNL     1     -39.923 -43.991  12.208  1.00  0.00     0.005 C 
HETATM   24  C   UNL     1     -41.601 -44.618  10.640  1.00  0.00     0.011 C 
HETATM   25  C   UNL     1     -41.107 -44.604  12.966  1.00  0.00     0.007 C 
HETATM   26  C   UNL     1     -41.787 -45.475  11.893  1.00  0.00     0.019 C 
ENDBRANCH   7  20
TORSDOF 4
ENDMDL
MODEL 3
REMARK VINA RESULT:      -6.1      2.606      6.641
REMARK  4 active torsions:
REMARK  status: ('A' for Active; 'I' for Inactive)
REMARK       I    between atoms: C_2  and  N_3 
REMARK       I    between atoms: C_2  and  N_13 
REMARK    1  A    between atoms: N_3  and  C_4 
REMARK    2  A    between atoms: C_4  and  C_5 
REMARK    3  A    between atoms: C_5  and  C_6 
REMARK    4  A    between atoms: N_16  and  C_19 
ROOT
HETATM    1  O   UNL     1     -39.270 -50.653  15.955  1.00  0.00    -0.247 OA
HETATM    2  C   UNL     1     -39.230 -50.650  14.729  1.00  0.00     0.318 C 
HETATM    3  N   UNL     1     -39.092 -51.796  13.987  1.00  0.00    -0.343 N 
HETATM    4  N   UNL     1     -39.318 -49.505  13.960  1.00  0.00    -0.331 N 
HETATM    5  C   UNL     1     -39.314 -48.192  14.614  1.00  0.00     0.158 C 
HETATM    6  C   UNL     1     -40.589 -47.377  14.308  1.00  0.00     0.293 C 
HETATM    7  N   UNL     1     -40.961 -47.316  12.869  1.00  0.00     0.096 N 
HETATM    8  C   UNL     1     -41.044 -48.711  12.373  1.00  0.00     0.293 C 
HETATM    9  C   UNL     1     -39.737 -49.505  12.553  1.00  0.00     0.158 C 
HETATM   10  H   UNL     1     -38.456 -51.679  13.211  1.00  0.00     0.164 HD
ENDROOT
BRANCH   3  11
HETATM   11  C   UNL     1     -39.092 -53.102  14.612  1.00  0.00     0.129 C 
BRANCH  11  12
HETATM   12  C   UNL     1     -39.696 -54.170  13.696  1.00  0.00     0.060 C 
BRANCH  12  13
HETATM   13  C   UNL     1     -41.091 -53.819  13.275  1.00  0.00    -0.041 A 
HETATM   14  C   UNL     1     -42.198 -54.326  13.958  1.00  0.00     0.010 A 
HETATM   15  C   UNL     1     -43.479 -53.982  13.539  1.00  0.00     0.018 A 
HETATM   16  C   UNL     1     -43.608 -53.146  12.443  1.00  0.00     0.087 A 
HETATM   17  N   UNL     1     -42.561 -52.648  11.749  1.00  0.00    -0.375 N 
HETATM   18  C   UNL     1     -41.330 -52.994  12.181  1.00  0.00     0.094 A 
ATOM     19  HN  UNL     1     -42.695 -52.042  10.940  1.00  0.00     0.164 HD
ENDBRANCH  12  13
ENDBRANCH  11  12
ENDBRANCH   3  11
BRANCH   7  20
HETATM   20  C   UNL     1     -40.033 -46.499  12.071  1.00  0.00     0.227 C 
HETATM   21  C   UNL     1     -39.735 -45.098  12.662  1.00  0.00     0.041 C 
HETATM   22  C   UNL     1     -39.995 -44.150  11.479  1.00  0.00    -0.012 C 
HETATM   23  C   UNL     1     -41.517 -44.044  11.275  1.00  0.00     0.005 C 
HETATM   24  C   UNL     1     -39.574 -44.994  10.280  1.00  0.00     0.011 C 
HETATM   25  C   UNL     1     -41.880 -45.411  10.681  1.00  0.00     0.007 C 
HETATM   26  C   UNL     1     -40.523 -46.139  10.638  1.00  0.00     0.019 C 
ENDBRANCH   7  20
TORSDOF 4
ENDMDL
MODEL 4
REMARK VINA RESULT:      -5.8      1.837      7.158
REMARK  4 active torsions:
REMARK  status: ('A' for Active; 'I' for Inactive)
REMARK       I    between atoms: C_2  and  N_3 
REMARK       I    between atoms: C_2  and  N_13 
REMARK    1  A    between atoms: N_3  and  C_4 
REMARK    2  A    between atoms: C_4  and  C_5 
REMARK    3  A    between atoms: C_5  and  C_6 
REMARK    4  A    between atoms: N_16  and  C_19 
ROOT
HETATM    1  O   UNL     1     -43.175 -55.268  15.206  1.00  0.00    -0.247 OA
HETATM    2  C   UNL     1     -43.306 -54.453  14.298  1.00  0.00     0.318 C 
HETATM    3  N   UNL     1     -44.489 -54.275  13.626  1.00  0.00    -0.343 N 
HETATM    4  N   UNL     1     -42.290 -53.630  13.852  1.00  0.00    -0.331 N 
HETATM    5  C   UNL     1     -40.930 -53.812  14.369  1.00  0.00     0.158 C 
HETATM    6  C   UNL     1     -40.389 -52.546  15.068  1.00  0.00     0.293 C 
HETATM    7  N   UNL     1     -40.561 -51.286  14.297  1.00  0.00     0.096 N 
HETATM    8  C   UNL     1     -41.997 -51.173  13.945  1.00  0.00     0.293 C 
HETATM    9  C   UNL     1     -42.526 -52.371  13.134  1.00  0.00     0.158 C 
HETATM   10  H   UNL     1     -44.354 -54.161  12.632  1.00  0.00     0.164 HD
ENDROOT
BRANCH   3  11
HETATM   11  C   UNL     1     -45.694 -54.971  14.024  1.00  0.00     0.129 C 
BRANCH  11  12
HETATM   12  C   UNL     1     -46.808 -53.999  14.420  1.00  0.00     0.060 C 
BRANCH  12  13
HETATM   13  C   UNL     1     -46.367 -53.058  15.501  1.00  0.00    -0.041 A 
HETATM   14  C   UNL     1     -46.273 -51.686  15.266  1.00  0.00     0.010 A 
HETATM   15  C   UNL     1     -45.858 -50.841  16.291  1.00  0.00     0.018 A 
HETATM   16  C   UNL     1     -45.543 -51.403  17.516  1.00  0.00     0.087 A 
HETATM   17  N   UNL     1     -45.608 -52.727  17.776  1.00  0.00    -0.375 N 
HETATM   18  C   UNL     1     -46.020 -53.522  16.765  1.00  0.00     0.094 A 
ATOM     19  HN  UNL     1     -45.359 -53.107  18.689  1.00  0.00     0.164 HD
ENDBRANCH  12  13
ENDBRANCH  11  12
ENDBRANCH   3  11
BRANCH   7  20
HETATM   20  C   UNL     1     -39.693 -51.218  13.111  1.00  0.00     0.227 C 
HETATM   21  C   UNL     1     -38.183 -51.400  13.405  1.00  0.00     0.041 C 
HETATM   22  C   UNL     1     -37.535 -50.194  12.702  1.00  0.00    -0.012 C 
HETATM   23  C   UNL     1     -37.829 -48.938  13.541  1.00  0.00     0.005 C 
HETATM   24  C   UNL     1     -38.444 -49.987  11.495  1.00  0.00     0.011 C 
HETATM   25  C   UNL     1     -39.322 -48.696  13.289  1.00  0.00     0.007 C 
HETATM   26  C   UNL     1     -39.704 -49.858  12.353  1.00  0.00     0.019 C 
ENDBRANCH   7  20
TORSDOF 4
ENDMDL
MODEL 5
REMARK VINA RESULT:      -5.6      3.123      4.632
REMARK  4 active torsions:
REMARK  status: ('A' for Active; 'I' for Inactive)
REMARK       I    between atoms: C_2  and  N_3 
REMARK       I    between atoms: C_2  and  N_13 
REMARK    1  A    between atoms: N_3  and  C_4 
REMARK    2  A    between atoms: C_4  and  C_5 
REMARK    3  A    between atoms: C_5  and  C_6 
REMARK    4  A    between atoms: N_16  and  C_19 
ROOT
HETATM    1  O   UNL     1     -42.402 -46.647  15.251  1.00  0.00    -0.247 OA
HETATM    2  C   UNL     1     -42.779 -47.244  14.247  1.00  0.00     0.318 C 
HETATM    3  N   UNL     1     -42.918 -46.631  13.028  1.00  0.00    -0.343 N 
HETATM    4  N   UNL     1     -43.101 -48.587  14.227  1.00  0.00    -0.331 N 
HETATM    5  C   UNL     1     -43.149 -49.340  15.485  1.00  0.00     0.158 C 
HETATM    6  C   UNL     1     -42.165 -50.529  15.498  1.00  0.00     0.293 C 
HETATM    7  N   UNL     1     -42.219 -51.397  14.292  1.00  0.00     0.096 N 
HETATM    8  C   UNL     1     -42.040 -50.524  13.108  1.00  0.00     0.293 C 
HETATM    9  C   UNL     1     -43.092 -49.403  13.007  1.00  0.00     0.158 C 
HETATM   10  H   UNL     1     -43.753 -46.924  12.541  1.00  0.00     0.164 HD
ENDROOT
BRANCH   3  11
HETATM   11  C   UNL     1     -42.524 -45.252  12.828  1.00  0.00     0.129 C 
BRANCH  11  12
HETATM   12  C   UNL     1     -41.838 -45.046  11.475  1.00  0.00     0.060 C 
BRANCH  12  13
HETATM   13  C   UNL     1     -42.422 -45.930  10.415  1.00  0.00    -0.041 A 
HETATM   14  C   UNL     1     -43.492 -45.501   9.629  1.00  0.00     0.010 A 
HETATM   15  C   UNL     1     -44.011 -46.348   8.656  1.00  0.00     0.018 A 
HETATM   16  C   UNL     1     -43.445 -47.602   8.508  1.00  0.00     0.087 A 
HETATM   17  N   UNL     1     -42.419 -48.058   9.259  1.00  0.00    -0.375 N 
HETATM   18  C   UNL     1     -41.931 -47.213  10.192  1.00  0.00     0.094 A 
ATOM     19  HN  UNL     1     -42.033 -48.993   9.129  1.00  0.00     0.164 HD
ENDBRANCH  12  13
ENDBRANCH  11  12
ENDBRANCH   3  11
BRANCH   7  20
HETATM   20  C   UNL     1     -43.456 -52.191  14.212  1.00  0.00     0.227 C 
HETATM   21  C   UNL     1     -43.872 -52.872  15.540  1.00  0.00     0.041 C 
HETATM   22  C   UNL     1     -44.101 -54.337  15.132  1.00  0.00    -0.012 C 
HETATM   23  C   UNL     1     -42.726 -54.991  14.908  1.00  0.00     0.005 C 
HETATM   24  C   UNL     1     -44.624 -54.207  13.706  1.00  0.00     0.011 C 
HETATM   25  C   UNL     1     -42.254 -54.359  13.593  1.00  0.00     0.007 C 
HETATM   26  C   UNL     1     -43.409 -53.404  13.237  1.00  0.00     0.019 C 
ENDBRANCH   7  20
TORSDOF 4
ENDMDL
MODEL 6
REMARK VINA RESULT:      -5.6      2.850      7.606
REMARK  4 active torsions:
REMARK  status: ('A' for Active; 'I' for Inactive)
REMARK       I    between atoms: C_2  and  N_3 
REMARK       I    between atoms: C_2  and  N_13 
REMARK    1  A    between atoms: N_3  and  C_4 
REMARK    2  A    between atoms: C_4  and  C_5 
REMARK    3  A    between atoms: C_5  and  C_6 
REMARK    4  A    between atoms: N_16  and  C_19 
ROOT
HETATM    1  O   UNL     1     -39.571 -50.704  12.120  1.00  0.00    -0.247 OA
HETATM    2  C   UNL     1     -40.668 -50.190  11.925  1.00  0.00     0.318 C 
HETATM    3  N   UNL     1     -41.825 -50.922  11.833  1.00  0.00    -0.343 N 
HETATM    4  N   UNL     1     -40.864 -48.830  11.779  1.00  0.00    -0.331 N 
HETATM    5  C   UNL     1     -39.705 -47.935  11.701  1.00  0.00     0.158 C 
HETATM    6  C   UNL     1     -39.703 -46.873  12.821  1.00  0.00     0.293 C 
HETATM    7  N   UNL     1     -40.991 -46.151  13.000  1.00  0.00     0.096 N 
HETATM    8  C   UNL     1     -42.050 -47.172  13.185  1.00  0.00     0.293 C 
HETATM    9  C   UNL     1     -42.154 -48.169  12.015  1.00  0.00     0.158 C 
HETATM   10  H   UNL     1     -42.432 -50.593  11.096  1.00  0.00     0.164 HD
ENDROOT
BRANCH   3  11
HETATM   11  C   UNL     1     -41.834 -52.350  12.067  1.00  0.00     0.129 C 
BRANCH  11  12
HETATM   12  C   UNL     1     -41.930 -52.681  13.559  1.00  0.00     0.060 C 
BRANCH  12  13
HETATM   13  C   UNL     1     -43.229 -53.349  13.898  1.00  0.00    -0.041 A 
HETATM   14  C   UNL     1     -43.995 -53.975  12.914  1.00  0.00     0.010 A 
HETATM   15  C   UNL     1     -45.197 -54.583  13.263  1.00  0.00     0.018 A 
HETATM   16  C   UNL     1     -45.595 -54.535  14.587  1.00  0.00     0.087 A 
HETATM   17  N   UNL     1     -44.888 -53.926  15.564  1.00  0.00    -0.375 N 
HETATM   18  C   UNL     1     -43.723 -53.350  15.198  1.00  0.00     0.094 A 
ATOM     19  HN  UNL     1     -45.217 -53.903  16.529  1.00  0.00     0.164 HD
ENDBRANCH  12  13
ENDBRANCH  11  12
ENDBRANCH   3  11
BRANCH   7  20
HETATM   20  C   UNL     1     -41.294 -45.236  11.888  1.00  0.00     0.227 C 
HETATM   21  C   UNL     1     -40.084 -44.410  11.384  1.00  0.00     0.041 C 
HETATM   22  C   UNL     1     -40.612 -42.966  11.388  1.00  0.00    -0.012 C 
HETATM   23  C   UNL     1     -40.682 -42.486  12.849  1.00  0.00     0.005 C 
HETATM   24  C   UNL     1     -42.087 -43.151  11.045  1.00  0.00     0.011 C 
HETATM   25  C   UNL     1     -41.875 -43.269  13.411  1.00  0.00     0.007 C 
HETATM   26  C   UNL     1     -42.328 -44.117  12.207  1.00  0.00     0.019 C 
ENDBRANCH   7  20
TORSDOF 4
ENDMDL
MODEL 7
REMARK VINA RESULT:      -5.6      2.611      7.303
REMARK  4 active torsions:
REMARK  status: ('A' for Active; 'I' for Inactive)
REMARK       I    between atoms: C_2  and  N_3 
REMARK       I    between atoms: C_2  and  N_13 
REMARK    1  A    between atoms: N_3  and  C_4 
REMARK    2  A    between atoms: C_4  and  C_5 
REMARK    3  A    between atoms: C_5  and  C_6 
REMARK    4  A    between atoms: N_16  and  C_19 
ROOT
HETATM    1  O   UNL     1     -44.735 -48.849  17.345  1.00  0.00    -0.247 OA
HETATM    2  C   UNL     1     -44.373 -49.876  16.781  1.00  0.00     0.318 C 
HETATM    3  N   UNL     1     -45.136 -51.016  16.750  1.00  0.00    -0.343 N 
HETATM    4  N   UNL     1     -43.168 -50.004  16.118  1.00  0.00    -0.331 N 
HETATM    5  C   UNL     1     -42.180 -48.923  16.195  1.00  0.00     0.158 C 
HETATM    6  C   UNL     1     -41.821 -48.351  14.806  1.00  0.00     0.293 C 
HETATM    7  N   UNL     1     -41.495 -49.372  13.776  1.00  0.00     0.096 N 
HETATM    8  C   UNL     1     -42.627 -50.328  13.723  1.00  0.00     0.293 C 
HETATM    9  C   UNL     1     -42.921 -51.007  15.074  1.00  0.00     0.158 C 
HETATM   10  H   UNL     1     -44.588 -51.852  16.892  1.00  0.00     0.164 HD
ENDROOT
BRANCH   3  11
HETATM   11  C   UNL     1     -46.476 -51.040  17.298  1.00  0.00     0.129 C 
BRANCH  11  12
HETATM   12  C   UNL     1     -47.514 -51.440  16.246  1.00  0.00     0.060 C 
BRANCH  12  13
HETATM   13  C   UNL     1     -46.873 -52.049  15.035  1.00  0.00    -0.041 A 
HETATM   14  C   UNL     1     -46.532 -51.267  13.932  1.00  0.00     0.010 A 
HETATM   15  C   UNL     1     -45.941 -51.865  12.823  1.00  0.00     0.018 A 
HETATM   16  C   UNL     1     -45.720 -53.231  12.856  1.00  0.00     0.087 A 
HETATM   17  N   UNL     1     -46.050 -54.022  13.900  1.00  0.00    -0.375 N 
HETATM   18  C   UNL     1     -46.616 -53.414  14.964  1.00  0.00     0.094 A 
ATOM     19  HN  UNL     1     -45.880 -55.028  13.884  1.00  0.00     0.164 HD
ENDBRANCH  12  13
ENDBRANCH  11  12
ENDBRANCH   3  11
BRANCH   7  20
HETATM   20  C   UNL     1     -40.212 -50.049  14.026  1.00  0.00     0.227 C 
HETATM   21  C   UNL     1     -39.013 -49.094  14.253  1.00  0.00     0.041 C 
HETATM   22  C   UNL     1     -37.948 -49.621  13.276  1.00  0.00    -0.012 C 
HETATM   23  C   UNL     1     -38.361 -49.209  11.852  1.00  0.00     0.005 C 
HETATM   24  C   UNL     1     -38.223 -51.121  13.263  1.00  0.00     0.011 C 
HETATM   25  C   UNL     1     -39.552 -50.129  11.559  1.00  0.00     0.007 C 
HETATM   26  C   UNL     1     -39.689 -50.939  12.862  1.00  0.00     0.019 C 
ENDBRANCH   7  20
TORSDOF 4
ENDMDL
MODEL 8
REMARK VINA RESULT:      -5.5     16.265     17.489
REMARK  4 active torsions:
REMARK  status: ('A' for Active; 'I' for Inactive)
REMARK       I    between atoms: C_2  and  N_3 
REMARK       I    between atoms: C_2  and  N_13 
REMARK    1  A    between atoms: N_3  and  C_4 
REMARK    2  A    between atoms: C_4  and  C_5 
REMARK    3  A    between atoms: C_5  and  C_6 
REMARK    4  A    between atoms: N_16  and  C_19 
ROOT
HETATM    1  O   UNL     1     -46.086 -50.275  -3.414  1.00  0.00    -0.247 OA
HETATM    2  C   UNL     1     -47.083 -49.827  -2.858  1.00  0.00     0.318 C 
HETATM    3  N   UNL     1     -47.208 -48.505  -2.511  1.00  0.00    -0.343 N 
HETATM    4  N   UNL     1     -48.184 -50.590  -2.522  1.00  0.00    -0.331 N 
HETATM    5  C   UNL     1     -48.135 -52.046  -2.691  1.00  0.00     0.158 C 
HETATM    6  C   UNL     1     -49.229 -52.566  -3.648  1.00  0.00     0.293 C 
HETATM    7  N   UNL     1     -50.597 -52.053  -3.370  1.00  0.00     0.096 N 
HETATM    8  C   UNL     1     -50.519 -50.573  -3.345  1.00  0.00     0.293 C 
HETATM    9  C   UNL     1     -49.523 -50.028  -2.304  1.00  0.00     0.158 C 
HETATM   10  H   UNL     1     -47.626 -48.384  -1.599  1.00  0.00     0.164 HD
ENDROOT
BRANCH   3  11
HETATM   11  C   UNL     1     -46.203 -47.531  -2.878  1.00  0.00     0.129 C 
BRANCH  11  12
HETATM   12  C   UNL     1     -45.307 -47.162  -1.693  1.00  0.00     0.060 C 
BRANCH  12  13
HETATM   13  C   UNL     1     -43.852 -47.291  -2.033  1.00  0.00    -0.041 A 
HETATM   14  C   UNL     1     -42.875 -46.662  -1.261  1.00  0.00     0.010 A 
HETATM   15  C   UNL     1     -41.534 -46.800  -1.607  1.00  0.00     0.018 A 
HETATM   16  C   UNL     1     -41.219 -47.558  -2.721  1.00  0.00     0.087 A 
HETATM   17  N   UNL     1     -42.138 -48.169  -3.500  1.00  0.00    -0.375 N 
HETATM   18  C   UNL     1     -43.431 -48.023  -3.138  1.00  0.00     0.094 A 
ATOM     19  HN  UNL     1     -41.869 -48.712  -4.320  1.00  0.00     0.164 HD
ENDBRANCH  12  13
ENDBRANCH  11  12
ENDBRANCH   3  11
BRANCH   7  20
HETATM   20  C   UNL     1     -51.172 -52.597  -2.130  1.00  0.00     0.227 C 
HETATM   21  C   UNL     1     -50.930 -54.113  -1.918  1.00  0.00     0.041 C 
HETATM   22  C   UNL     1     -52.337 -54.660  -1.618  1.00  0.00    -0.012 C 
HETATM   23  C   UNL     1     -53.129 -54.691  -2.938  1.00  0.00     0.005 C 
HETATM   24  C   UNL     1     -52.995 -53.497  -0.882  1.00  0.00     0.011 C 
HETATM   25  C   UNL     1     -53.408 -53.207  -3.206  1.00  0.00     0.007 C 
HETATM   26  C   UNL     1     -52.723 -52.508  -2.017  1.00  0.00     0.019 C 
ENDBRANCH   7  20
TORSDOF 4
ENDMDL
MODEL 9
REMARK VINA RESULT:      -5.5      3.947      6.584
REMARK  4 active torsions:
REMARK  status: ('A' for Active; 'I' for Inactive)
REMARK       I    between atoms: C_2  and  N_3 
REMARK       I    between atoms: C_2  and  N_13 
REMARK    1  A    between atoms: N_3  and  C_4 
REMARK    2  A    between atoms: C_4  and  C_5 
REMARK    3  A    between atoms: C_5  and  C_6 
REMARK    4  A    between atoms: N_16  and  C_19 
ROOT
HETATM    1  O   UNL     1     -46.042 -54.738  16.973  1.00  0.00    -0.247 OA
HETATM    2  C   UNL     1     -45.907 -53.583  16.582  1.00  0.00     0.318 C 
HETATM    3  N   UNL     1     -45.492 -53.273  15.312  1.00  0.00    -0.343 N 
HETATM    4  N   UNL     1     -46.156 -52.473  17.366  1.00  0.00    -0.331 N 
HETATM    5  C   UNL     1     -46.459 -52.645  18.790  1.00  0.00     0.158 C 
HETATM    6  C   UNL     1     -47.840 -52.072  19.174  1.00  0.00     0.293 C 
HETATM    7  N   UNL     1     -48.104 -50.694  18.679  1.00  0.00     0.096 N 
HETATM    8  C   UNL     1     -47.874 -50.697  17.214  1.00  0.00     0.293 C 
HETATM    9  C   UNL     1     -46.456 -51.145  16.816  1.00  0.00     0.158 C 
HETATM   10  H   UNL     1     -44.832 -52.508  15.297  1.00  0.00     0.164 HD
ENDROOT
BRANCH   3  11
HETATM   11  C   UNL     1     -45.286 -54.301  14.314  1.00  0.00     0.129 C 
BRANCH  11  12
HETATM   12  C   UNL     1     -43.869 -54.877  14.373  1.00  0.00     0.060 C 
BRANCH  12  13
HETATM   13  C   UNL     1     -42.911 -54.083  13.536  1.00  0.00    -0.041 A 
HETATM   14  C   UNL     1     -41.534 -54.158  13.753  1.00  0.00     0.010 A 
HETATM   15  C   UNL     1     -40.673 -53.405  12.960  1.00  0.00     0.018 A 
HETATM   16  C   UNL     1     -41.223 -52.597  11.981  1.00  0.00     0.087 A 
HETATM   17  N   UNL     1     -42.550 -52.488  11.752  1.00  0.00    -0.375 N 
HETATM   18  C   UNL     1     -43.361 -53.233  12.532  1.00  0.00     0.094 A 
ATOM     19  HN  UNL     1     -42.919 -51.873  11.027  1.00  0.00     0.164 HD
ENDBRANCH  12  13
ENDBRANCH  11  12
ENDBRANCH   3  11
BRANCH   7  20
HETATM   20  C   UNL     1     -47.292 -49.675  19.364  1.00  0.00     0.227 C 
HETATM   21  C   UNL     1     -47.646 -49.466  20.858  1.00  0.00     0.041 C 
HETATM   22  C   UNL     1     -47.833 -47.943  20.970  1.00  0.00    -0.012 C 
HETATM   23  C   UNL     1     -49.177 -47.577  20.316  1.00  0.00     0.005 C 
HETATM   24  C   UNL     1     -46.830 -47.411  19.952  1.00  0.00     0.011 C 
HETATM   25  C   UNL     1     -48.893 -47.759  18.820  1.00  0.00     0.007 C 
HETATM   26  C   UNL     1     -47.426 -48.229  18.804  1.00  0.00     0.019 C 
ENDBRANCH   7  20
TORSDOF 4
ENDMDL
