MODEL 1
REMARK VINA RESULT:      -6.4      0.000      0.000
REMARK  7 active torsions:
REMARK  status: ('A' for Active; 'I' for Inactive)
REMARK    1  A    between atoms: N_2  and  C_10 
REMARK    2  A    between atoms: C_3  and  N_7 
REMARK    3  A    between atoms: C_9  and  C_10 
REMARK    4  A    between atoms: C_9  and  O_21 
REMARK    5  A    between atoms: C_16  and  C_24 
REMARK    6  A    between atoms: C_24  and  C_28 
REMARK    7  A    between atoms: O_26  and  C_28 
ROOT
HETATM    1  C   UNL     1     -42.407 -49.274  12.234  1.00  0.00     0.122 A 
HETATM    2  N   UNL     1     -42.333 -50.798  13.811  1.00  0.00    -0.324 N 
HETATM    3  C   UNL     1     -41.899 -48.587  11.101  1.00  0.00     0.136 A 
HETATM    4  C   UNL     1     -41.709 -50.393  12.663  1.00  0.00     0.140 A 
HETATM    5  N   UNL     1     -43.487 -49.048  13.078  1.00  0.00    -0.346 N 
ATOM      6  HN  UNL     1     -44.203 -48.328  12.985  1.00  0.00     0.167 HD
HETATM    7  C   UNL     1     -43.391 -49.958  14.022  1.00  0.00     0.185 A 
HETATM    8  N   UNL     1     -40.778 -49.129  10.528  1.00  0.00    -0.337 N 
ATOM      9  HN  UNL     1     -40.355 -48.678   9.716  1.00  0.00     0.168 HD
HETATM   10  N   UNL     1     -40.631 -50.958  12.101  1.00  0.00    -0.336 N 
ATOM     11  HN  UNL     1     -40.178 -51.806  12.440  1.00  0.00     0.168 HD
HETATM   12  C   UNL     1     -40.232 -50.253  11.030  1.00  0.00     0.183 A 
ENDROOT
BRANCH   3  13
HETATM   13  N   UNL     1     -42.440 -47.451  10.518  1.00  0.00    -0.356 N 
HETATM   14  C   UNL     1     -43.482 -47.516   9.471  1.00  0.00     0.111 C 
HETATM   15  C   UNL     1     -43.348 -46.226   8.617  1.00  0.00     0.193 C 
HETATM   16  O   UNL     1     -43.515 -45.048   9.424  1.00  0.00    -0.388 OA
HETATM   17  C   UNL     1     -42.466 -44.978  10.402  1.00  0.00     0.187 C 
HETATM   18  C   UNL     1     -42.419 -46.215  11.317  1.00  0.00     0.151 C 
BRANCH  14  19
HETATM   19  C   UNL     1     -44.898 -47.661  10.068  1.00  0.00     0.053 C 
BRANCH  19  20
HETATM   20  C   UNL     1     -45.973 -47.403   9.013  1.00  0.00     0.169 C 
BRANCH  20  21
HETATM   21  O   UNL     1     -46.759 -48.575   8.803  1.00  0.00    -0.396 OA
HETATM   22  C   UNL     1     -46.471 -49.148   7.530  1.00  0.00     0.201 C 
ENDBRANCH  20  21
ENDBRANCH  19  20
ENDBRANCH  14  19
ENDBRANCH   3  13
BRANCH   2  23
HETATM   23  C   UNL     1     -41.860 -51.825  14.716  1.00  0.00     0.172 C 
BRANCH  23  24
HETATM   24  C   UNL     1     -42.243 -53.264  14.334  1.00  0.00     0.102 C 
HETATM   25  C   UNL     1     -43.725 -53.474  13.960  1.00  0.00     0.153 C 
HETATM   26  O   UNL     1     -44.102 -54.790  14.430  1.00  0.00    -0.383 OA
HETATM   27  C   UNL     1     -44.054 -53.408  12.477  1.00  0.00     0.042 C 
HETATM   28  C   UNL     1     -42.982 -55.357  15.119  1.00  0.00     0.171 C 
HETATM   29  C   UNL     1     -42.129 -54.183  15.546  1.00  0.00     0.068 C 
BRANCH  24  30
HETATM   30  O   UNL     1     -41.346 -53.796  13.351  1.00  0.00    -0.385 OA
HETATM   31  H   UNL     1     -40.639 -54.304  13.792  1.00  0.00     0.210 HD
ENDBRANCH  24  30
ENDBRANCH  23  24
ENDBRANCH   2  23
TORSDOF 7
ENDMDL
MODEL 2
REMARK VINA RESULT:      -6.3      1.943      2.455
REMARK  7 active torsions:
REMARK  status: ('A' for Active; 'I' for Inactive)
REMARK    1  A    between atoms: N_2  and  C_10 
REMARK    2  A    between atoms: C_3  and  N_7 
REMARK    3  A    between atoms: C_9  and  C_10 
REMARK    4  A    between atoms: C_9  and  O_21 
REMARK    5  A    between atoms: C_16  and  C_24 
REMARK    6  A    between atoms: C_24  and  C_28 
REMARK    7  A    between atoms: O_26  and  C_28 
ROOT
HETATM    1  C   UNL     1     -41.683 -49.083  12.700  1.00  0.00     0.122 A 
HETATM    2  N   UNL     1     -42.671 -50.799  13.645  1.00  0.00    -0.324 N 
HETATM    3  C   UNL     1     -40.638 -48.457  11.973  1.00  0.00     0.136 A 
HETATM    4  C   UNL     1     -41.629 -50.463  12.826  1.00  0.00     0.140 A 
HETATM    5  N   UNL     1     -42.791 -48.598  13.382  1.00  0.00    -0.346 N 
ATOM      6  HN  UNL     1     -43.113 -47.631  13.427  1.00  0.00     0.167 HD
HETATM    7  C   UNL     1     -43.337 -49.647  13.957  1.00  0.00     0.185 A 
HETATM    8  N   UNL     1     -39.696 -49.296  11.438  1.00  0.00    -0.337 N 
ATOM      9  HN  UNL     1     -38.912 -48.909  10.912  1.00  0.00     0.168 HD
HETATM   10  N   UNL     1     -40.737 -51.306  12.287  1.00  0.00    -0.336 N 
ATOM     11  HN  UNL     1     -40.766 -52.321  12.382  1.00  0.00     0.168 HD
HETATM   12  C   UNL     1     -39.799 -50.629  11.605  1.00  0.00     0.183 A 
ENDROOT
BRANCH   3  13
HETATM   13  N   UNL     1     -40.502 -47.097  11.736  1.00  0.00    -0.356 N 
HETATM   14  C   UNL     1     -41.134 -46.425  10.580  1.00  0.00     0.111 C 
HETATM   15  C   UNL     1     -40.269 -45.178  10.252  1.00  0.00     0.193 C 
HETATM   16  O   UNL     1     -40.195 -44.285  11.377  1.00  0.00    -0.388 OA
HETATM   17  C   UNL     1     -39.535 -44.940  12.472  1.00  0.00     0.187 C 
HETATM   18  C   UNL     1     -40.239 -46.239  12.902  1.00  0.00     0.151 C 
BRANCH  14  19
HETATM   19  C   UNL     1     -42.603 -46.043  10.861  1.00  0.00     0.053 C 
BRANCH  19  20
HETATM   20  C   UNL     1     -43.568 -46.961  10.113  1.00  0.00     0.169 C 
BRANCH  20  21
HETATM   21  O   UNL     1     -42.862 -47.768   9.170  1.00  0.00    -0.396 OA
HETATM   22  C   UNL     1     -43.533 -47.769   7.913  1.00  0.00     0.201 C 
ENDBRANCH  20  21
ENDBRANCH  19  20
ENDBRANCH  14  19
ENDBRANCH   3  13
BRANCH   2  23
HETATM   23  C   UNL     1     -42.920 -52.112  14.205  1.00  0.00     0.172 C 
BRANCH  23  24
HETATM   24  C   UNL     1     -44.129 -52.857  13.619  1.00  0.00     0.102 C 
HETATM   25  C   UNL     1     -45.459 -52.654  14.376  1.00  0.00     0.153 C 
HETATM   26  O   UNL     1     -46.189 -53.902  14.299  1.00  0.00    -0.383 OA
HETATM   27  C   UNL     1     -46.369 -51.560  13.843  1.00  0.00     0.042 C 
HETATM   28  C   UNL     1     -45.370 -54.858  13.615  1.00  0.00     0.171 C 
HETATM   29  C   UNL     1     -43.950 -54.364  13.771  1.00  0.00     0.068 C 
BRANCH  24  30
HETATM   30  O   UNL     1     -44.255 -52.616  12.212  1.00  0.00    -0.385 OA
HETATM   31  H   UNL     1     -44.902 -53.239  11.829  1.00  0.00     0.210 HD
ENDBRANCH  24  30
ENDBRANCH  23  24
ENDBRANCH   2  23
TORSDOF 7
ENDMDL
MODEL 3
REMARK VINA RESULT:      -6.1      2.753      7.374
REMARK  7 active torsions:
REMARK  status: ('A' for Active; 'I' for Inactive)
REMARK    1  A    between atoms: N_2  and  C_10 
REMARK    2  A    between atoms: C_3  and  N_7 
REMARK    3  A    between atoms: C_9  and  C_10 
REMARK    4  A    between atoms: C_9  and  O_21 
REMARK    5  A    between atoms: C_16  and  C_24 
REMARK    6  A    between atoms: C_24  and  C_28 
REMARK    7  A    between atoms: O_26  and  C_28 
ROOT
HETATM    1  C   UNL     1     -42.512 -51.391  13.835  1.00  0.00     0.122 A 
HETATM    2  N   UNL     1     -42.628 -49.462  12.796  1.00  0.00    -0.324 N 
HETATM    3  C   UNL     1     -42.230 -52.779  13.917  1.00  0.00     0.136 A 
HETATM    4  C   UNL     1     -42.160 -50.740  12.662  1.00  0.00     0.140 A 
HETATM    5  N   UNL     1     -43.126 -50.493  14.698  1.00  0.00    -0.346 N 
ATOM      6  HN  UNL     1     -43.448 -50.672  15.649  1.00  0.00     0.167 HD
HETATM    7  C   UNL     1     -43.204 -49.362  14.031  1.00  0.00     0.185 A 
HETATM    8  N   UNL     1     -41.603 -53.326  12.828  1.00  0.00    -0.337 N 
ATOM      9  HN  UNL     1     -41.380 -54.322  12.818  1.00  0.00     0.168 HD
HETATM   10  N   UNL     1     -41.520 -51.246  11.599  1.00  0.00    -0.336 N 
ATOM     11  HN  UNL     1     -41.253 -50.710  10.773  1.00  0.00     0.168 HD
HETATM   12  C   UNL     1     -41.279 -52.556  11.771  1.00  0.00     0.183 A 
ENDROOT
BRANCH   3  13
HETATM   13  N   UNL     1     -42.503 -53.612  14.991  1.00  0.00    -0.356 N 
HETATM   14  C   UNL     1     -43.882 -53.964  15.393  1.00  0.00     0.111 C 
HETATM   15  C   UNL     1     -43.844 -54.288  16.911  1.00  0.00     0.193 C 
HETATM   16  O   UNL     1     -42.944 -55.374  17.189  1.00  0.00    -0.388 OA
HETATM   17  C   UNL     1     -41.604 -54.994  16.838  1.00  0.00     0.187 C 
HETATM   18  C   UNL     1     -41.466 -54.589  15.360  1.00  0.00     0.151 C 
BRANCH  14  19
HETATM   19  C   UNL     1     -44.443 -55.145  14.571  1.00  0.00     0.053 C 
BRANCH  19  20
HETATM   20  C   UNL     1     -45.638 -54.712  13.723  1.00  0.00     0.169 C 
BRANCH  20  21
HETATM   21  O   UNL     1     -45.199 -53.997  12.568  1.00  0.00    -0.396 OA
HETATM   22  C   UNL     1     -45.767 -52.690  12.544  1.00  0.00     0.201 C 
ENDBRANCH  20  21
ENDBRANCH  19  20
ENDBRANCH  14  19
ENDBRANCH   3  13
BRANCH   2  23
HETATM   23  C   UNL     1     -42.651 -48.455  11.755  1.00  0.00     0.172 C 
BRANCH  23  24
HETATM   24  C   UNL     1     -41.292 -47.817  11.429  1.00  0.00     0.102 C 
HETATM   25  C   UNL     1     -40.524 -47.246  12.640  1.00  0.00     0.153 C 
HETATM   26  O   UNL     1     -39.820 -46.067  12.181  1.00  0.00    -0.383 OA
HETATM   27  C   UNL     1     -39.499 -48.170  13.276  1.00  0.00     0.042 C 
HETATM   28  C   UNL     1     -40.162 -45.847  10.807  1.00  0.00     0.171 C 
HETATM   29  C   UNL     1     -41.483 -46.552  10.599  1.00  0.00     0.068 C 
BRANCH  24  30
HETATM   30  O   UNL     1     -40.486 -48.694  10.630  1.00  0.00    -0.385 OA
HETATM   31  H   UNL     1     -39.561 -48.664  10.942  1.00  0.00     0.210 HD
ENDBRANCH  24  30
ENDBRANCH  23  24
ENDBRANCH   2  23
TORSDOF 7
ENDMDL
MODEL 4
REMARK VINA RESULT:      -6.0      2.164      7.153
REMARK  7 active torsions:
REMARK  status: ('A' for Active; 'I' for Inactive)
REMARK    1  A    between atoms: N_2  and  C_10 
REMARK    2  A    between atoms: C_3  and  N_7 
REMARK    3  A    between atoms: C_9  and  C_10 
REMARK    4  A    between atoms: C_9  and  O_21 
REMARK    5  A    between atoms: C_16  and  C_24 
REMARK    6  A    between atoms: C_24  and  C_28 
REMARK    7  A    between atoms: O_26  and  C_28 
ROOT
HETATM    1  C   UNL     1     -41.834 -50.015  12.179  1.00  0.00     0.122 A 
HETATM    2  N   UNL     1     -42.196 -48.107  11.159  1.00  0.00    -0.324 N 
HETATM    3  C   UNL     1     -41.060 -51.160  12.502  1.00  0.00     0.136 A 
HETATM    4  C   UNL     1     -41.223 -49.032  11.415  1.00  0.00     0.140 A 
HETATM    5  N   UNL     1     -43.147 -49.650  12.441  1.00  0.00    -0.346 N 
ATOM      6  HN  UNL     1     -43.824 -50.151  13.016  1.00  0.00     0.167 HD
HETATM    7  C   UNL     1     -43.335 -48.522  11.790  1.00  0.00     0.185 A 
HETATM    8  N   UNL     1     -39.768 -51.156  12.046  1.00  0.00    -0.337 N 
ATOM      9  HN  UNL     1     -39.161 -51.954  12.235  1.00  0.00     0.168 HD
HETATM   10  N   UNL     1     -39.954 -48.992  10.985  1.00  0.00    -0.336 N 
ATOM     11  HN  UNL     1     -39.545 -48.223  10.454  1.00  0.00     0.168 HD
HETATM   12  C   UNL     1     -39.295 -50.104  11.350  1.00  0.00     0.183 A 
ENDROOT
BRANCH   3  13
HETATM   13  N   UNL     1     -41.480 -52.252  13.246  1.00  0.00    -0.356 N 
HETATM   14  C   UNL     1     -42.902 -52.490  13.574  1.00  0.00     0.111 C 
HETATM   15  C   UNL     1     -42.932 -53.313  14.892  1.00  0.00     0.193 C 
HETATM   16  O   UNL     1     -42.232 -54.560  14.742  1.00  0.00    -0.388 OA
HETATM   17  C   UNL     1     -40.844 -54.306  14.473  1.00  0.00     0.187 C 
HETATM   18  C   UNL     1     -40.627 -53.451  13.212  1.00  0.00     0.151 C 
BRANCH  14  19
HETATM   19  C   UNL     1     -43.649 -53.214  12.433  1.00  0.00     0.053 C 
BRANCH  19  20
HETATM   20  C   UNL     1     -45.086 -53.544  12.833  1.00  0.00     0.169 C 
BRANCH  20  21
HETATM   21  O   UNL     1     -46.011 -52.819  12.022  1.00  0.00    -0.396 OA
HETATM   22  C   UNL     1     -46.449 -51.641  12.694  1.00  0.00     0.201 C 
ENDBRANCH  20  21
ENDBRANCH  19  20
ENDBRANCH  14  19
ENDBRANCH   3  13
BRANCH   2  23
HETATM   23  C   UNL     1     -42.080 -46.983  10.252  1.00  0.00     0.172 C 
BRANCH  23  24
HETATM   24  C   UNL     1     -41.578 -45.677  10.887  1.00  0.00     0.102 C 
HETATM   25  C   UNL     1     -40.043 -45.535  10.977  1.00  0.00     0.153 C 
HETATM   26  O   UNL     1     -39.751 -44.819  12.201  1.00  0.00    -0.383 OA
HETATM   27  C   UNL     1     -39.375 -44.783   9.838  1.00  0.00     0.042 C 
HETATM   28  C   UNL     1     -40.987 -44.581  12.886  1.00  0.00     0.171 C 
HETATM   29  C   UNL     1     -41.949 -45.626  12.365  1.00  0.00     0.068 C 
BRANCH  24  30
HETATM   30  O   UNL     1     -42.200 -44.534  10.285  1.00  0.00    -0.385 OA
HETATM   31  H   UNL     1     -42.064 -44.557   9.319  1.00  0.00     0.210 HD
ENDBRANCH  24  30
ENDBRANCH  23  24
ENDBRANCH   2  23
TORSDOF 7
ENDMDL
MODEL 5
REMARK VINA RESULT:      -5.9      2.192      7.466
REMARK  7 active torsions:
REMARK  status: ('A' for Active; 'I' for Inactive)
REMARK    1  A    between atoms: N_2  and  C_10 
REMARK    2  A    between atoms: C_3  and  N_7 
REMARK    3  A    between atoms: C_9  and  C_10 
REMARK    4  A    between atoms: C_9  and  O_21 
REMARK    5  A    between atoms: C_16  and  C_24 
REMARK    6  A    between atoms: C_24  and  C_28 
REMARK    7  A    between atoms: O_26  and  C_28 
ROOT
HETATM    1  C   UNL     1     -42.999 -50.798  13.382  1.00  0.00     0.122 A 
HETATM    2  N   UNL     1     -41.952 -48.882  13.168  1.00  0.00    -0.324 N 
HETATM    3  C   UNL     1     -43.257 -52.153  13.049  1.00  0.00     0.136 A 
HETATM    4  C   UNL     1     -41.917 -50.188  12.766  1.00  0.00     0.140 A 
HETATM    5  N   UNL     1     -43.640 -49.882  14.206  1.00  0.00    -0.346 N 
ATOM      6  HN  UNL     1     -44.436 -50.056  14.819  1.00  0.00     0.167 HD
HETATM    7  C   UNL     1     -43.006 -48.744  14.028  1.00  0.00     0.185 A 
HETATM    8  N   UNL     1     -42.379 -52.729  12.169  1.00  0.00    -0.337 N 
ATOM      9  HN  UNL     1     -42.513 -53.699  11.880  1.00  0.00     0.168 HD
HETATM   10  N   UNL     1     -41.027 -50.739  11.927  1.00  0.00    -0.336 N 
ATOM     11  HN  UNL     1     -40.225 -50.251  11.530  1.00  0.00     0.168 HD
HETATM   12  C   UNL     1     -41.339 -52.023  11.684  1.00  0.00     0.183 A 
ENDROOT
BRANCH   3  13
HETATM   13  N   UNL     1     -44.285 -52.940  13.546  1.00  0.00    -0.356 N 
HETATM   14  C   UNL     1     -44.077 -54.339  13.977  1.00  0.00     0.111 C 
HETATM   15  C   UNL     1     -45.436 -55.072  13.811  1.00  0.00     0.193 C 
HETATM   16  O   UNL     1     -46.463 -54.448  14.600  1.00  0.00    -0.388 OA
HETATM   17  C   UNL     1     -46.684 -53.107  14.134  1.00  0.00     0.187 C 
HETATM   18  C   UNL     1     -45.413 -52.241  14.183  1.00  0.00     0.151 C 
BRANCH  14  19
HETATM   19  C   UNL     1     -43.553 -54.430  15.427  1.00  0.00     0.053 C 
BRANCH  19  20
HETATM   20  C   UNL     1     -42.157 -55.048  15.474  1.00  0.00     0.169 C 
BRANCH  20  21
HETATM   21  O   UNL     1     -41.366 -54.582  14.381  1.00  0.00    -0.396 OA
HETATM   22  C   UNL     1     -40.217 -53.885  14.857  1.00  0.00     0.201 C 
ENDBRANCH  20  21
ENDBRANCH  19  20
ENDBRANCH  14  19
ENDBRANCH   3  13
BRANCH   2  23
HETATM   23  C   UNL     1     -41.123 -47.813  12.650  1.00  0.00     0.172 C 
BRANCH  23  24
HETATM   24  C   UNL     1     -41.504 -47.305  11.251  1.00  0.00     0.102 C 
HETATM   25  C   UNL     1     -41.191 -45.818  10.981  1.00  0.00     0.153 C 
HETATM   26  O   UNL     1     -42.241 -45.309  10.124  1.00  0.00    -0.383 OA
HETATM   27  C   UNL     1     -39.865 -45.529  10.298  1.00  0.00     0.042 C 
HETATM   28  C   UNL     1     -43.196 -46.357   9.916  1.00  0.00     0.171 C 
HETATM   29  C   UNL     1     -43.020 -47.306  11.080  1.00  0.00     0.068 C 
BRANCH  24  30
HETATM   30  O   UNL     1     -40.992 -48.169  10.228  1.00  0.00    -0.385 OA
HETATM   31  H   UNL     1     -40.117 -48.509  10.493  1.00  0.00     0.210 HD
ENDBRANCH  24  30
ENDBRANCH  23  24
ENDBRANCH   2  23
TORSDOF 7
ENDMDL
MODEL 6
REMARK VINA RESULT:      -5.9      2.704      3.660
REMARK  7 active torsions:
REMARK  status: ('A' for Active; 'I' for Inactive)
REMARK    1  A    between atoms: N_2  and  C_10 
REMARK    2  A    between atoms: C_3  and  N_7 
REMARK    3  A    between atoms: C_9  and  C_10 
REMARK    4  A    between atoms: C_9  and  O_21 
REMARK    5  A    between atoms: C_16  and  C_24 
REMARK    6  A    between atoms: C_24  and  C_28 
REMARK    7  A    between atoms: O_26  and  C_28 
ROOT
HETATM    1  C   UNL     1     -39.434 -48.297  12.748  1.00  0.00     0.122 A 
HETATM    2  N   UNL     1     -39.136 -50.470  12.758  1.00  0.00    -0.324 N 
HETATM    3  C   UNL     1     -39.694 -47.044  13.361  1.00  0.00     0.136 A 
HETATM    4  C   UNL     1     -39.262 -49.389  13.585  1.00  0.00     0.140 A 
HETATM    5  N   UNL     1     -39.342 -48.707  11.425  1.00  0.00    -0.346 N 
ATOM      6  HN  UNL     1     -39.381 -48.120  10.592  1.00  0.00     0.167 HD
HETATM    7  C   UNL     1     -39.195 -50.013  11.471  1.00  0.00     0.185 A 
HETATM    8  N   UNL     1     -39.714 -47.042  14.731  1.00  0.00    -0.337 N 
ATOM      9  HN  UNL     1     -39.904 -46.175  15.235  1.00  0.00     0.168 HD
HETATM   10  N   UNL     1     -39.247 -49.406  14.925  1.00  0.00    -0.336 N 
ATOM     11  HN  UNL     1     -39.078 -50.236  15.493  1.00  0.00     0.168 HD
HETATM   12  C   UNL     1     -39.482 -48.178  15.416  1.00  0.00     0.183 A 
ENDROOT
BRANCH   3  13
HETATM   13  N   UNL     1     -39.899 -45.837  12.710  1.00  0.00    -0.356 N 
HETATM   14  C   UNL     1     -40.603 -45.744  11.413  1.00  0.00     0.111 C 
HETATM   15  C   UNL     1     -40.071 -44.472  10.697  1.00  0.00     0.193 C 
HETATM   16  O   UNL     1     -40.308 -43.294  11.486  1.00  0.00    -0.388 OA
HETATM   17  C   UNL     1     -39.577 -43.382  12.720  1.00  0.00     0.187 C 
HETATM   18  C   UNL     1     -39.948 -44.626  13.546  1.00  0.00     0.151 C 
BRANCH  14  19
HETATM   19  C   UNL     1     -42.137 -45.702  11.585  1.00  0.00     0.053 C 
BRANCH  19  20
HETATM   20  C   UNL     1     -42.748 -47.096  11.455  1.00  0.00     0.169 C 
BRANCH  20  21
HETATM   21  O   UNL     1     -42.174 -47.794  10.350  1.00  0.00    -0.396 OA
HETATM   22  C   UNL     1     -43.001 -47.667   9.196  1.00  0.00     0.201 C 
ENDBRANCH  20  21
ENDBRANCH  19  20
ENDBRANCH  14  19
ENDBRANCH   3  13
BRANCH   2  23
HETATM   23  C   UNL     1     -39.109 -51.858  13.175  1.00  0.00     0.172 C 
BRANCH  23  24
HETATM   24  C   UNL     1     -40.417 -52.634  12.958  1.00  0.00     0.102 C 
HETATM   25  C   UNL     1     -41.682 -51.973  13.546  1.00  0.00     0.153 C 
HETATM   26  O   UNL     1     -42.546 -53.039  14.007  1.00  0.00    -0.383 OA
HETATM   27  C   UNL     1     -42.490 -51.111  12.590  1.00  0.00     0.042 C 
HETATM   28  C   UNL     1     -41.868 -54.285  13.804  1.00  0.00     0.171 C 
HETATM   29  C   UNL     1     -40.396 -53.942  13.742  1.00  0.00     0.068 C 
BRANCH  24  30
HETATM   30  O   UNL     1     -40.579 -53.003  11.582  1.00  0.00    -0.385 OA
HETATM   31  H   UNL     1     -39.929 -53.693  11.349  1.00  0.00     0.210 HD
ENDBRANCH  24  30
ENDBRANCH  23  24
ENDBRANCH   2  23
TORSDOF 7
ENDMDL
MODEL 7
REMARK VINA RESULT:      -5.9      1.874      2.704
REMARK  7 active torsions:
REMARK  status: ('A' for Active; 'I' for Inactive)
REMARK    1  A    between atoms: N_2  and  C_10 
REMARK    2  A    between atoms: C_3  and  N_7 
REMARK    3  A    between atoms: C_9  and  C_10 
REMARK    4  A    between atoms: C_9  and  O_21 
REMARK    5  A    between atoms: C_16  and  C_24 
REMARK    6  A    between atoms: C_24  and  C_28 
REMARK    7  A    between atoms: O_26  and  C_28 
ROOT
HETATM    1  C   UNL     1     -41.200 -49.779  11.970  1.00  0.00     0.122 A 
HETATM    2  N   UNL     1     -41.122 -51.945  12.312  1.00  0.00    -0.324 N 
HETATM    3  C   UNL     1     -40.621 -48.504  11.741  1.00  0.00     0.136 A 
HETATM    4  C   UNL     1     -40.347 -50.873  11.968  1.00  0.00     0.140 A 
HETATM    5  N   UNL     1     -42.494 -50.201  12.243  1.00  0.00    -0.346 N 
ATOM      6  HN  UNL     1     -43.338 -49.629  12.264  1.00  0.00     0.167 HD
HETATM    7  C   UNL     1     -42.402 -51.493  12.472  1.00  0.00     0.185 A 
HETATM    8  N   UNL     1     -39.270 -48.495  11.508  1.00  0.00    -0.337 N 
ATOM      9  HN  UNL     1     -38.790 -47.609  11.346  1.00  0.00     0.168 HD
HETATM   10  N   UNL     1     -39.031 -50.892  11.712  1.00  0.00    -0.336 N 
ATOM     11  HN  UNL     1     -38.457 -51.734  11.688  1.00  0.00     0.168 HD
HETATM   12  C   UNL     1     -38.575 -49.648  11.491  1.00  0.00     0.183 A 
ENDROOT
BRANCH   3  13
HETATM   13  N   UNL     1     -41.291 -47.291  11.707  1.00  0.00    -0.356 N 
HETATM   14  C   UNL     1     -41.858 -46.731  10.461  1.00  0.00     0.111 C 
HETATM   15  C   UNL     1     -41.895 -45.188  10.633  1.00  0.00     0.193 C 
HETATM   16  O   UNL     1     -42.695 -44.810  11.766  1.00  0.00    -0.388 OA
HETATM   17  C   UNL     1     -42.102 -45.322  12.970  1.00  0.00     0.187 C 
HETATM   18  C   UNL     1     -41.942 -46.852  12.952  1.00  0.00     0.151 C 
BRANCH  14  19
HETATM   19  C   UNL     1     -43.257 -47.304  10.149  1.00  0.00     0.053 C 
BRANCH  19  20
HETATM   20  C   UNL     1     -43.443 -47.525   8.649  1.00  0.00     0.169 C 
BRANCH  20  21
HETATM   21  O   UNL     1     -44.785 -47.921   8.364  1.00  0.00    -0.396 OA
HETATM   22  C   UNL     1     -45.703 -47.197   9.178  1.00  0.00     0.201 C 
ENDBRANCH  20  21
ENDBRANCH  19  20
ENDBRANCH  14  19
ENDBRANCH   3  13
BRANCH   2  23
HETATM   23  C   UNL     1     -40.641 -53.279  12.608  1.00  0.00     0.172 C 
BRANCH  23  24
HETATM   24  C   UNL     1     -40.405 -53.576  14.097  1.00  0.00     0.102 C 
HETATM   25  C   UNL     1     -39.739 -52.437  14.899  1.00  0.00     0.153 C 
HETATM   26  O   UNL     1     -38.882 -53.057  15.888  1.00  0.00    -0.383 OA
HETATM   27  C   UNL     1     -40.682 -51.500  15.636  1.00  0.00     0.042 C 
HETATM   28  C   UNL     1     -38.929 -54.475  15.696  1.00  0.00     0.171 C 
HETATM   29  C   UNL     1     -39.364 -54.678  14.262  1.00  0.00     0.068 C 
BRANCH  24  30
HETATM   30  O   UNL     1     -41.598 -54.065  14.724  1.00  0.00    -0.385 OA
HETATM   31  H   UNL     1     -41.966 -54.801  14.200  1.00  0.00     0.210 HD
ENDBRANCH  24  30
ENDBRANCH  23  24
ENDBRANCH   2  23
TORSDOF 7
ENDMDL
MODEL 8
REMARK VINA RESULT:      -5.8      2.419      7.553
REMARK  7 active torsions:
REMARK  status: ('A' for Active; 'I' for Inactive)
REMARK    1  A    between atoms: N_2  and  C_10 
REMARK    2  A    between atoms: C_3  and  N_7 
REMARK    3  A    between atoms: C_9  and  C_10 
REMARK    4  A    between atoms: C_9  and  O_21 
REMARK    5  A    between atoms: C_16  and  C_24 
REMARK    6  A    between atoms: C_24  and  C_28 
REMARK    7  A    between atoms: O_26  and  C_28 
ROOT
HETATM    1  C   UNL     1     -42.337 -50.191  13.074  1.00  0.00     0.122 A 
HETATM    2  N   UNL     1     -40.991 -48.599  12.393  1.00  0.00    -0.324 N 
HETATM    3  C   UNL     1     -43.168 -50.836  14.026  1.00  0.00     0.136 A 
HETATM    4  C   UNL     1     -41.829 -48.947  13.415  1.00  0.00     0.140 A 
HETATM    5  N   UNL     1     -41.864 -50.558  11.821  1.00  0.00    -0.346 N 
ATOM      6  HN  UNL     1     -42.104 -51.396  11.292  1.00  0.00     0.167 HD
HETATM    7  C   UNL     1     -41.041 -49.598  11.461  1.00  0.00     0.185 A 
HETATM    8  N   UNL     1     -43.408 -50.138  15.181  1.00  0.00    -0.337 N 
ATOM      9  HN  UNL     1     -43.990 -50.549  15.911  1.00  0.00     0.168 HD
HETATM   10  N   UNL     1     -42.074 -48.232  14.523  1.00  0.00    -0.336 N 
ATOM     11  HN  UNL     1     -41.700 -47.301  14.706  1.00  0.00     0.168 HD
HETATM   12  C   UNL     1     -42.880 -48.911  15.355  1.00  0.00     0.183 A 
ENDROOT
BRANCH   3  13
HETATM   13  N   UNL     1     -43.770 -52.078  13.885  1.00  0.00    -0.356 N 
HETATM   14  C   UNL     1     -43.200 -53.145  13.035  1.00  0.00     0.111 C 
HETATM   15  C   UNL     1     -44.383 -54.043  12.580  1.00  0.00     0.193 C 
HETATM   16  O   UNL     1     -45.069 -54.610  13.709  1.00  0.00    -0.388 OA
HETATM   17  C   UNL     1     -45.657 -53.560  14.495  1.00  0.00     0.187 C 
HETATM   18  C   UNL     1     -44.622 -52.537  14.994  1.00  0.00     0.151 C 
BRANCH  14  19
HETATM   19  C   UNL     1     -42.116 -53.959  13.773  1.00  0.00     0.053 C 
BRANCH  19  20
HETATM   20  C   UNL     1     -40.882 -54.162  12.895  1.00  0.00     0.169 C 
BRANCH  20  21
HETATM   21  O   UNL     1     -40.157 -52.939  12.761  1.00  0.00    -0.396 OA
HETATM   22  C   UNL     1     -39.625 -52.533  14.019  1.00  0.00     0.201 C 
ENDBRANCH  20  21
ENDBRANCH  19  20
ENDBRANCH  14  19
ENDBRANCH   3  13
BRANCH   2  23
HETATM   23  C   UNL     1     -40.097 -47.459  12.381  1.00  0.00     0.172 C 
BRANCH  23  24
HETATM   24  C   UNL     1     -40.738 -46.126  11.966  1.00  0.00     0.102 C 
HETATM   25  C   UNL     1     -41.261 -46.068  10.515  1.00  0.00     0.153 C 
HETATM   26  O   UNL     1     -41.044 -44.719  10.036  1.00  0.00    -0.383 OA
HETATM   27  C   UNL     1     -42.734 -46.389  10.324  1.00  0.00     0.042 C 
HETATM   28  C   UNL     1     -40.369 -43.983  11.063  1.00  0.00     0.171 C 
HETATM   29  C   UNL     1     -39.688 -45.020  11.927  1.00  0.00     0.068 C 
BRANCH  24  30
HETATM   30  O   UNL     1     -41.720 -45.703  12.921  1.00  0.00    -0.385 OA
HETATM   31  H   UNL     1     -41.362 -44.971  13.458  1.00  0.00     0.210 HD
ENDBRANCH  24  30
ENDBRANCH  23  24
ENDBRANCH   2  23
TORSDOF 7
ENDMDL
MODEL 9
REMARK VINA RESULT:      -5.8      2.022      2.687
REMARK  7 active torsions:
REMARK  status: ('A' for Active; 'I' for Inactive)
REMARK    1  A    between atoms: N_2  and  C_10 
REMARK    2  A    between atoms: C_3  and  N_7 
REMARK    3  A    between atoms: C_9  and  C_10 
REMARK    4  A    between atoms: C_9  and  O_21 
REMARK    5  A    between atoms: C_16  and  C_24 
REMARK    6  A    between atoms: C_24  and  C_28 
REMARK    7  A    between atoms: O_26  and  C_28 
ROOT
HETATM    1  C   UNL     1     -41.295 -48.853  12.107  1.00  0.00     0.122 A 
HETATM    2  N   UNL     1     -42.302 -50.760  12.510  1.00  0.00    -0.324 N 
HETATM    3  C   UNL     1     -40.173 -48.050  11.776  1.00  0.00     0.136 A 
HETATM    4  C   UNL     1     -41.129 -50.228  12.051  1.00  0.00     0.140 A 
HETATM    5  N   UNL     1     -42.584 -48.558  12.531  1.00  0.00    -0.346 N 
ATOM      6  HN  UNL     1     -43.008 -47.635  12.622  1.00  0.00     0.167 HD
HETATM    7  C   UNL     1     -43.143 -49.720  12.791  1.00  0.00     0.185 A 
HETATM    8  N   UNL     1     -39.043 -48.728  11.400  1.00  0.00    -0.337 N 
ATOM      9  HN  UNL     1     -38.198 -48.210  11.159  1.00  0.00     0.168 HD
HETATM   10  N   UNL     1     -40.046 -50.913  11.657  1.00  0.00    -0.336 N 
ATOM     11  HN  UNL     1     -39.991 -51.929  11.600  1.00  0.00     0.168 HD
HETATM   12  C   UNL     1     -39.043 -50.074  11.348  1.00  0.00     0.183 A 
ENDROOT
BRANCH   3  13
HETATM   13  N   UNL     1     -40.127 -46.664  11.774  1.00  0.00    -0.356 N 
HETATM   14  C   UNL     1     -40.636 -45.854  10.646  1.00  0.00     0.111 C 
HETATM   15  C   UNL     1     -39.848 -44.516  10.656  1.00  0.00     0.193 C 
HETATM   16  O   UNL     1     -40.025 -43.817  11.900  1.00  0.00    -0.388 OA
HETATM   17  C   UNL     1     -39.480 -44.598  12.976  1.00  0.00     0.187 C 
HETATM   18  C   UNL     1     -40.120 -45.993  13.084  1.00  0.00     0.151 C 
BRANCH  14  19
HETATM   19  C   UNL     1     -42.159 -45.620  10.739  1.00  0.00     0.053 C 
BRANCH  19  20
HETATM   20  C   UNL     1     -42.892 -46.265   9.565  1.00  0.00     0.169 C 
BRANCH  20  21
HETATM   21  O   UNL     1     -43.623 -47.411   9.999  1.00  0.00    -0.396 OA
HETATM   22  C   UNL     1     -44.938 -47.404   9.448  1.00  0.00     0.201 C 
ENDBRANCH  20  21
ENDBRANCH  19  20
ENDBRANCH  14  19
ENDBRANCH   3  13
BRANCH   2  23
HETATM   23  C   UNL     1     -42.544 -52.159  12.798  1.00  0.00     0.172 C 
BRANCH  23  24
HETATM   24  C   UNL     1     -41.926 -52.677  14.106  1.00  0.00     0.102 C 
HETATM   25  C   UNL     1     -41.357 -54.111  14.045  1.00  0.00     0.153 C 
HETATM   26  O   UNL     1     -41.595 -54.720  15.336  1.00  0.00    -0.383 OA
HETATM   27  C   UNL     1     -39.870 -54.226  13.752  1.00  0.00     0.042 C 
HETATM   28  C   UNL     1     -42.323 -53.787  16.144  1.00  0.00     0.171 C 
HETATM   29  C   UNL     1     -43.003 -52.850  15.171  1.00  0.00     0.068 C 
BRANCH  24  30
HETATM   30  O   UNL     1     -40.987 -51.736  14.645  1.00  0.00    -0.385 OA
HETATM   31  H   UNL     1     -40.149 -52.191  14.850  1.00  0.00     0.210 HD
ENDBRANCH  24  30
ENDBRANCH  23  24
ENDBRANCH   2  23
TORSDOF 7
ENDMDL
