MODEL 1
REMARK VINA RESULT:      -6.0      0.000      0.000
REMARK  3 active torsions:
REMARK  status: ('A' for Active; 'I' for Inactive)
REMARK    1  A    between atoms: N_1  and  C_7 
REMARK    2  A    between atoms: C_16  and  C_19 
REMARK    3  A    between atoms: O_18  and  C_19 
ROOT
HETATM    1  N   UNL     1     -40.585 -47.361  11.081  1.00  0.00    -0.300 N 
HETATM    2  C   UNL     1     -41.900 -47.294  10.701  1.00  0.00     0.144 A 
HETATM    3  C   UNL     1     -42.050 -46.032  10.162  1.00  0.00     0.146 A 
HETATM    4  N   UNL     1     -40.869 -45.336  10.175  1.00  0.00    -0.345 N 
ATOM      5  HN  UNL     1     -40.696 -44.392   9.831  1.00  0.00     0.167 HD
HETATM    6  C   UNL     1     -40.007 -46.164  10.734  1.00  0.00     0.188 A 
HETATM    7  N   UNL     1     -42.845 -48.260  10.845  1.00  0.00    -0.336 N 
ATOM      8  HN  UNL     1     -42.661 -49.177  11.251  1.00  0.00     0.168 HD
HETATM    9  C   UNL     1     -43.363 -45.640   9.691  1.00  0.00     0.277 A 
HETATM   10  N   UNL     1     -44.302 -46.648   9.855  1.00  0.00    -0.318 N 
HETATM   11  C   UNL     1     -44.011 -47.882  10.408  1.00  0.00     0.185 A 
HETATM   12  O   UNL     1     -43.664 -44.553   9.204  1.00  0.00    -0.266 OA
HETATM   13  H   UNL     1     -45.235 -46.425   9.545  1.00  0.00     0.169 HD
ENDROOT
BRANCH   1  14
HETATM   14  C   UNL     1     -39.948 -48.456  11.780  1.00  0.00     0.231 C 
HETATM   15  O   UNL     1     -40.228 -49.708  11.112  1.00  0.00    -0.359 OA
HETATM   16  C   UNL     1     -40.179 -50.759  12.103  1.00  0.00     0.147 C 
HETATM   17  C   UNL     1     -39.971 -50.089  13.456  1.00  0.00     0.038 C 
HETATM   18  C   UNL     1     -40.395 -48.658  13.215  1.00  0.00     0.057 C 
BRANCH  16  19
HETATM   19  C   UNL     1     -41.443 -51.627  12.025  1.00  0.00     0.196 C 
BRANCH  19  20
HETATM   20  O   UNL     1     -41.295 -52.681  11.077  1.00  0.00    -0.398 OA
HETATM   21  H   UNL     1     -40.605 -53.276  11.421  1.00  0.00     0.209 HD
ENDBRANCH  19  20
ENDBRANCH  16  19
ENDBRANCH   1  14
TORSDOF 3
ENDMDL
MODEL 2
REMARK VINA RESULT:      -5.7      2.884      4.731
REMARK  3 active torsions:
REMARK  status: ('A' for Active; 'I' for Inactive)
REMARK    1  A    between atoms: N_1  and  C_7 
REMARK    2  A    between atoms: C_16  and  C_19 
REMARK    3  A    between atoms: O_18  and  C_19 
ROOT
HETATM    1  N   UNL     1     -41.479 -46.732  11.210  1.00  0.00    -0.300 N 
HETATM    2  C   UNL     1     -42.479 -46.366  10.347  1.00  0.00     0.144 A 
HETATM    3  C   UNL     1     -42.621 -47.441   9.493  1.00  0.00     0.146 A 
HETATM    4  N   UNL     1     -41.763 -48.459   9.819  1.00  0.00    -0.345 N 
ATOM      5  HN  UNL     1     -41.667 -49.366   9.362  1.00  0.00     0.167 HD
HETATM    6  C   UNL     1     -41.090 -48.001  10.857  1.00  0.00     0.188 A 
HETATM    7  N   UNL     1     -43.162 -45.191  10.335  1.00  0.00    -0.336 N 
ATOM      8  HN  UNL     1     -43.007 -44.438  11.005  1.00  0.00     0.168 HD
HETATM    9  C   UNL     1     -43.598 -47.344   8.427  1.00  0.00     0.277 A 
HETATM   10  N   UNL     1     -44.274 -46.132   8.443  1.00  0.00    -0.318 N 
HETATM   11  C   UNL     1     -44.035 -45.135   9.372  1.00  0.00     0.185 A 
HETATM   12  O   UNL     1     -43.832 -48.200   7.578  1.00  0.00    -0.266 OA
HETATM   13  H   UNL     1     -44.964 -46.012   7.718  1.00  0.00     0.169 HD
ENDROOT
BRANCH   1  14
HETATM   14  C   UNL     1     -40.897 -45.908  12.248  1.00  0.00     0.231 C 
HETATM   15  O   UNL     1     -41.924 -45.137  12.913  1.00  0.00    -0.359 OA
HETATM   16  C   UNL     1     -41.313 -43.928  13.417  1.00  0.00     0.147 C 
HETATM   17  C   UNL     1     -39.868 -43.921  12.932  1.00  0.00     0.038 C 
HETATM   18  C   UNL     1     -39.876 -44.892  11.774  1.00  0.00     0.057 C 
BRANCH  16  19
HETATM   19  C   UNL     1     -42.124 -42.699  12.984  1.00  0.00     0.196 C 
BRANCH  19  20
HETATM   20  O   UNL     1     -43.382 -43.072  12.429  1.00  0.00    -0.398 OA
HETATM   21  H   UNL     1     -43.356 -42.835  11.484  1.00  0.00     0.209 HD
ENDBRANCH  19  20
ENDBRANCH  16  19
ENDBRANCH   1  14
TORSDOF 3
ENDMDL
MODEL 3
REMARK VINA RESULT:      -5.7      5.780      7.918
REMARK  3 active torsions:
REMARK  status: ('A' for Active; 'I' for Inactive)
REMARK    1  A    between atoms: N_1  and  C_7 
REMARK    2  A    between atoms: C_16  and  C_19 
REMARK    3  A    between atoms: O_18  and  C_19 
ROOT
HETATM    1  N   UNL     1     -43.621 -53.826  14.862  1.00  0.00    -0.300 N 
HETATM    2  C   UNL     1     -42.763 -53.565  13.826  1.00  0.00     0.144 A 
HETATM    3  C   UNL     1     -41.583 -54.189  14.177  1.00  0.00     0.146 A 
HETATM    4  N   UNL     1     -41.697 -54.842  15.377  1.00  0.00    -0.345 N 
ATOM      5  HN  UNL     1     -40.985 -55.388  15.862  1.00  0.00     0.167 HD
HETATM    6  C   UNL     1     -42.936 -54.605  15.763  1.00  0.00     0.188 A 
HETATM    7  N   UNL     1     -43.024 -52.835  12.710  1.00  0.00    -0.336 N 
ATOM      8  HN  UNL     1     -43.927 -52.404  12.512  1.00  0.00     0.168 HD
HETATM    9  C   UNL     1     -40.450 -54.065  13.282  1.00  0.00     0.277 A 
HETATM   10  N   UNL     1     -40.752 -53.313  12.155  1.00  0.00    -0.318 N 
HETATM   11  C   UNL     1     -41.992 -52.747  11.923  1.00  0.00     0.185 A 
HETATM   12  O   UNL     1     -39.332 -54.542  13.457  1.00  0.00    -0.266 OA
HETATM   13  H   UNL     1     -39.995 -53.194  11.500  1.00  0.00     0.169 HD
ENDROOT
BRANCH   1  14
HETATM   14  C   UNL     1     -44.967 -53.317  15.011  1.00  0.00     0.231 C 
HETATM   15  O   UNL     1     -45.689 -53.432  13.764  1.00  0.00    -0.359 OA
HETATM   16  C   UNL     1     -46.691 -52.390  13.733  1.00  0.00     0.147 C 
HETATM   17  C   UNL     1     -46.484 -51.536  14.979  1.00  0.00     0.038 C 
HETATM   18  C   UNL     1     -45.069 -51.854  15.400  1.00  0.00     0.057 C 
BRANCH  16  19
HETATM   19  C   UNL     1     -46.607 -51.606  12.417  1.00  0.00     0.196 C 
BRANCH  19  20
HETATM   20  O   UNL     1     -46.830 -52.449  11.291  1.00  0.00    -0.398 OA
HETATM   21  H   UNL     1     -46.470 -53.325  11.516  1.00  0.00     0.209 HD
ENDBRANCH  19  20
ENDBRANCH  16  19
ENDBRANCH   1  14
TORSDOF 3
ENDMDL
MODEL 4
REMARK VINA RESULT:      -5.6      2.270      5.540
REMARK  3 active torsions:
REMARK  status: ('A' for Active; 'I' for Inactive)
REMARK    1  A    between atoms: N_1  and  C_7 
REMARK    2  A    between atoms: C_16  and  C_19 
REMARK    3  A    between atoms: O_18  and  C_19 
ROOT
HETATM    1  N   UNL     1     -41.361 -49.249  11.694  1.00  0.00    -0.300 N 
HETATM    2  C   UNL     1     -41.936 -50.403  12.157  1.00  0.00     0.144 A 
HETATM    3  C   UNL     1     -40.950 -51.362  12.042  1.00  0.00     0.146 A 
HETATM    4  N   UNL     1     -39.786 -50.830  11.550  1.00  0.00    -0.345 N 
ATOM      5  HN  UNL     1     -38.903 -51.311  11.377  1.00  0.00     0.167 HD
HETATM    6  C   UNL     1     -40.066 -49.556  11.351  1.00  0.00     0.188 A 
HETATM    7  N   UNL     1     -43.207 -50.559  12.612  1.00  0.00    -0.336 N 
ATOM      8  HN  UNL     1     -43.885 -49.800  12.674  1.00  0.00     0.168 HD
HETATM    9  C   UNL     1     -41.269 -52.721  12.429  1.00  0.00     0.277 A 
HETATM   10  N   UNL     1     -42.573 -52.845  12.886  1.00  0.00    -0.318 N 
HETATM   11  C   UNL     1     -43.462 -51.787  12.958  1.00  0.00     0.185 A 
HETATM   12  O   UNL     1     -40.513 -53.688  12.371  1.00  0.00    -0.266 OA
HETATM   13  H   UNL     1     -42.847 -53.774  13.165  1.00  0.00     0.169 HD
ENDROOT
BRANCH   1  14
HETATM   14  C   UNL     1     -42.015 -47.969  11.530  1.00  0.00     0.231 C 
HETATM   15  O   UNL     1     -43.180 -48.104  10.684  1.00  0.00    -0.359 OA
HETATM   16  C   UNL     1     -43.400 -46.837  10.025  1.00  0.00     0.147 C 
HETATM   17  C   UNL     1     -42.240 -45.926  10.410  1.00  0.00     0.038 C 
HETATM   18  C   UNL     1     -41.173 -46.887  10.881  1.00  0.00     0.057 C 
BRANCH  16  19
HETATM   19  C   UNL     1     -43.559 -47.041   8.513  1.00  0.00     0.196 C 
BRANCH  19  20
HETATM   20  O   UNL     1     -42.734 -46.144   7.775  1.00  0.00    -0.398 OA
HETATM   21  H   UNL     1     -43.274 -45.803   7.039  1.00  0.00     0.209 HD
ENDBRANCH  19  20
ENDBRANCH  16  19
ENDBRANCH   1  14
TORSDOF 3
ENDMDL
MODEL 5
REMARK VINA RESULT:      -5.6      2.260      5.211
REMARK  3 active torsions:
REMARK  status: ('A' for Active; 'I' for Inactive)
REMARK    1  A    between atoms: N_1  and  C_7 
REMARK    2  A    between atoms: C_16  and  C_19 
REMARK    3  A    between atoms: O_18  and  C_19 
ROOT
HETATM    1  N   UNL     1     -41.021 -48.041  11.532  1.00  0.00    -0.300 N 
HETATM    2  C   UNL     1     -40.937 -49.387  11.775  1.00  0.00     0.144 A 
HETATM    3  C   UNL     1     -39.610 -49.612  12.077  1.00  0.00     0.146 A 
HETATM    4  N   UNL     1     -38.885 -48.448  12.054  1.00  0.00    -0.345 N 
ATOM      5  HN  UNL     1     -37.891 -48.327  12.248  1.00  0.00     0.167 HD
HETATM    6  C   UNL     1     -39.763 -47.522  11.722  1.00  0.00     0.188 A 
HETATM    7  N   UNL     1     -41.946 -50.295  11.711  1.00  0.00    -0.336 N 
ATOM      8  HN  UNL     1     -42.912 -50.055  11.485  1.00  0.00     0.168 HD
HETATM    9  C   UNL     1     -39.191 -50.971  12.355  1.00  0.00     0.277 A 
HETATM   10  N   UNL     1     -40.245 -51.870  12.280  1.00  0.00    -0.318 N 
HETATM   11  C   UNL     1     -41.542 -51.504  11.971  1.00  0.00     0.185 A 
HETATM   12  O   UNL     1     -38.050 -51.338  12.622  1.00  0.00    -0.266 OA
HETATM   13  H   UNL     1     -40.006 -52.833  12.461  1.00  0.00     0.169 HD
ENDROOT
BRANCH   1  14
HETATM   14  C   UNL     1     -42.194 -47.319  11.089  1.00  0.00     0.231 C 
HETATM   15  O   UNL     1     -42.997 -48.150  10.219  1.00  0.00    -0.359 OA
HETATM   16  C   UNL     1     -43.719 -47.281   9.319  1.00  0.00     0.147 C 
HETATM   17  C   UNL     1     -43.239 -45.859   9.588  1.00  0.00     0.038 C 
HETATM   18  C   UNL     1     -41.918 -46.057  10.295  1.00  0.00     0.057 C 
BRANCH  16  19
HETATM   19  C   UNL     1     -43.530 -47.739   7.866  1.00  0.00     0.196 C 
BRANCH  19  20
HETATM   20  O   UNL     1     -44.721 -48.317   7.341  1.00  0.00    -0.398 OA
HETATM   21  H   UNL     1     -45.370 -47.596   7.249  1.00  0.00     0.209 HD
ENDBRANCH  19  20
ENDBRANCH  16  19
ENDBRANCH   1  14
TORSDOF 3
ENDMDL
MODEL 6
REMARK VINA RESULT:      -5.5      3.830      5.714
REMARK  3 active torsions:
REMARK  status: ('A' for Active; 'I' for Inactive)
REMARK    1  A    between atoms: N_1  and  C_7 
REMARK    2  A    between atoms: C_16  and  C_19 
REMARK    3  A    between atoms: O_18  and  C_19 
ROOT
HETATM    1  N   UNL     1     -43.614 -50.657  13.952  1.00  0.00    -0.300 N 
HETATM    2  C   UNL     1     -42.697 -51.171  13.073  1.00  0.00     0.144 A 
HETATM    3  C   UNL     1     -41.900 -50.099  12.724  1.00  0.00     0.146 A 
HETATM    4  N   UNL     1     -42.281 -48.955  13.378  1.00  0.00    -0.345 N 
ATOM      5  HN  UNL     1     -41.860 -48.029  13.313  1.00  0.00     0.167 HD
HETATM    6  C   UNL     1     -43.315 -49.325  14.109  1.00  0.00     0.188 A 
HETATM    7  N   UNL     1     -42.612 -52.454  12.635  1.00  0.00    -0.336 N 
ATOM      8  HN  UNL     1     -43.236 -53.201  12.941  1.00  0.00     0.168 HD
HETATM    9  C   UNL     1     -40.837 -50.319  11.765  1.00  0.00     0.277 A 
HETATM   10  N   UNL     1     -40.781 -51.638  11.338  1.00  0.00    -0.318 N 
HETATM   11  C   UNL     1     -41.646 -52.623  11.780  1.00  0.00     0.185 A 
HETATM   12  O   UNL     1     -40.057 -49.471  11.340  1.00  0.00    -0.266 OA
HETATM   13  H   UNL     1     -40.059 -51.845  10.665  1.00  0.00     0.169 HD
ENDROOT
BRANCH   1  14
HETATM   14  C   UNL     1     -44.728 -51.366  14.543  1.00  0.00     0.231 C 
HETATM   15  O   UNL     1     -44.370 -52.745  14.793  1.00  0.00    -0.359 OA
HETATM   16  C   UNL     1     -45.579 -53.534  14.738  1.00  0.00     0.147 C 
HETATM   17  C   UNL     1     -46.706 -52.596  14.321  1.00  0.00     0.038 C 
HETATM   18  C   UNL     1     -45.984 -51.426  13.694  1.00  0.00     0.057 C 
BRANCH  16  19
HETATM   19  C   UNL     1     -45.390 -54.737  13.803  1.00  0.00     0.196 C 
BRANCH  19  20
HETATM   20  O   UNL     1     -44.821 -54.346  12.557  1.00  0.00    -0.398 OA
HETATM   21  H   UNL     1     -45.401 -54.699  11.858  1.00  0.00     0.209 HD
ENDBRANCH  19  20
ENDBRANCH  16  19
ENDBRANCH   1  14
TORSDOF 3
ENDMDL
MODEL 7
REMARK VINA RESULT:      -5.4      4.596      6.591
REMARK  3 active torsions:
REMARK  status: ('A' for Active; 'I' for Inactive)
REMARK    1  A    between atoms: N_1  and  C_7 
REMARK    2  A    between atoms: C_16  and  C_19 
REMARK    3  A    between atoms: O_18  and  C_19 
ROOT
HETATM    1  N   UNL     1     -42.133 -52.646  13.077  1.00  0.00    -0.300 N 
HETATM    2  C   UNL     1     -43.495 -52.793  13.047  1.00  0.00     0.144 A 
HETATM    3  C   UNL     1     -43.728 -54.049  13.568  1.00  0.00     0.146 A 
HETATM    4  N   UNL     1     -42.561 -54.665  13.939  1.00  0.00    -0.345 N 
ATOM      5  HN  UNL     1     -42.446 -55.588  14.358  1.00  0.00     0.167 HD
HETATM    6  C   UNL     1     -41.619 -53.794  13.631  1.00  0.00     0.188 A 
HETATM    7  N   UNL     1     -44.405 -51.896  12.587  1.00  0.00    -0.336 N 
ATOM      8  HN  UNL     1     -44.160 -50.977  12.218  1.00  0.00     0.168 HD
HETATM    9  C   UNL     1     -45.098 -54.518  13.639  1.00  0.00     0.277 A 
HETATM   10  N   UNL     1     -45.999 -53.578  13.159  1.00  0.00    -0.318 N 
HETATM   11  C   UNL     1     -45.625 -52.340  12.668  1.00  0.00     0.185 A 
HETATM   12  O   UNL     1     -45.469 -55.611  14.057  1.00  0.00    -0.266 OA
HETATM   13  H   UNL     1     -46.968 -53.857  13.183  1.00  0.00     0.169 HD
ENDROOT
BRANCH   1  14
HETATM   14  C   UNL     1     -41.378 -51.526  12.558  1.00  0.00     0.231 C 
HETATM   15  O   UNL     1     -40.044 -51.945  12.191  1.00  0.00    -0.359 OA
HETATM   16  C   UNL     1     -39.169 -50.803  12.319  1.00  0.00     0.147 C 
HETATM   17  C   UNL     1     -40.001 -49.666  12.902  1.00  0.00     0.038 C 
HETATM   18  C   UNL     1     -41.184 -50.371  13.522  1.00  0.00     0.057 C 
BRANCH  16  19
HETATM   19  C   UNL     1     -37.935 -51.165  13.156  1.00  0.00     0.196 C 
BRANCH  19  20
HETATM   20  O   UNL     1     -36.889 -51.692  12.345  1.00  0.00    -0.398 OA
HETATM   21  H   UNL     1     -37.007 -51.320  11.452  1.00  0.00     0.209 HD
ENDBRANCH  19  20
ENDBRANCH  16  19
ENDBRANCH   1  14
TORSDOF 3
ENDMDL
MODEL 8
REMARK VINA RESULT:      -5.3      3.701      5.645
REMARK  3 active torsions:
REMARK  status: ('A' for Active; 'I' for Inactive)
REMARK    1  A    between atoms: N_1  and  C_7 
REMARK    2  A    between atoms: C_16  and  C_19 
REMARK    3  A    between atoms: O_18  and  C_19 
ROOT
HETATM    1  N   UNL     1     -40.663 -52.436  13.185  1.00  0.00    -0.300 N 
HETATM    2  C   UNL     1     -40.373 -51.310  12.458  1.00  0.00     0.144 A 
HETATM    3  C   UNL     1     -39.381 -50.672  13.174  1.00  0.00     0.146 A 
HETATM    4  N   UNL     1     -39.036 -51.379  14.297  1.00  0.00    -0.345 N 
ATOM      5  HN  UNL     1     -38.329 -51.142  14.993  1.00  0.00     0.167 HD
HETATM    6  C   UNL     1     -39.826 -52.436  14.274  1.00  0.00     0.188 A 
HETATM    7  N   UNL     1     -40.955 -50.912  11.297  1.00  0.00    -0.336 N 
ATOM      8  HN  UNL     1     -41.685 -51.440  10.818  1.00  0.00     0.168 HD
HETATM    9  C   UNL     1     -38.876 -49.411  12.670  1.00  0.00     0.277 A 
HETATM   10  N   UNL     1     -39.493 -49.034  11.485  1.00  0.00    -0.318 N 
HETATM   11  C   UNL     1     -40.478 -49.781  10.865  1.00  0.00     0.185 A 
HETATM   12  O   UNL     1     -38.012 -48.714  13.195  1.00  0.00    -0.266 OA
HETATM   13  H   UNL     1     -39.180 -48.160  11.093  1.00  0.00     0.169 HD
ENDROOT
BRANCH   1  14
HETATM   14  C   UNL     1     -41.703 -53.400  12.896  1.00  0.00     0.231 C 
HETATM   15  O   UNL     1     -42.777 -52.774  12.157  1.00  0.00    -0.359 OA
HETATM   16  C   UNL     1     -43.996 -53.493  12.453  1.00  0.00     0.147 C 
HETATM   17  C   UNL     1     -43.654 -54.535  13.512  1.00  0.00     0.038 C 
HETATM   18  C   UNL     1     -42.362 -54.027  14.109  1.00  0.00     0.057 C 
BRANCH  16  19
HETATM   19  C   UNL     1     -45.104 -52.518  12.872  1.00  0.00     0.196 C 
BRANCH  19  20
HETATM   20  O   UNL     1     -46.345 -52.838  12.251  1.00  0.00    -0.398 OA
HETATM   21  H   UNL     1     -46.136 -53.327  11.434  1.00  0.00     0.209 HD
ENDBRANCH  19  20
ENDBRANCH  16  19
ENDBRANCH   1  14
TORSDOF 3
ENDMDL
MODEL 9
REMARK VINA RESULT:      -5.2      2.871      4.520
REMARK  3 active torsions:
REMARK  status: ('A' for Active; 'I' for Inactive)
REMARK    1  A    between atoms: N_1  and  C_7 
REMARK    2  A    between atoms: C_16  and  C_19 
REMARK    3  A    between atoms: O_18  and  C_19 
ROOT
HETATM    1  N   UNL     1     -42.331 -51.058  13.284  1.00  0.00    -0.300 N 
HETATM    2  C   UNL     1     -41.396 -50.416  12.515  1.00  0.00     0.144 A 
HETATM    3  C   UNL     1     -42.089 -49.398  11.891  1.00  0.00     0.146 A 
HETATM    4  N   UNL     1     -43.406 -49.380  12.270  1.00  0.00    -0.345 N 
ATOM      5  HN  UNL     1     -44.134 -48.731  11.971  1.00  0.00     0.167 HD
HETATM    6  C   UNL     1     -43.519 -50.391  13.110  1.00  0.00     0.188 A 
HETATM    7  N   UNL     1     -40.081 -50.732  12.390  1.00  0.00    -0.336 N 
ATOM      8  HN  UNL     1     -39.632 -51.500  12.889  1.00  0.00     0.168 HD
HETATM    9  C   UNL     1     -41.368 -48.545  10.968  1.00  0.00     0.277 A 
HETATM   10  N   UNL     1     -40.030 -48.897  10.864  1.00  0.00    -0.318 N 
HETATM   11  C   UNL     1     -39.459 -49.946  11.561  1.00  0.00     0.185 A 
HETATM   12  O   UNL     1     -41.840 -47.612  10.323  1.00  0.00    -0.266 OA
HETATM   13  H   UNL     1     -39.483 -48.335  10.230  1.00  0.00     0.169 HD
ENDROOT
BRANCH   1  14
HETATM   14  C   UNL     1     -42.121 -52.254  14.071  1.00  0.00     0.231 C 
HETATM   15  O   UNL     1     -40.810 -52.231  14.681  1.00  0.00    -0.359 OA
HETATM   16  C   UNL     1     -40.384 -53.599  14.869  1.00  0.00     0.147 C 
HETATM   17  C   UNL     1     -41.448 -54.489  14.237  1.00  0.00     0.038 C 
HETATM   18  C   UNL     1     -42.181 -53.558  13.299  1.00  0.00     0.057 C 
BRANCH  16  19
HETATM   19  C   UNL     1     -38.976 -53.804  14.295  1.00  0.00     0.196 C 
BRANCH  19  20
HETATM   20  O   UNL     1     -38.948 -54.866  13.346  1.00  0.00    -0.398 OA
HETATM   21  H   UNL     1     -38.047 -54.894  12.977  1.00  0.00     0.209 HD
ENDBRANCH  19  20
ENDBRANCH  16  19
ENDBRANCH   1  14
TORSDOF 3
ENDMDL
