MODEL 1
REMARK VINA RESULT:      -6.0      0.000      0.000
REMARK  6 active torsions:
REMARK  status: ('A' for Active; 'I' for Inactive)
REMARK    1  A    between atoms: N_5  and  C_6 
REMARK    2  A    between atoms: C_6  and  C_7 
REMARK    3  A    between atoms: C_7  and  O_8 
REMARK    4  A    between atoms: C_7  and  C_9 
REMARK    5  A    between atoms: C_9  and  O_10 
REMARK    6  A    between atoms: O_10  and  C_11 
ROOT
HETATM    1  C   UNL     1     -41.154 -52.414  11.671  1.00  0.00     0.168 C 
ENDROOT
BRANCH   1   2
HETATM    2  N   UNL     1     -41.286 -53.225  12.857  1.00  0.00    -0.295 N 
HETATM    3  C   UNL     1     -40.238 -53.492  13.768  1.00  0.00     0.329 A 
HETATM    4  N   UNL     1     -40.788 -54.322  14.769  1.00  0.00    -0.302 N 
HETATM    5  O   UNL     1     -39.085 -53.098  13.681  1.00  0.00    -0.246 OA
HETATM    6  C   UNL     1     -40.076 -54.878  15.882  1.00  0.00     0.161 C 
HETATM    7  C   UNL     1     -42.144 -54.536  14.489  1.00  0.00     0.065 A 
HETATM    8  C   UNL     1     -42.455 -53.849  13.313  1.00  0.00     0.066 A 
HETATM    9  C   UNL     1     -43.086 -55.276  15.172  1.00  0.00     0.032 A 
HETATM   10  C   UNL     1     -43.728 -53.867  12.778  1.00  0.00     0.032 A 
HETATM   11  C   UNL     1     -44.698 -54.611  13.461  1.00  0.00     0.002 A 
HETATM   12  C   UNL     1     -44.380 -55.310  14.643  1.00  0.00     0.002 A 
ENDBRANCH   1   2
BRANCH   1  13
HETATM   13  C   UNL     1     -41.018 -50.913  11.971  1.00  0.00     0.161 C 
BRANCH  13  14
HETATM   14  O   UNL     1     -40.434 -50.219  10.858  1.00  0.00    -0.392 OA
HETATM   15  H   UNL     1     -40.102 -49.356  11.164  1.00  0.00     0.210 HD
ENDBRANCH  13  14
BRANCH  13  16
HETATM   16  C   UNL     1     -42.400 -50.304  12.289  1.00  0.00     0.209 C 
BRANCH  16  17
HETATM   17  O   UNL     1     -42.552 -50.258  13.708  1.00  0.00    -0.349 OA
BRANCH  17  18
HETATM   18  C   UNL     1     -43.754 -50.656  14.218  1.00  0.00     0.068 A 
HETATM   19  C   UNL     1     -44.773 -50.783  13.271  1.00  0.00     0.037 A 
HETATM   20  C   UNL     1     -46.052 -51.190  13.652  1.00  0.00     0.003 A 
HETATM   21  C   UNL     1     -46.314 -51.492  14.985  1.00  0.00     0.000 A 
HETATM   22  C   UNL     1     -45.295 -51.392  15.932  1.00  0.00     0.003 A 
HETATM   23  C   UNL     1     -44.015 -50.974  15.551  1.00  0.00     0.037 A 
ENDBRANCH  17  18
ENDBRANCH  16  17
ENDBRANCH  13  16
ENDBRANCH   1  13
TORSDOF 6
ENDMDL
MODEL 2
REMARK VINA RESULT:      -5.8      2.131      4.601
REMARK  6 active torsions:
REMARK  status: ('A' for Active; 'I' for Inactive)
REMARK    1  A    between atoms: N_5  and  C_6 
REMARK    2  A    between atoms: C_6  and  C_7 
REMARK    3  A    between atoms: C_7  and  O_8 
REMARK    4  A    between atoms: C_7  and  C_9 
REMARK    5  A    between atoms: C_9  and  O_10 
REMARK    6  A    between atoms: O_10  and  C_11 
ROOT
HETATM    1  C   UNL     1     -41.379 -52.361  13.818  1.00  0.00     0.168 C 
ENDROOT
BRANCH   1   2
HETATM    2  N   UNL     1     -40.758 -51.292  13.074  1.00  0.00    -0.295 N 
HETATM    3  C   UNL     1     -39.390 -51.249  12.722  1.00  0.00     0.329 A 
HETATM    4  N   UNL     1     -39.203 -50.041  12.015  1.00  0.00    -0.302 N 
HETATM    5  O   UNL     1     -38.543 -52.083  13.003  1.00  0.00    -0.246 OA
HETATM    6  C   UNL     1     -37.957 -49.555  11.498  1.00  0.00     0.161 C 
HETATM    7  C   UNL     1     -40.432 -49.377  11.916  1.00  0.00     0.065 A 
HETATM    8  C   UNL     1     -41.397 -50.155  12.561  1.00  0.00     0.066 A 
HETATM    9  C   UNL     1     -40.746 -48.171  11.324  1.00  0.00     0.032 A 
HETATM   10  C   UNL     1     -42.718 -49.762  12.630  1.00  0.00     0.032 A 
HETATM   11  C   UNL     1     -43.054 -48.542  12.031  1.00  0.00     0.002 A 
HETATM   12  C   UNL     1     -42.078 -47.754  11.387  1.00  0.00     0.002 A 
ENDBRANCH   1   2
BRANCH   1  13
HETATM   13  C   UNL     1     -41.903 -53.499  12.927  1.00  0.00     0.161 C 
BRANCH  13  14
HETATM   14  O   UNL     1     -40.820 -54.299  12.429  1.00  0.00    -0.392 OA
HETATM   15  H   UNL     1     -40.015 -53.753  12.395  1.00  0.00     0.210 HD
ENDBRANCH  13  14
BRANCH  13  16
HETATM   16  C   UNL     1     -42.880 -54.392  13.721  1.00  0.00     0.209 C 
BRANCH  16  17
HETATM   17  O   UNL     1     -44.143 -54.374  13.056  1.00  0.00    -0.349 OA
BRANCH  17  18
HETATM   18  C   UNL     1     -45.007 -53.370  13.389  1.00  0.00     0.068 A 
HETATM   19  C   UNL     1     -45.102 -53.116  14.760  1.00  0.00     0.037 A 
HETATM   20  C   UNL     1     -45.941 -52.112  15.241  1.00  0.00     0.003 A 
HETATM   21  C   UNL     1     -46.678 -51.339  14.349  1.00  0.00     0.000 A 
HETATM   22  C   UNL     1     -46.569 -51.569  12.977  1.00  0.00     0.003 A 
HETATM   23  C   UNL     1     -45.735 -52.584  12.495  1.00  0.00     0.037 A 
ENDBRANCH  17  18
ENDBRANCH  16  17
ENDBRANCH  13  16
ENDBRANCH   1  13
TORSDOF 6
ENDMDL
MODEL 3
REMARK VINA RESULT:      -5.6      2.627      4.654
REMARK  6 active torsions:
REMARK  status: ('A' for Active; 'I' for Inactive)
REMARK    1  A    between atoms: N_5  and  C_6 
REMARK    2  A    between atoms: C_6  and  C_7 
REMARK    3  A    between atoms: C_7  and  O_8 
REMARK    4  A    between atoms: C_7  and  C_9 
REMARK    5  A    between atoms: C_9  and  O_10 
REMARK    6  A    between atoms: O_10  and  C_11 
ROOT
HETATM    1  C   UNL     1     -43.097 -53.162  17.220  1.00  0.00     0.168 C 
ENDROOT
BRANCH   1   2
HETATM    2  N   UNL     1     -42.644 -52.988  15.861  1.00  0.00    -0.295 N 
HETATM    3  C   UNL     1     -41.944 -53.964  15.116  1.00  0.00     0.329 A 
HETATM    4  N   UNL     1     -41.689 -53.387  13.853  1.00  0.00    -0.302 N 
HETATM    5  O   UNL     1     -41.611 -55.072  15.508  1.00  0.00    -0.246 OA
HETATM    6  C   UNL     1     -40.964 -54.004  12.781  1.00  0.00     0.161 C 
HETATM    7  C   UNL     1     -42.241 -52.101  13.819  1.00  0.00     0.065 A 
HETATM    8  C   UNL     1     -42.842 -51.857  15.057  1.00  0.00     0.066 A 
HETATM    9  C   UNL     1     -42.242 -51.160  12.810  1.00  0.00     0.032 A 
HETATM   10  C   UNL     1     -43.479 -50.663  15.331  1.00  0.00     0.032 A 
HETATM   11  C   UNL     1     -43.492 -49.698  14.316  1.00  0.00     0.002 A 
HETATM   12  C   UNL     1     -42.879 -49.943  13.071  1.00  0.00     0.002 A 
ENDBRANCH   1   2
BRANCH   1  13
HETATM   13  C   UNL     1     -44.054 -54.352  17.396  1.00  0.00     0.161 C 
BRANCH  13  14
HETATM   14  O   UNL     1     -43.890 -54.955  18.688  1.00  0.00    -0.392 OA
HETATM   15  H   UNL     1     -42.948 -54.918  18.935  1.00  0.00     0.210 HD
ENDBRANCH  13  14
BRANCH  13  16
HETATM   16  C   UNL     1     -45.517 -53.889  17.227  1.00  0.00     0.209 C 
BRANCH  16  17
HETATM   17  O   UNL     1     -46.018 -54.430  16.004  1.00  0.00    -0.349 OA
BRANCH  17  18
HETATM   18  C   UNL     1     -46.089 -53.586  14.933  1.00  0.00     0.068 A 
HETATM   19  C   UNL     1     -46.718 -52.366  15.196  1.00  0.00     0.037 A 
HETATM   20  C   UNL     1     -46.853 -51.404  14.195  1.00  0.00     0.003 A 
HETATM   21  C   UNL     1     -46.341 -51.651  12.925  1.00  0.00     0.000 A 
HETATM   22  C   UNL     1     -45.690 -52.856  12.662  1.00  0.00     0.003 A 
HETATM   23  C   UNL     1     -45.563 -53.824  13.663  1.00  0.00     0.037 A 
ENDBRANCH  17  18
ENDBRANCH  16  17
ENDBRANCH  13  16
ENDBRANCH   1  13
TORSDOF 6
ENDMDL
MODEL 4
REMARK VINA RESULT:      -5.6      2.357      5.309
REMARK  6 active torsions:
REMARK  status: ('A' for Active; 'I' for Inactive)
REMARK    1  A    between atoms: N_5  and  C_6 
REMARK    2  A    between atoms: C_6  and  C_7 
REMARK    3  A    between atoms: C_7  and  O_8 
REMARK    4  A    between atoms: C_7  and  C_9 
REMARK    5  A    between atoms: C_9  and  O_10 
REMARK    6  A    between atoms: O_10  and  C_11 
ROOT
HETATM    1  C   UNL     1     -40.824 -54.148  12.833  1.00  0.00     0.168 C 
ENDROOT
BRANCH   1   2
HETATM    2  N   UNL     1     -41.927 -53.373  13.347  1.00  0.00    -0.295 N 
HETATM    3  C   UNL     1     -42.902 -53.861  14.247  1.00  0.00     0.329 A 
HETATM    4  N   UNL     1     -43.792 -52.790  14.482  1.00  0.00    -0.302 N 
HETATM    5  O   UNL     1     -42.965 -54.992  14.702  1.00  0.00    -0.246 OA
HETATM    6  C   UNL     1     -44.966 -52.840  15.305  1.00  0.00     0.161 C 
HETATM    7  C   UNL     1     -43.357 -51.670  13.763  1.00  0.00     0.065 A 
HETATM    8  C   UNL     1     -42.197 -52.025  13.070  1.00  0.00     0.066 A 
HETATM    9  C   UNL     1     -43.900 -50.404  13.676  1.00  0.00     0.032 A 
HETATM   10  C   UNL     1     -41.528 -51.124  12.267  1.00  0.00     0.032 A 
HETATM   11  C   UNL     1     -42.063 -49.834  12.170  1.00  0.00     0.002 A 
HETATM   12  C   UNL     1     -43.238 -49.479  12.864  1.00  0.00     0.002 A 
ENDBRANCH   1   2
BRANCH   1  13
HETATM   13  C   UNL     1     -39.774 -54.496  13.901  1.00  0.00     0.161 C 
BRANCH  13  14
HETATM   14  O   UNL     1     -38.720 -55.293  13.341  1.00  0.00    -0.392 OA
HETATM   15  H   UNL     1     -37.996 -54.705  13.059  1.00  0.00     0.210 HD
ENDBRANCH  13  14
BRANCH  13  16
HETATM   16  C   UNL     1     -39.178 -53.206  14.504  1.00  0.00     0.209 C 
BRANCH  16  17
HETATM   17  O   UNL     1     -38.239 -52.669  13.571  1.00  0.00    -0.349 OA
BRANCH  17  18
HETATM   18  C   UNL     1     -38.262 -51.318  13.374  1.00  0.00     0.068 A 
HETATM   19  C   UNL     1     -38.745 -50.581  14.458  1.00  0.00     0.037 A 
HETATM   20  C   UNL     1     -38.816 -49.189  14.396  1.00  0.00     0.003 A 
HETATM   21  C   UNL     1     -38.384 -48.523  13.253  1.00  0.00     0.000 A 
HETATM   22  C   UNL     1     -37.876 -49.252  12.177  1.00  0.00     0.003 A 
HETATM   23  C   UNL     1     -37.815 -50.648  12.235  1.00  0.00     0.037 A 
ENDBRANCH  17  18
ENDBRANCH  16  17
ENDBRANCH  13  16
ENDBRANCH   1  13
TORSDOF 6
ENDMDL
MODEL 5
REMARK VINA RESULT:      -5.5      1.837      2.578
REMARK  6 active torsions:
REMARK  status: ('A' for Active; 'I' for Inactive)
REMARK    1  A    between atoms: N_5  and  C_6 
REMARK    2  A    between atoms: C_6  and  C_7 
REMARK    3  A    between atoms: C_7  and  O_8 
REMARK    4  A    between atoms: C_7  and  C_9 
REMARK    5  A    between atoms: C_9  and  O_10 
REMARK    6  A    between atoms: O_10  and  C_11 
ROOT
HETATM    1  C   UNL     1     -41.109 -51.923  13.439  1.00  0.00     0.168 C 
ENDROOT
BRANCH   1   2
HETATM    2  N   UNL     1     -40.839 -52.896  14.469  1.00  0.00    -0.295 N 
HETATM    3  C   UNL     1     -39.703 -53.737  14.502  1.00  0.00     0.329 A 
HETATM    4  N   UNL     1     -39.834 -54.532  15.661  1.00  0.00    -0.302 N 
HETATM    5  O   UNL     1     -38.807 -53.776  13.672  1.00  0.00    -0.246 OA
HETATM    6  C   UNL     1     -38.929 -55.562  16.079  1.00  0.00     0.161 C 
HETATM    7  C   UNL     1     -41.008 -54.168  16.333  1.00  0.00     0.065 A 
HETATM    8  C   UNL     1     -41.625 -53.148  15.602  1.00  0.00     0.066 A 
HETATM    9  C   UNL     1     -41.555 -54.662  17.499  1.00  0.00     0.032 A 
HETATM   10  C   UNL     1     -42.810 -52.575  16.016  1.00  0.00     0.032 A 
HETATM   11  C   UNL     1     -43.377 -53.063  17.200  1.00  0.00     0.002 A 
HETATM   12  C   UNL     1     -42.758 -54.097  17.932  1.00  0.00     0.002 A 
ENDBRANCH   1   2
BRANCH   1  13
HETATM   13  C   UNL     1     -41.704 -52.536  12.162  1.00  0.00     0.161 C 
BRANCH  13  14
HETATM   14  O   UNL     1     -40.686 -53.184  11.383  1.00  0.00    -0.392 OA
HETATM   15  H   UNL     1     -40.335 -53.938  11.890  1.00  0.00     0.210 HD
ENDBRANCH  13  14
BRANCH  13  16
HETATM   16  C   UNL     1     -42.803 -53.558  12.521  1.00  0.00     0.209 C 
BRANCH  16  17
HETATM   17  O   UNL     1     -44.067 -53.000  12.161  1.00  0.00    -0.349 OA
BRANCH  17  18
HETATM   18  C   UNL     1     -45.018 -52.930  13.138  1.00  0.00     0.068 A 
HETATM   19  C   UNL     1     -45.537 -51.651  13.355  1.00  0.00     0.037 A 
HETATM   20  C   UNL     1     -46.522 -51.436  14.318  1.00  0.00     0.003 A 
HETATM   21  C   UNL     1     -47.010 -52.507  15.061  1.00  0.00     0.000 A 
HETATM   22  C   UNL     1     -46.515 -53.791  14.833  1.00  0.00     0.003 A 
HETATM   23  C   UNL     1     -45.520 -54.005  13.873  1.00  0.00     0.037 A 
ENDBRANCH  17  18
ENDBRANCH  16  17
ENDBRANCH  13  16
ENDBRANCH   1  13
TORSDOF 6
ENDMDL
MODEL 6
REMARK VINA RESULT:      -5.5      1.772      2.358
REMARK  6 active torsions:
REMARK  status: ('A' for Active; 'I' for Inactive)
REMARK    1  A    between atoms: N_5  and  C_6 
REMARK    2  A    between atoms: C_6  and  C_7 
REMARK    3  A    between atoms: C_7  and  O_8 
REMARK    4  A    between atoms: C_7  and  C_9 
REMARK    5  A    between atoms: C_9  and  O_10 
REMARK    6  A    between atoms: O_10  and  C_11 
ROOT
HETATM    1  C   UNL     1     -41.668 -54.353  13.335  1.00  0.00     0.168 C 
ENDROOT
BRANCH   1   2
HETATM    2  N   UNL     1     -42.356 -54.163  14.589  1.00  0.00    -0.295 N 
HETATM    3  C   UNL     1     -41.738 -53.747  15.790  1.00  0.00     0.329 A 
HETATM    4  N   UNL     1     -42.760 -53.697  16.763  1.00  0.00    -0.302 N 
HETATM    5  O   UNL     1     -40.550 -53.508  15.948  1.00  0.00    -0.246 OA
HETATM    6  C   UNL     1     -42.586 -53.363  18.146  1.00  0.00     0.161 C 
HETATM    7  C   UNL     1     -43.976 -54.049  16.164  1.00  0.00     0.065 A 
HETATM    8  C   UNL     1     -43.730 -54.326  14.816  1.00  0.00     0.066 A 
HETATM    9  C   UNL     1     -45.240 -54.145  16.709  1.00  0.00     0.032 A 
HETATM   10  C   UNL     1     -44.742 -54.701  13.957  1.00  0.00     0.032 A 
HETATM   11  C   UNL     1     -46.032 -54.801  14.493  1.00  0.00     0.002 A 
HETATM   12  C   UNL     1     -46.278 -54.529  15.854  1.00  0.00     0.002 A 
ENDBRANCH   1   2
BRANCH   1  13
HETATM   13  C   UNL     1     -41.309 -53.034  12.631  1.00  0.00     0.161 C 
BRANCH  13  14
HETATM   14  O   UNL     1     -40.395 -53.265  11.548  1.00  0.00    -0.392 OA
HETATM   15  H   UNL     1     -40.575 -54.142  11.165  1.00  0.00     0.210 HD
ENDBRANCH  13  14
BRANCH  13  16
HETATM   16  C   UNL     1     -42.584 -52.353  12.091  1.00  0.00     0.209 C 
BRANCH  16  17
HETATM   17  O   UNL     1     -42.790 -51.145  12.824  1.00  0.00    -0.349 OA
BRANCH  17  18
HETATM   18  C   UNL     1     -43.896 -51.083  13.623  1.00  0.00     0.068 A 
HETATM   19  C   UNL     1     -43.646 -50.659  14.930  1.00  0.00     0.037 A 
HETATM   20  C   UNL     1     -44.687 -50.542  15.851  1.00  0.00     0.003 A 
HETATM   21  C   UNL     1     -45.991 -50.832  15.464  1.00  0.00     0.000 A 
HETATM   22  C   UNL     1     -46.252 -51.232  14.153  1.00  0.00     0.003 A 
HETATM   23  C   UNL     1     -45.207 -51.358  13.231  1.00  0.00     0.037 A 
ENDBRANCH  17  18
ENDBRANCH  16  17
ENDBRANCH  13  16
ENDBRANCH   1  13
TORSDOF 6
ENDMDL
MODEL 7
REMARK VINA RESULT:      -5.4      2.290      3.941
REMARK  6 active torsions:
REMARK  status: ('A' for Active; 'I' for Inactive)
REMARK    1  A    between atoms: N_5  and  C_6 
REMARK    2  A    between atoms: C_6  and  C_7 
REMARK    3  A    between atoms: C_7  and  O_8 
REMARK    4  A    between atoms: C_7  and  C_9 
REMARK    5  A    between atoms: C_9  and  O_10 
REMARK    6  A    between atoms: O_10  and  C_11 
ROOT
HETATM    1  C   UNL     1     -45.013 -54.202  13.228  1.00  0.00     0.168 C 
ENDROOT
BRANCH   1   2
HETATM    2  N   UNL     1     -44.058 -54.254  14.308  1.00  0.00    -0.295 N 
HETATM    3  C   UNL     1     -44.398 -54.368  15.675  1.00  0.00     0.329 A 
HETATM    4  N   UNL     1     -43.177 -54.375  16.385  1.00  0.00    -0.302 N 
HETATM    5  O   UNL     1     -45.526 -54.422  16.139  1.00  0.00    -0.246 OA
HETATM    6  C   UNL     1     -43.036 -54.435  17.811  1.00  0.00     0.161 C 
HETATM    7  C   UNL     1     -42.118 -54.293  15.472  1.00  0.00     0.065 A 
HETATM    8  C   UNL     1     -42.662 -54.229  14.186  1.00  0.00     0.066 A 
HETATM    9  C   UNL     1     -40.756 -54.263  15.691  1.00  0.00     0.032 A 
HETATM   10  C   UNL     1     -41.861 -54.144  13.065  1.00  0.00     0.032 A 
HETATM   11  C   UNL     1     -40.477 -54.116  13.269  1.00  0.00     0.002 A 
HETATM   12  C   UNL     1     -39.930 -54.172  14.567  1.00  0.00     0.002 A 
ENDBRANCH   1   2
BRANCH   1  13
HETATM   13  C   UNL     1     -45.151 -52.804  12.603  1.00  0.00     0.161 C 
BRANCH  13  14
HETATM   14  O   UNL     1     -46.289 -52.744  11.731  1.00  0.00    -0.392 OA
HETATM   15  H   UNL     1     -46.396 -51.828  11.415  1.00  0.00     0.210 HD
ENDBRANCH  13  14
BRANCH  13  16
HETATM   16  C   UNL     1     -45.293 -51.737  13.708  1.00  0.00     0.209 C 
BRANCH  16  17
HETATM   17  O   UNL     1     -44.497 -50.608  13.344  1.00  0.00    -0.349 OA
BRANCH  17  18
HETATM   18  C   UNL     1     -43.204 -50.590  13.783  1.00  0.00     0.068 A 
HETATM   19  C   UNL     1     -42.250 -50.448  12.772  1.00  0.00     0.037 A 
HETATM   20  C   UNL     1     -40.890 -50.406  13.078  1.00  0.00     0.003 A 
HETATM   21  C   UNL     1     -40.476 -50.488  14.404  1.00  0.00     0.000 A 
HETATM   22  C   UNL     1     -41.424 -50.605  15.421  1.00  0.00     0.003 A 
HETATM   23  C   UNL     1     -42.788 -50.657  15.112  1.00  0.00     0.037 A 
ENDBRANCH  17  18
ENDBRANCH  16  17
ENDBRANCH  13  16
ENDBRANCH   1  13
TORSDOF 6
ENDMDL
MODEL 8
REMARK VINA RESULT:      -5.3      2.525      5.192
REMARK  6 active torsions:
REMARK  status: ('A' for Active; 'I' for Inactive)
REMARK    1  A    between atoms: N_5  and  C_6 
REMARK    2  A    between atoms: C_6  and  C_7 
REMARK    3  A    between atoms: C_7  and  O_8 
REMARK    4  A    between atoms: C_7  and  C_9 
REMARK    5  A    between atoms: C_9  and  O_10 
REMARK    6  A    between atoms: O_10  and  C_11 
ROOT
HETATM    1  C   UNL     1     -42.438 -52.310  12.350  1.00  0.00     0.168 C 
ENDROOT
BRANCH   1   2
HETATM    2  N   UNL     1     -43.540 -52.373  13.280  1.00  0.00    -0.295 N 
HETATM    3  C   UNL     1     -44.549 -53.361  13.264  1.00  0.00     0.329 A 
HETATM    4  N   UNL     1     -45.424 -53.049  14.327  1.00  0.00    -0.302 N 
HETATM    5  O   UNL     1     -44.648 -54.282  12.467  1.00  0.00    -0.246 OA
HETATM    6  C   UNL     1     -46.622 -53.761  14.665  1.00  0.00     0.161 C 
HETATM    7  C   UNL     1     -44.946 -51.912  14.991  1.00  0.00     0.065 A 
HETATM    8  C   UNL     1     -43.774 -51.500  14.352  1.00  0.00     0.066 A 
HETATM    9  C   UNL     1     -45.460 -51.236  16.078  1.00  0.00     0.032 A 
HETATM   10  C   UNL     1     -43.063 -50.398  14.782  1.00  0.00     0.032 A 
HETATM   11  C   UNL     1     -43.569 -49.702  15.886  1.00  0.00     0.002 A 
HETATM   12  C   UNL     1     -44.756 -50.114  16.525  1.00  0.00     0.002 A 
ENDBRANCH   1   2
BRANCH   1  13
HETATM   13  C   UNL     1     -41.370 -53.388  12.597  1.00  0.00     0.161 C 
BRANCH  13  14
HETATM   14  O   UNL     1     -40.536 -53.557  11.441  1.00  0.00    -0.392 OA
HETATM   15  H   UNL     1     -39.773 -52.955  11.512  1.00  0.00     0.210 HD
ENDBRANCH  13  14
BRANCH  13  16
HETATM   16  C   UNL     1     -40.495 -53.004  13.810  1.00  0.00     0.209 C 
BRANCH  16  17
HETATM   17  O   UNL     1     -39.220 -52.584  13.325  1.00  0.00    -0.349 OA
BRANCH  17  18
HETATM   18  C   UNL     1     -38.913 -51.259  13.448  1.00  0.00     0.068 A 
HETATM   19  C   UNL     1     -38.153 -50.738  12.398  1.00  0.00     0.037 A 
HETATM   20  C   UNL     1     -37.776 -49.396  12.390  1.00  0.00     0.003 A 
HETATM   21  C   UNL     1     -38.173 -48.558  13.428  1.00  0.00     0.000 A 
HETATM   22  C   UNL     1     -38.953 -49.066  14.468  1.00  0.00     0.003 A 
HETATM   23  C   UNL     1     -39.324 -50.415  14.480  1.00  0.00     0.037 A 
ENDBRANCH  17  18
ENDBRANCH  16  17
ENDBRANCH  13  16
ENDBRANCH   1  13
TORSDOF 6
ENDMDL
MODEL 9
REMARK VINA RESULT:      -5.3      2.109      4.037
REMARK  6 active torsions:
REMARK  status: ('A' for Active; 'I' for Inactive)
REMARK    1  A    between atoms: N_5  and  C_6 
REMARK    2  A    between atoms: C_6  and  C_7 
REMARK    3  A    between atoms: C_7  and  O_8 
REMARK    4  A    between atoms: C_7  and  C_9 
REMARK    5  A    between atoms: C_9  and  O_10 
REMARK    6  A    between atoms: O_10  and  C_11 
ROOT
HETATM    1  C   UNL     1     -42.481 -54.215  13.215  1.00  0.00     0.168 C 
ENDROOT
BRANCH   1   2
HETATM    2  N   UNL     1     -43.407 -53.808  14.243  1.00  0.00    -0.295 N 
HETATM    3  C   UNL     1     -43.326 -54.201  15.598  1.00  0.00     0.329 A 
HETATM    4  N   UNL     1     -44.420 -53.592  16.251  1.00  0.00    -0.302 N 
HETATM    5  O   UNL     1     -42.487 -54.942  16.089  1.00  0.00    -0.246 OA
HETATM    6  C   UNL     1     -44.762 -53.745  17.636  1.00  0.00     0.161 C 
HETATM    7  C   UNL     1     -45.136 -52.826  15.323  1.00  0.00     0.065 A 
HETATM    8  C   UNL     1     -44.504 -52.950  14.083  1.00  0.00     0.066 A 
HETATM    9  C   UNL     1     -46.272 -52.061  15.489  1.00  0.00     0.032 A 
HETATM   10  C   UNL     1     -44.978 -52.303  12.960  1.00  0.00     0.032 A 
HETATM   11  C   UNL     1     -46.129 -51.520  13.112  1.00  0.00     0.002 A 
HETATM   12  C   UNL     1     -46.770 -51.402  14.362  1.00  0.00     0.002 A 
ENDBRANCH   1   2
BRANCH   1  13
HETATM   13  C   UNL     1     -41.173 -53.406  13.218  1.00  0.00     0.161 C 
BRANCH  13  14
HETATM   14  O   UNL     1     -40.067 -54.220  12.801  1.00  0.00    -0.392 OA
HETATM   15  H   UNL     1     -39.237 -53.758  13.017  1.00  0.00     0.210 HD
ENDBRANCH  13  14
BRANCH  13  16
HETATM   16  C   UNL     1     -41.297 -52.188  12.278  1.00  0.00     0.209 C 
BRANCH  16  17
HETATM   17  O   UNL     1     -41.635 -51.047  13.068  1.00  0.00    -0.349 OA
BRANCH  17  18
HETATM   18  C   UNL     1     -41.963 -49.903  12.399  1.00  0.00     0.068 A 
HETATM   19  C   UNL     1     -41.074 -49.550  11.379  1.00  0.00     0.037 A 
HETATM   20  C   UNL     1     -41.292 -48.408  10.609  1.00  0.00     0.003 A 
HETATM   21  C   UNL     1     -42.414 -47.619  10.842  1.00  0.00     0.000 A 
HETATM   22  C   UNL     1     -43.320 -47.979  11.841  1.00  0.00     0.003 A 
HETATM   23  C   UNL     1     -43.096 -49.119  12.620  1.00  0.00     0.037 A 
ENDBRANCH  17  18
ENDBRANCH  16  17
ENDBRANCH  13  16
ENDBRANCH   1  13
TORSDOF 6
ENDMDL
