MODEL 1
REMARK VINA RESULT:      -5.0      0.000      0.000
REMARK  4 active torsions:
REMARK  status: ('A' for Active; 'I' for Inactive)
REMARK       I    between atoms: C_2  and  N_3 
REMARK    1  A    between atoms: C_2  and  C_13 
REMARK    2  A    between atoms: N_3  and  C_4 
REMARK    3  A    between atoms: C_4  and  C_5 
REMARK    4  A    between atoms: C_5  and  C_6 
ROOT
HETATM    1  C   UNL     1     -42.135 -49.513  12.372  1.00  0.00     0.128 C 
ENDROOT
BRANCH   1   2
HETATM    2  N   UNL     1     -42.903 -48.960  11.266  1.00  0.00    -0.360 N 
HETATM    3  C   UNL     1     -42.350 -48.013  10.425  1.00  0.00     0.221 C 
HETATM    4  O   UNL     1     -41.180 -47.646  10.555  1.00  0.00    -0.273 OA
HETATM    5  H   UNL     1     -43.893 -49.160  11.199  1.00  0.00     0.162 HD
BRANCH   3   6
HETATM    6  C   UNL     1     -43.306 -47.464   9.335  1.00  0.00     0.078 C 
HETATM    7  C   UNL     1     -43.511 -45.932   9.176  1.00  0.00     0.014 C 
HETATM    8  C   UNL     1     -44.995 -46.218   8.880  1.00  0.00     0.002 C 
HETATM    9  C   UNL     1     -44.826 -47.532   9.658  1.00  0.00     0.014 C 
ENDBRANCH   3   6
ENDBRANCH   1   2
BRANCH   1  10
HETATM   10  C   UNL     1     -41.450 -50.824  11.999  1.00  0.00     0.076 C 
BRANCH  10  11
HETATM   11  C   UNL     1     -39.953 -50.725  12.128  1.00  0.00     0.010 A 
HETATM   12  C   UNL     1     -39.288 -51.347  13.182  1.00  0.00     0.025 A 
HETATM   13  C   UNL     1     -37.903 -51.227  13.267  1.00  0.00     0.003 A 
HETATM   14  C   UNL     1     -37.221 -50.501  12.300  1.00  0.00     0.017 A 
HETATM   15  C   UNL     1     -37.959 -49.923  11.280  1.00  0.00     0.088 A 
HETATM   16  N   UNL     1     -39.300 -50.018  11.174  1.00  0.00    -0.369 N 
ATOM     17  HN  UNL     1     -39.803 -49.575  10.405  1.00  0.00     0.165 HD
ENDBRANCH  10  11
ENDBRANCH   1  10
TORSDOF 4
ENDMDL
MODEL 2
REMARK VINA RESULT:      -5.0      2.949      4.767
REMARK  4 active torsions:
REMARK  status: ('A' for Active; 'I' for Inactive)
REMARK       I    between atoms: C_2  and  N_3 
REMARK    1  A    between atoms: C_2  and  C_13 
REMARK    2  A    between atoms: N_3  and  C_4 
REMARK    3  A    between atoms: C_4  and  C_5 
REMARK    4  A    between atoms: C_5  and  C_6 
ROOT
HETATM    1  C   UNL     1     -42.709 -49.142  12.840  1.00  0.00     0.128 C 
ENDROOT
BRANCH   1   2
HETATM    2  N   UNL     1     -43.334 -48.576  11.655  1.00  0.00    -0.360 N 
HETATM    3  C   UNL     1     -42.566 -48.102  10.608  1.00  0.00     0.221 C 
HETATM    4  O   UNL     1     -41.336 -48.190  10.625  1.00  0.00    -0.273 OA
HETATM    5  H   UNL     1     -44.330 -48.393  11.656  1.00  0.00     0.162 HD
BRANCH   3   6
HETATM    6  C   UNL     1     -43.364 -47.464   9.442  1.00  0.00     0.078 C 
HETATM    7  C   UNL     1     -43.486 -45.919   9.332  1.00  0.00     0.014 C 
HETATM    8  C   UNL     1     -44.936 -46.124   8.854  1.00  0.00     0.002 C 
HETATM    9  C   UNL     1     -44.913 -47.475   9.585  1.00  0.00     0.014 C 
ENDBRANCH   3   6
ENDBRANCH   1   2
BRANCH   1  10
HETATM   10  C   UNL     1     -42.957 -50.642  12.962  1.00  0.00     0.076 C 
BRANCH  10  11
HETATM   11  C   UNL     1     -44.310 -50.935  13.554  1.00  0.00     0.010 A 
HETATM   12  C   UNL     1     -44.523 -50.825  14.927  1.00  0.00     0.025 A 
HETATM   13  C   UNL     1     -45.788 -51.110  15.435  1.00  0.00     0.003 A 
HETATM   14  C   UNL     1     -46.803 -51.488  14.566  1.00  0.00     0.017 A 
HETATM   15  C   UNL     1     -46.508 -51.564  13.215  1.00  0.00     0.088 A 
HETATM   16  N   UNL     1     -45.292 -51.297  12.695  1.00  0.00    -0.369 N 
ATOM     17  HN  UNL     1     -45.119 -51.366  11.691  1.00  0.00     0.165 HD
ENDBRANCH  10  11
ENDBRANCH   1  10
TORSDOF 4
ENDMDL
MODEL 3
REMARK VINA RESULT:      -5.0      2.413      6.377
REMARK  4 active torsions:
REMARK  status: ('A' for Active; 'I' for Inactive)
REMARK       I    between atoms: C_2  and  N_3 
REMARK    1  A    between atoms: C_2  and  C_13 
REMARK    2  A    between atoms: N_3  and  C_4 
REMARK    3  A    between atoms: C_4  and  C_5 
REMARK    4  A    between atoms: C_5  and  C_6 
ROOT
HETATM    1  C   UNL     1     -40.739 -49.570  10.920  1.00  0.00     0.128 C 
ENDROOT
BRANCH   1   2
HETATM    2  N   UNL     1     -41.535 -50.652  11.479  1.00  0.00    -0.360 N 
HETATM    3  C   UNL     1     -40.932 -51.696  12.156  1.00  0.00     0.221 C 
HETATM    4  O   UNL     1     -39.714 -51.716  12.349  1.00  0.00    -0.273 OA
HETATM    5  H   UNL     1     -42.518 -50.719  11.247  1.00  0.00     0.162 HD
BRANCH   3   6
HETATM    6  C   UNL     1     -41.896 -52.812  12.637  1.00  0.00     0.078 C 
HETATM    7  C   UNL     1     -42.455 -52.790  14.086  1.00  0.00     0.014 C 
HETATM    8  C   UNL     1     -42.315 -54.324  14.103  1.00  0.00     0.002 C 
HETATM    9  C   UNL     1     -41.238 -54.168  13.018  1.00  0.00     0.014 C 
ENDBRANCH   3   6
ENDBRANCH   1   2
BRANCH   1  10
HETATM   10  C   UNL     1     -41.361 -48.202  11.183  1.00  0.00     0.076 C 
BRANCH  10  11
HETATM   11  C   UNL     1     -42.553 -47.954  10.297  1.00  0.00     0.010 A 
HETATM   12  C   UNL     1     -43.802 -47.679  10.848  1.00  0.00     0.025 A 
HETATM   13  C   UNL     1     -44.880 -47.460   9.994  1.00  0.00     0.003 A 
HETATM   14  C   UNL     1     -44.683 -47.512   8.621  1.00  0.00     0.017 A 
HETATM   15  C   UNL     1     -43.406 -47.781   8.157  1.00  0.00     0.088 A 
HETATM   16  N   UNL     1     -42.345 -48.001   8.960  1.00  0.00    -0.369 N 
ATOM     17  HN  UNL     1     -41.421 -48.197   8.574  1.00  0.00     0.165 HD
ENDBRANCH  10  11
ENDBRANCH   1  10
TORSDOF 4
ENDMDL
MODEL 4
REMARK VINA RESULT:      -4.9      4.187      4.870
REMARK  4 active torsions:
REMARK  status: ('A' for Active; 'I' for Inactive)
REMARK       I    between atoms: C_2  and  N_3 
REMARK    1  A    between atoms: C_2  and  C_13 
REMARK    2  A    between atoms: N_3  and  C_4 
REMARK    3  A    between atoms: C_4  and  C_5 
REMARK    4  A    between atoms: C_5  and  C_6 
ROOT
HETATM    1  C   UNL     1     -42.188 -52.376  12.111  1.00  0.00     0.128 C 
ENDROOT
BRANCH   1   2
HETATM    2  N   UNL     1     -43.469 -51.999  12.690  1.00  0.00    -0.360 N 
HETATM    3  C   UNL     1     -44.523 -52.893  12.719  1.00  0.00     0.221 C 
HETATM    4  O   UNL     1     -44.396 -54.047  12.303  1.00  0.00    -0.273 OA
HETATM    5  H   UNL     1     -43.637 -51.032  12.940  1.00  0.00     0.162 HD
BRANCH   3   6
HETATM    6  C   UNL     1     -45.846 -52.331  13.302  1.00  0.00     0.078 C 
HETATM    7  C   UNL     1     -45.811 -51.210  14.377  1.00  0.00     0.014 C 
HETATM    8  C   UNL     1     -47.004 -51.906  15.060  1.00  0.00     0.002 C 
HETATM    9  C   UNL     1     -46.545 -53.206  14.381  1.00  0.00     0.014 C 
ENDBRANCH   3   6
ENDBRANCH   1   2
BRANCH   1  10
HETATM   10  C   UNL     1     -41.093 -52.496  13.165  1.00  0.00     0.076 C 
BRANCH  10  11
HETATM   11  C   UNL     1     -39.910 -51.623  12.838  1.00  0.00     0.010 A 
HETATM   12  C   UNL     1     -38.743 -51.695  13.597  1.00  0.00     0.025 A 
HETATM   13  C   UNL     1     -37.673 -50.868  13.265  1.00  0.00     0.003 A 
HETATM   14  C   UNL     1     -37.792 -50.001  12.186  1.00  0.00     0.017 A 
HETATM   15  C   UNL     1     -38.982 -50.000  11.480  1.00  0.00     0.088 A 
HETATM   16  N   UNL     1     -40.036 -50.787  11.780  1.00  0.00    -0.369 N 
ATOM     17  HN  UNL     1     -40.896 -50.753  11.232  1.00  0.00     0.165 HD
ENDBRANCH  10  11
ENDBRANCH   1  10
TORSDOF 4
ENDMDL
MODEL 5
REMARK VINA RESULT:      -4.9      1.711      2.032
REMARK  4 active torsions:
REMARK  status: ('A' for Active; 'I' for Inactive)
REMARK       I    between atoms: C_2  and  N_3 
REMARK    1  A    between atoms: C_2  and  C_13 
REMARK    2  A    between atoms: N_3  and  C_4 
REMARK    3  A    between atoms: C_4  and  C_5 
REMARK    4  A    between atoms: C_5  and  C_6 
ROOT
HETATM    1  C   UNL     1     -40.412 -46.981  11.002  1.00  0.00     0.128 C 
ENDROOT
BRANCH   1   2
HETATM    2  N   UNL     1     -41.606 -47.155  10.189  1.00  0.00    -0.360 N 
HETATM    3  C   UNL     1     -42.404 -46.073   9.865  1.00  0.00     0.221 C 
HETATM    4  O   UNL     1     -42.104 -44.928  10.211  1.00  0.00    -0.273 OA
HETATM    5  H   UNL     1     -41.936 -48.089   9.981  1.00  0.00     0.162 HD
BRANCH   3   6
HETATM    6  C   UNL     1     -43.679 -46.417   9.052  1.00  0.00     0.078 C 
HETATM    7  C   UNL     1     -44.811 -47.265   9.697  1.00  0.00     0.014 C 
HETATM    8  C   UNL     1     -44.998 -47.951   8.331  1.00  0.00     0.002 C 
HETATM    9  C   UNL     1     -43.542 -47.571   8.018  1.00  0.00     0.014 C 
ENDBRANCH   3   6
ENDBRANCH   1   2
BRANCH   1  10
HETATM   10  C   UNL     1     -40.465 -47.802  12.286  1.00  0.00     0.076 C 
BRANCH  10  11
HETATM   11  C   UNL     1     -39.375 -48.839  12.328  1.00  0.00     0.010 A 
HETATM   12  C   UNL     1     -39.181 -49.621  13.465  1.00  0.00     0.025 A 
HETATM   13  C   UNL     1     -38.158 -50.566  13.465  1.00  0.00     0.003 A 
HETATM   14  C   UNL     1     -37.366 -50.712  12.335  1.00  0.00     0.017 A 
HETATM   15  C   UNL     1     -37.632 -49.902  11.244  1.00  0.00     0.088 A 
HETATM   16  N   UNL     1     -38.612 -48.975  11.217  1.00  0.00    -0.369 N 
ATOM     17  HN  UNL     1     -38.773 -48.399  10.390  1.00  0.00     0.165 HD
ENDBRANCH  10  11
ENDBRANCH   1  10
TORSDOF 4
ENDMDL
MODEL 6
REMARK VINA RESULT:      -4.9      5.310      8.175
REMARK  4 active torsions:
REMARK  status: ('A' for Active; 'I' for Inactive)
REMARK       I    between atoms: C_2  and  N_3 
REMARK    1  A    between atoms: C_2  and  C_13 
REMARK    2  A    between atoms: N_3  and  C_4 
REMARK    3  A    between atoms: C_4  and  C_5 
REMARK    4  A    between atoms: C_5  and  C_6 
ROOT
HETATM    1  C   UNL     1     -44.550 -54.009  12.586  1.00  0.00     0.128 C 
ENDROOT
BRANCH   1   2
HETATM    2  N   UNL     1     -43.114 -53.800  12.475  1.00  0.00    -0.360 N 
HETATM    3  C   UNL     1     -42.265 -54.159  13.505  1.00  0.00     0.221 C 
HETATM    4  O   UNL     1     -42.690 -54.710  14.523  1.00  0.00    -0.273 OA
HETATM    5  H   UNL     1     -42.749 -53.256  11.703  1.00  0.00     0.162 HD
BRANCH   3   6
HETATM    6  C   UNL     1     -40.771 -53.814  13.276  1.00  0.00     0.078 C 
HETATM    7  C   UNL     1     -39.677 -54.442  14.183  1.00  0.00     0.014 C 
HETATM    8  C   UNL     1     -38.936 -53.093  14.128  1.00  0.00     0.002 C 
HETATM    9  C   UNL     1     -40.293 -52.439  13.824  1.00  0.00     0.014 C 
ENDBRANCH   3   6
ENDBRANCH   1   2
BRANCH   1  10
HETATM   10  C   UNL     1     -45.315 -52.698  12.727  1.00  0.00     0.076 C 
BRANCH  10  11
HETATM   11  C   UNL     1     -45.851 -52.515  14.122  1.00  0.00     0.010 A 
HETATM   12  C   UNL     1     -46.693 -51.447  14.425  1.00  0.00     0.025 A 
HETATM   13  C   UNL     1     -47.163 -51.310  15.729  1.00  0.00     0.003 A 
HETATM   14  C   UNL     1     -46.790 -52.241  16.689  1.00  0.00     0.017 A 
HETATM   15  C   UNL     1     -45.958 -53.278  16.301  1.00  0.00     0.088 A 
HETATM   16  N   UNL     1     -45.484 -53.434  15.047  1.00  0.00    -0.369 N 
ATOM     17  HN  UNL     1     -44.873 -54.214  14.806  1.00  0.00     0.165 HD
ENDBRANCH  10  11
ENDBRANCH   1  10
TORSDOF 4
ENDMDL
MODEL 7
REMARK VINA RESULT:      -4.7      2.821      4.092
REMARK  4 active torsions:
REMARK  status: ('A' for Active; 'I' for Inactive)
REMARK       I    between atoms: C_2  and  N_3 
REMARK    1  A    between atoms: C_2  and  C_13 
REMARK    2  A    between atoms: N_3  and  C_4 
REMARK    3  A    between atoms: C_4  and  C_5 
REMARK    4  A    between atoms: C_5  and  C_6 
ROOT
HETATM    1  C   UNL     1     -41.421 -50.785  12.486  1.00  0.00     0.128 C 
ENDROOT
BRANCH   1   2
HETATM    2  N   UNL     1     -41.991 -49.877  11.503  1.00  0.00    -0.360 N 
HETATM    3  C   UNL     1     -41.313 -48.735  11.118  1.00  0.00     0.221 C 
HETATM    4  O   UNL     1     -40.189 -48.479  11.556  1.00  0.00    -0.273 OA
HETATM    5  H   UNL     1     -42.951 -50.002  11.206  1.00  0.00     0.162 HD
BRANCH   3   6
HETATM    6  C   UNL     1     -42.071 -47.827  10.115  1.00  0.00     0.078 C 
HETATM    7  C   UNL     1     -41.916 -46.283  10.190  1.00  0.00     0.014 C 
HETATM    8  C   UNL     1     -43.412 -46.173   9.839  1.00  0.00     0.002 C 
HETATM    9  C   UNL     1     -43.579 -47.589  10.410  1.00  0.00     0.014 C 
ENDBRANCH   3   6
ENDBRANCH   1   2
BRANCH   1  10
HETATM   10  C   UNL     1     -41.395 -52.227  11.991  1.00  0.00     0.076 C 
BRANCH  10  11
HETATM   11  C   UNL     1     -42.461 -53.061  12.650  1.00  0.00     0.010 A 
HETATM   12  C   UNL     1     -42.184 -53.784  13.808  1.00  0.00     0.025 A 
HETATM   13  C   UNL     1     -43.197 -54.547  14.383  1.00  0.00     0.003 A 
HETATM   14  C   UNL     1     -44.456 -54.561  13.797  1.00  0.00     0.017 A 
HETATM   15  C   UNL     1     -44.649 -53.805  12.653  1.00  0.00     0.088 A 
HETATM   16  N   UNL     1     -43.686 -53.061  12.071  1.00  0.00    -0.369 N 
ATOM     17  HN  UNL     1     -43.873 -52.519  11.227  1.00  0.00     0.165 HD
ENDBRANCH  10  11
ENDBRANCH   1  10
TORSDOF 4
ENDMDL
MODEL 8
REMARK VINA RESULT:      -4.7      4.133      6.340
REMARK  4 active torsions:
REMARK  status: ('A' for Active; 'I' for Inactive)
REMARK       I    between atoms: C_2  and  N_3 
REMARK    1  A    between atoms: C_2  and  C_13 
REMARK    2  A    between atoms: N_3  and  C_4 
REMARK    3  A    between atoms: C_4  and  C_5 
REMARK    4  A    between atoms: C_5  and  C_6 
ROOT
HETATM    1  C   UNL     1     -40.155 -53.460  14.520  1.00  0.00     0.128 C 
ENDROOT
BRANCH   1   2
HETATM    2  N   UNL     1     -39.296 -52.419  13.977  1.00  0.00    -0.360 N 
HETATM    3  C   UNL     1     -39.823 -51.207  13.570  1.00  0.00     0.221 C 
HETATM    4  O   UNL     1     -41.023 -50.954  13.701  1.00  0.00    -0.273 OA
HETATM    5  H   UNL     1     -38.331 -52.633  13.759  1.00  0.00     0.162 HD
BRANCH   3   6
HETATM    6  C   UNL     1     -38.801 -50.221  12.948  1.00  0.00     0.078 C 
HETATM    7  C   UNL     1     -38.977 -49.735  11.483  1.00  0.00     0.014 C 
HETATM    8  C   UNL     1     -37.446 -49.808  11.335  1.00  0.00     0.002 C 
HETATM    9  C   UNL     1     -37.454 -50.837  12.476  1.00  0.00     0.014 C 
ENDBRANCH   3   6
ENDBRANCH   1   2
BRANCH   1  10
HETATM   10  C   UNL     1     -40.784 -54.317  13.427  1.00  0.00     0.076 C 
BRANCH  10  11
HETATM   11  C   UNL     1     -42.284 -54.197  13.420  1.00  0.00     0.010 A 
HETATM   12  C   UNL     1     -43.053 -54.839  14.388  1.00  0.00     0.025 A 
HETATM   13  C   UNL     1     -44.439 -54.707  14.343  1.00  0.00     0.003 A 
HETATM   14  C   UNL     1     -45.017 -53.935  13.345  1.00  0.00     0.017 A 
HETATM   15  C   UNL     1     -44.180 -53.323  12.428  1.00  0.00     0.088 A 
HETATM   16  N   UNL     1     -42.836 -53.437  12.444  1.00  0.00    -0.369 N 
ATOM     17  HN  UNL     1     -42.256 -52.967  11.747  1.00  0.00     0.165 HD
ENDBRANCH  10  11
ENDBRANCH   1  10
TORSDOF 4
ENDMDL
MODEL 9
REMARK VINA RESULT:      -4.7      3.800      5.035
REMARK  4 active torsions:
REMARK  status: ('A' for Active; 'I' for Inactive)
REMARK       I    between atoms: C_2  and  N_3 
REMARK    1  A    between atoms: C_2  and  C_13 
REMARK    2  A    between atoms: N_3  and  C_4 
REMARK    3  A    between atoms: C_4  and  C_5 
REMARK    4  A    between atoms: C_5  and  C_6 
ROOT
HETATM    1  C   UNL     1     -42.261 -52.122  12.314  1.00  0.00     0.128 C 
ENDROOT
BRANCH   1   2
HETATM    2  N   UNL     1     -43.590 -51.924  12.873  1.00  0.00    -0.360 N 
HETATM    3  C   UNL     1     -44.550 -52.914  12.781  1.00  0.00     0.221 C 
HETATM    4  O   UNL     1     -44.297 -54.008  12.270  1.00  0.00    -0.273 OA
HETATM    5  H   UNL     1     -43.861 -51.005  13.201  1.00  0.00     0.162 HD
BRANCH   3   6
HETATM    6  C   UNL     1     -45.940 -52.538  13.358  1.00  0.00     0.078 C 
HETATM    7  C   UNL     1     -46.088 -51.309  14.296  1.00  0.00     0.014 C 
HETATM    8  C   UNL     1     -47.112 -52.124  15.109  1.00  0.00     0.002 C 
HETATM    9  C   UNL     1     -46.435 -53.390  14.562  1.00  0.00     0.014 C 
ENDBRANCH   3   6
ENDBRANCH   1   2
BRANCH   1  10
HETATM   10  C   UNL     1     -41.581 -50.803  11.963  1.00  0.00     0.076 C 
BRANCH  10  11
HETATM   11  C   UNL     1     -40.117 -50.822  12.314  1.00  0.00     0.010 A 
HETATM   12  C   UNL     1     -39.215 -50.000  11.643  1.00  0.00     0.025 A 
HETATM   13  C   UNL     1     -37.868 -50.051  11.994  1.00  0.00     0.003 A 
HETATM   14  C   UNL     1     -37.460 -50.910  13.006  1.00  0.00     0.017 A 
HETATM   15  C   UNL     1     -38.424 -51.685  13.630  1.00  0.00     0.088 A 
HETATM   16  N   UNL     1     -39.734 -51.660  13.308  1.00  0.00    -0.369 N 
ATOM     17  HN  UNL     1     -40.410 -52.249  13.794  1.00  0.00     0.165 HD
ENDBRANCH  10  11
ENDBRANCH   1  10
TORSDOF 4
ENDMDL
