MODEL 1
REMARK VINA RESULT:      -6.3      0.000      0.000
REMARK  5 active torsions:
REMARK  status: ('A' for Active; 'I' for Inactive)
REMARK    1  A    between atoms: C_5  and  N_6 
REMARK       I    between atoms: N_6  and  C_7 
REMARK       I    between atoms: C_7  and  N_9 
REMARK    2  A    between atoms: N_9  and  C_10 
REMARK    3  A    between atoms: C_10  and  C_11 
REMARK    4  A    between atoms: C_11  and  C_12 
REMARK    5  A    between atoms: C_12  and  N_13 
ROOT
HETATM    1  N   UNL     1     -42.682 -53.335  12.640  1.00  0.00    -0.289 N 
HETATM    2  C   UNL     1     -41.584 -52.629  12.240  1.00  0.00     0.322 C 
HETATM    3  O   UNL     1     -40.505 -53.200  12.093  1.00  0.00    -0.247 OA
HETATM    4  N   UNL     1     -41.773 -51.312  11.951  1.00  0.00    -0.343 N 
HETATM    5  H   UNL     1     -42.563 -54.332  12.730  1.00  0.00     0.172 HD
HETATM    6  H   UNL     1     -42.643 -50.909  12.292  1.00  0.00     0.164 HD
ENDROOT
BRANCH   1   7
HETATM    7  C   UNL     1     -43.913 -52.799  12.861  1.00  0.00     0.153 A 
HETATM    8  N   UNL     1     -44.872 -52.635  11.984  1.00  0.00    -0.339 N 
HETATM    9  C   UNL     1     -45.979 -52.085  12.598  1.00  0.00     0.020 A 
ATOM     10  HN  UNL     1     -44.809 -52.878  10.995  1.00  0.00     0.168 HD
HETATM   11  C   UNL     1     -47.162 -51.782  11.751  1.00  0.00     0.069 C 
HETATM   12  C   UNL     1     -45.846 -51.891  13.965  1.00  0.00     0.004 A 
HETATM   13  S   UNL     1     -44.248 -52.306  14.452  1.00  0.00    -0.057 SA
HETATM   14  C   UNL     1     -46.853 -51.402  14.943  1.00  0.00     0.058 C 
ENDBRANCH   1   7
BRANCH   4  15
HETATM   15  C   UNL     1     -40.752 -50.416  11.447  1.00  0.00     0.126 C 
BRANCH  15  16
HETATM   16  C   UNL     1     -41.195 -48.973  11.666  1.00  0.00     0.050 C 
BRANCH  16  17
HETATM   17  C   UNL     1     -41.816 -48.337  10.413  1.00  0.00     0.274 C 
BRANCH  17  18
HETATM   18  N   UNL     1     -43.049 -47.608  10.745  1.00  0.00     0.092 N 
HETATM   19  C   UNL     1     -43.948 -47.367   9.596  1.00  0.00     0.298 C 
HETATM   20  C   UNL     1     -43.568 -46.163   8.720  1.00  0.00     0.198 C 
HETATM   21  O   UNL     1     -43.473 -44.970   9.504  1.00  0.00    -0.388 OA
HETATM   22  C   UNL     1     -42.479 -45.131  10.522  1.00  0.00     0.198 C 
HETATM   23  C   UNL     1     -42.794 -46.326  11.439  1.00  0.00     0.298 C 
ENDBRANCH  17  18
ENDBRANCH  16  17
ENDBRANCH  15  16
ENDBRANCH   4  15
TORSDOF 5
ENDMDL
MODEL 2
REMARK VINA RESULT:      -5.9      1.859      2.694
REMARK  5 active torsions:
REMARK  status: ('A' for Active; 'I' for Inactive)
REMARK    1  A    between atoms: C_5  and  N_6 
REMARK       I    between atoms: N_6  and  C_7 
REMARK       I    between atoms: C_7  and  N_9 
REMARK    2  A    between atoms: N_9  and  C_10 
REMARK    3  A    between atoms: C_10  and  C_11 
REMARK    4  A    between atoms: C_11  and  C_12 
REMARK    5  A    between atoms: C_12  and  N_13 
ROOT
HETATM    1  N   UNL     1     -41.022 -51.860  11.474  1.00  0.00    -0.289 N 
HETATM    2  C   UNL     1     -40.685 -50.558  11.711  1.00  0.00     0.322 C 
HETATM    3  O   UNL     1     -39.870 -49.991  10.988  1.00  0.00    -0.247 OA
HETATM    4  N   UNL     1     -41.347 -49.928  12.721  1.00  0.00    -0.343 N 
HETATM    5  H   UNL     1     -40.622 -52.280  10.649  1.00  0.00     0.172 HD
HETATM    6  H   UNL     1     -41.844 -50.537  13.367  1.00  0.00     0.164 HD
ENDROOT
BRANCH   1   7
HETATM    7  C   UNL     1     -41.889 -52.590  12.228  1.00  0.00     0.153 A 
HETATM    8  N   UNL     1     -43.178 -52.719  12.044  1.00  0.00    -0.339 N 
HETATM    9  C   UNL     1     -43.705 -53.564  13.000  1.00  0.00     0.020 A 
ATOM     10  HN  UNL     1     -43.714 -52.263  11.305  1.00  0.00     0.168 HD
HETATM   11  C   UNL     1     -45.172 -53.802  12.983  1.00  0.00     0.069 C 
HETATM   12  C   UNL     1     -42.771 -54.107  13.870  1.00  0.00     0.004 A 
HETATM   13  S   UNL     1     -41.220 -53.439  13.539  1.00  0.00    -0.057 SA
HETATM   14  C   UNL     1     -42.971 -55.104  14.955  1.00  0.00     0.058 C 
ENDBRANCH   1   7
BRANCH   4  15
HETATM   15  C   UNL     1     -41.183 -48.535  13.081  1.00  0.00     0.126 C 
BRANCH  15  16
HETATM   16  C   UNL     1     -42.477 -47.782  12.790  1.00  0.00     0.050 C 
BRANCH  16  17
HETATM   17  C   UNL     1     -43.113 -48.174  11.448  1.00  0.00     0.274 C 
BRANCH  17  18
HETATM   18  N   UNL     1     -42.363 -47.604  10.320  1.00  0.00     0.092 N 
HETATM   19  C   UNL     1     -41.869 -46.228  10.543  1.00  0.00     0.298 C 
HETATM   20  C   UNL     1     -42.909 -45.121  10.306  1.00  0.00     0.198 C 
HETATM   21  O   UNL     1     -43.465 -45.215   8.992  1.00  0.00    -0.388 OA
HETATM   22  C   UNL     1     -44.098 -46.487   8.819  1.00  0.00     0.198 C 
HETATM   23  C   UNL     1     -43.113 -47.648   9.045  1.00  0.00     0.298 C 
ENDBRANCH  17  18
ENDBRANCH  16  17
ENDBRANCH  15  16
ENDBRANCH   4  15
TORSDOF 5
ENDMDL
MODEL 3
REMARK VINA RESULT:      -5.8      2.570      6.307
REMARK  5 active torsions:
REMARK  status: ('A' for Active; 'I' for Inactive)
REMARK    1  A    between atoms: C_5  and  N_6 
REMARK       I    between atoms: N_6  and  C_7 
REMARK       I    between atoms: C_7  and  N_9 
REMARK    2  A    between atoms: N_9  and  C_10 
REMARK    3  A    between atoms: C_10  and  C_11 
REMARK    4  A    between atoms: C_11  and  C_12 
REMARK    5  A    between atoms: C_12  and  N_13 
ROOT
HETATM    1  N   UNL     1     -40.977 -48.406  11.519  1.00  0.00    -0.289 N 
HETATM    2  C   UNL     1     -40.718 -49.643  12.037  1.00  0.00     0.322 C 
HETATM    3  O   UNL     1     -39.763 -49.806  12.793  1.00  0.00    -0.247 OA
HETATM    4  N   UNL     1     -41.602 -50.633  11.730  1.00  0.00    -0.343 N 
HETATM    5  H   UNL     1     -40.394 -47.654  11.851  1.00  0.00     0.172 HD
HETATM    6  H   UNL     1     -42.228 -50.436  10.952  1.00  0.00     0.164 HD
ENDROOT
BRANCH   1   7
HETATM    7  C   UNL     1     -41.987 -48.121  10.652  1.00  0.00     0.153 A 
HETATM    8  N   UNL     1     -41.967 -48.250   9.350  1.00  0.00    -0.339 N 
HETATM    9  C   UNL     1     -43.191 -47.885   8.825  1.00  0.00     0.020 A 
ATOM     10  HN  UNL     1     -41.168 -48.571   8.804  1.00  0.00     0.168 HD
HETATM   11  C   UNL     1     -43.351 -47.922   7.348  1.00  0.00     0.069 C 
HETATM   12  C   UNL     1     -44.144 -47.532   9.770  1.00  0.00     0.004 A 
HETATM   13  S   UNL     1     -43.434 -47.552  11.338  1.00  0.00    -0.057 SA
HETATM   14  C   UNL     1     -45.571 -47.170   9.568  1.00  0.00     0.058 C 
ENDBRANCH   1   7
BRANCH   4  15
HETATM   15  C   UNL     1     -41.540 -51.989  12.235  1.00  0.00     0.126 C 
BRANCH  15  16
HETATM   16  C   UNL     1     -42.918 -52.633  12.123  1.00  0.00     0.050 C 
BRANCH  16  17
HETATM   17  C   UNL     1     -43.910 -52.121  13.177  1.00  0.00     0.274 C 
BRANCH  17  18
HETATM   18  N   UNL     1     -45.273 -52.594  12.896  1.00  0.00     0.092 N 
HETATM   19  C   UNL     1     -46.332 -51.588  13.123  1.00  0.00     0.298 C 
HETATM   20  C   UNL     1     -46.775 -51.433  14.586  1.00  0.00     0.198 C 
HETATM   21  O   UNL     1     -47.193 -52.689  15.129  1.00  0.00    -0.388 OA
HETATM   22  C   UNL     1     -46.116 -53.630  15.070  1.00  0.00     0.198 C 
HETATM   23  C   UNL     1     -45.617 -53.833  13.628  1.00  0.00     0.298 C 
ENDBRANCH  17  18
ENDBRANCH  16  17
ENDBRANCH  15  16
ENDBRANCH   4  15
TORSDOF 5
ENDMDL
MODEL 4
REMARK VINA RESULT:      -5.8      2.801      6.987
REMARK  5 active torsions:
REMARK  status: ('A' for Active; 'I' for Inactive)
REMARK    1  A    between atoms: C_5  and  N_6 
REMARK       I    between atoms: N_6  and  C_7 
REMARK       I    between atoms: C_7  and  N_9 
REMARK    2  A    between atoms: N_9  and  C_10 
REMARK    3  A    between atoms: C_10  and  C_11 
REMARK    4  A    between atoms: C_11  and  C_12 
REMARK    5  A    between atoms: C_12  and  N_13 
ROOT
HETATM    1  N   UNL     1     -40.805 -49.495  10.729  1.00  0.00    -0.289 N 
HETATM    2  C   UNL     1     -41.241 -50.443  11.611  1.00  0.00     0.322 C 
HETATM    3  O   UNL     1     -40.597 -51.477  11.770  1.00  0.00    -0.247 OA
HETATM    4  N   UNL     1     -42.356 -50.143  12.332  1.00  0.00    -0.343 N 
HETATM    5  H   UNL     1     -39.913 -49.670  10.292  1.00  0.00     0.172 HD
HETATM    6  H   UNL     1     -42.908 -49.363  11.982  1.00  0.00     0.164 HD
ENDROOT
BRANCH   1   7
HETATM    7  C   UNL     1     -41.454 -48.331  10.454  1.00  0.00     0.153 A 
HETATM    8  N   UNL     1     -42.415 -48.151   9.583  1.00  0.00    -0.339 N 
HETATM    9  C   UNL     1     -42.835 -46.836   9.615  1.00  0.00     0.020 A 
ATOM     10  HN  UNL     1     -42.796 -48.873   8.972  1.00  0.00     0.168 HD
HETATM   11  C   UNL     1     -43.896 -46.423   8.660  1.00  0.00     0.069 C 
HETATM   12  C   UNL     1     -42.203 -46.050  10.569  1.00  0.00     0.004 A 
HETATM   13  S   UNL     1     -40.978 -46.970  11.352  1.00  0.00    -0.057 SA
HETATM   14  C   UNL     1     -42.460 -44.631  10.930  1.00  0.00     0.058 C 
ENDBRANCH   1   7
BRANCH   4  15
HETATM   15  C   UNL     1     -42.931 -50.983  13.362  1.00  0.00     0.126 C 
BRANCH  15  16
HETATM   16  C   UNL     1     -44.439 -50.760  13.411  1.00  0.00     0.050 C 
BRANCH  16  17
HETATM   17  C   UNL     1     -45.057 -51.115  14.772  1.00  0.00     0.274 C 
BRANCH  17  18
HETATM   18  N   UNL     1     -46.284 -51.907  14.606  1.00  0.00     0.092 N 
HETATM   19  C   UNL     1     -46.721 -52.624  15.823  1.00  0.00     0.298 C 
HETATM   20  C   UNL     1     -45.996 -53.953  16.087  1.00  0.00     0.198 C 
HETATM   21  O   UNL     1     -46.104 -54.827  14.960  1.00  0.00    -0.388 OA
HETATM   22  C   UNL     1     -45.528 -54.209  13.805  1.00  0.00     0.198 C 
HETATM   23  C   UNL     1     -46.206 -52.866  13.481  1.00  0.00     0.298 C 
ENDBRANCH  17  18
ENDBRANCH  16  17
ENDBRANCH  15  16
ENDBRANCH   4  15
TORSDOF 5
ENDMDL
MODEL 5
REMARK VINA RESULT:      -5.6      3.592      6.856
REMARK  5 active torsions:
REMARK  status: ('A' for Active; 'I' for Inactive)
REMARK    1  A    between atoms: C_5  and  N_6 
REMARK       I    between atoms: N_6  and  C_7 
REMARK       I    between atoms: C_7  and  N_9 
REMARK    2  A    between atoms: N_9  and  C_10 
REMARK    3  A    between atoms: C_10  and  C_11 
REMARK    4  A    between atoms: C_11  and  C_12 
REMARK    5  A    between atoms: C_12  and  N_13 
ROOT
HETATM    1  N   UNL     1     -42.951 -53.621  12.521  1.00  0.00    -0.289 N 
HETATM    2  C   UNL     1     -44.298 -53.404  12.549  1.00  0.00     0.322 C 
HETATM    3  O   UNL     1     -45.076 -54.355  12.514  1.00  0.00    -0.247 OA
HETATM    4  N   UNL     1     -44.708 -52.113  12.691  1.00  0.00    -0.343 N 
HETATM    5  H   UNL     1     -42.655 -54.585  12.544  1.00  0.00     0.172 HD
HETATM    6  H   UNL     1     -43.998 -51.405  12.513  1.00  0.00     0.164 HD
ENDROOT
BRANCH   1   7
HETATM    7  C   UNL     1     -42.004 -52.644  12.526  1.00  0.00     0.153 A 
HETATM    8  N   UNL     1     -41.837 -51.703  11.630  1.00  0.00    -0.339 N 
HETATM    9  C   UNL     1     -40.789 -50.885  12.000  1.00  0.00     0.020 A 
ATOM     10  HN  UNL     1     -42.398 -51.592  10.785  1.00  0.00     0.168 HD
HETATM   11  C   UNL     1     -40.415 -49.778  11.081  1.00  0.00     0.069 C 
HETATM   12  C   UNL     1     -40.210 -51.203  13.221  1.00  0.00     0.004 A 
HETATM   13  S   UNL     1     -40.935 -52.633  13.846  1.00  0.00    -0.057 SA
HETATM   14  C   UNL     1     -39.128 -50.495  13.955  1.00  0.00     0.058 C 
ENDBRANCH   1   7
BRANCH   4  15
HETATM   15  C   UNL     1     -46.087 -51.686  12.811  1.00  0.00     0.126 C 
BRANCH  15  16
HETATM   16  C   UNL     1     -46.400 -51.397  14.276  1.00  0.00     0.050 C 
BRANCH  16  17
HETATM   17  C   UNL     1     -45.151 -51.059  15.103  1.00  0.00     0.274 C 
BRANCH  17  18
HETATM   18  N   UNL     1     -45.183 -51.734  16.409  1.00  0.00     0.092 N 
HETATM   19  C   UNL     1     -43.907 -52.367  16.804  1.00  0.00     0.298 C 
HETATM   20  C   UNL     1     -43.653 -53.751  16.187  1.00  0.00     0.198 C 
HETATM   21  O   UNL     1     -44.732 -54.645  16.474  1.00  0.00    -0.388 OA
HETATM   22  C   UNL     1     -45.955 -54.121  15.945  1.00  0.00     0.198 C 
HETATM   23  C   UNL     1     -46.272 -52.729  16.520  1.00  0.00     0.298 C 
ENDBRANCH  17  18
ENDBRANCH  16  17
ENDBRANCH  15  16
ENDBRANCH   4  15
TORSDOF 5
ENDMDL
MODEL 6
REMARK VINA RESULT:      -5.4      2.611      6.393
REMARK  5 active torsions:
REMARK  status: ('A' for Active; 'I' for Inactive)
REMARK    1  A    between atoms: C_5  and  N_6 
REMARK       I    between atoms: N_6  and  C_7 
REMARK       I    between atoms: C_7  and  N_9 
REMARK    2  A    between atoms: N_9  and  C_10 
REMARK    3  A    between atoms: C_10  and  C_11 
REMARK    4  A    between atoms: C_11  and  C_12 
REMARK    5  A    between atoms: C_12  and  N_13 
ROOT
HETATM    1  N   UNL     1     -40.783 -50.806  11.881  1.00  0.00    -0.289 N 
HETATM    2  C   UNL     1     -41.327 -52.048  12.039  1.00  0.00     0.322 C 
HETATM    3  O   UNL     1     -40.614 -53.046  11.970  1.00  0.00    -0.247 OA
HETATM    4  N   UNL     1     -42.654 -52.102  12.342  1.00  0.00    -0.343 N 
HETATM    5  H   UNL     1     -39.780 -50.769  11.782  1.00  0.00     0.172 HD
HETATM    6  H   UNL     1     -43.176 -51.244  12.180  1.00  0.00     0.164 HD
ENDROOT
BRANCH   1   7
HETATM    7  C   UNL     1     -41.484 -49.640  11.908  1.00  0.00     0.153 A 
HETATM    8  N   UNL     1     -42.156 -49.100  10.922  1.00  0.00    -0.339 N 
HETATM    9  C   UNL     1     -42.754 -47.931  11.348  1.00  0.00     0.020 A 
ATOM     10  HN  UNL     1     -42.226 -49.486   9.981  1.00  0.00     0.168 HD
HETATM   11  C   UNL     1     -43.530 -47.147  10.353  1.00  0.00     0.069 C 
HETATM   12  C   UNL     1     -42.559 -47.638  12.690  1.00  0.00     0.004 A 
HETATM   13  S   UNL     1     -41.503 -48.804  13.387  1.00  0.00    -0.057 SA
HETATM   14  C   UNL     1     -43.118 -46.518  13.493  1.00  0.00     0.058 C 
ENDBRANCH   1   7
BRANCH   4  15
HETATM   15  C   UNL     1     -43.396 -53.316  12.614  1.00  0.00     0.126 C 
BRANCH  15  16
HETATM   16  C   UNL     1     -44.889 -53.035  12.482  1.00  0.00     0.050 C 
BRANCH  16  17
HETATM   17  C   UNL     1     -45.379 -51.924  13.423  1.00  0.00     0.274 C 
BRANCH  17  18
HETATM   18  N   UNL     1     -46.600 -52.332  14.133  1.00  0.00     0.092 N 
HETATM   19  C   UNL     1     -47.011 -51.418  15.221  1.00  0.00     0.298 C 
HETATM   20  C   UNL     1     -46.268 -51.620  16.551  1.00  0.00     0.198 C 
HETATM   21  O   UNL     1     -46.383 -52.973  17.001  1.00  0.00    -0.388 OA
HETATM   22  C   UNL     1     -45.832 -53.862  16.025  1.00  0.00     0.198 C 
HETATM   23  C   UNL     1     -46.529 -53.712  14.661  1.00  0.00     0.298 C 
ENDBRANCH  17  18
ENDBRANCH  16  17
ENDBRANCH  15  16
ENDBRANCH   4  15
TORSDOF 5
ENDMDL
MODEL 7
REMARK VINA RESULT:      -5.2      3.762      8.074
REMARK  5 active torsions:
REMARK  status: ('A' for Active; 'I' for Inactive)
REMARK    1  A    between atoms: C_5  and  N_6 
REMARK       I    between atoms: N_6  and  C_7 
REMARK       I    between atoms: C_7  and  N_9 
REMARK    2  A    between atoms: N_9  and  C_10 
REMARK    3  A    between atoms: C_10  and  C_11 
REMARK    4  A    between atoms: C_11  and  C_12 
REMARK    5  A    between atoms: C_12  and  N_13 
ROOT
HETATM    1  N   UNL     1     -43.116 -53.142  11.874  1.00  0.00    -0.289 N 
HETATM    2  C   UNL     1     -44.037 -53.520  12.809  1.00  0.00     0.322 C 
HETATM    3  O   UNL     1     -44.980 -54.239  12.487  1.00  0.00    -0.247 OA
HETATM    4  N   UNL     1     -43.806 -53.126  14.091  1.00  0.00    -0.343 N 
HETATM    5  H   UNL     1     -43.225 -53.541  10.955  1.00  0.00     0.172 HD
HETATM    6  H   UNL     1     -43.119 -52.384  14.205  1.00  0.00     0.164 HD
ENDROOT
BRANCH   1   7
HETATM    7  C   UNL     1     -42.053 -52.327  12.114  1.00  0.00     0.153 A 
HETATM    8  N   UNL     1     -41.991 -51.033  11.920  1.00  0.00    -0.339 N 
HETATM    9  C   UNL     1     -40.754 -50.560  12.310  1.00  0.00     0.020 A 
ATOM     10  HN  UNL     1     -42.744 -50.461  11.538  1.00  0.00     0.168 HD
HETATM   11  C   UNL     1     -40.475 -49.112  12.124  1.00  0.00     0.069 C 
HETATM   12  C   UNL     1     -39.912 -51.521  12.851  1.00  0.00     0.004 A 
HETATM   13  S   UNL     1     -40.663 -53.066  12.752  1.00  0.00    -0.057 SA
HETATM   14  C   UNL     1     -38.557 -51.352  13.440  1.00  0.00     0.058 C 
ENDBRANCH   1   7
BRANCH   4  15
HETATM   15  C   UNL     1     -44.624 -53.483  15.231  1.00  0.00     0.126 C 
BRANCH  15  16
HETATM   16  C   UNL     1     -43.722 -53.850  16.405  1.00  0.00     0.050 C 
BRANCH  16  17
HETATM   17  C   UNL     1     -42.594 -54.817  16.019  1.00  0.00     0.274 C 
BRANCH  17  18
HETATM   18  N   UNL     1     -41.478 -54.737  16.973  1.00  0.00     0.092 N 
HETATM   19  C   UNL     1     -40.194 -54.301  16.381  1.00  0.00     0.298 C 
HETATM   20  C   UNL     1     -39.401 -55.409  15.670  1.00  0.00     0.198 C 
HETATM   21  O   UNL     1     -39.165 -56.513  16.548  1.00  0.00    -0.388 OA
HETATM   22  C   UNL     1     -40.411 -57.055  16.998  1.00  0.00     0.198 C 
HETATM   23  C   UNL     1     -41.264 -55.996  17.720  1.00  0.00     0.298 C 
ENDBRANCH  17  18
ENDBRANCH  16  17
ENDBRANCH  15  16
ENDBRANCH   4  15
TORSDOF 5
ENDMDL
MODEL 8
REMARK VINA RESULT:      -5.2      3.180      6.403
REMARK  5 active torsions:
REMARK  status: ('A' for Active; 'I' for Inactive)
REMARK    1  A    between atoms: C_5  and  N_6 
REMARK       I    between atoms: N_6  and  C_7 
REMARK       I    between atoms: C_7  and  N_9 
REMARK    2  A    between atoms: N_9  and  C_10 
REMARK    3  A    between atoms: C_10  and  C_11 
REMARK    4  A    between atoms: C_11  and  C_12 
REMARK    5  A    between atoms: C_12  and  N_13 
ROOT
HETATM    1  N   UNL     1     -39.385 -50.881  13.267  1.00  0.00    -0.289 N 
HETATM    2  C   UNL     1     -39.549 -52.235  13.330  1.00  0.00     0.322 C 
HETATM    3  O   UNL     1     -38.634 -52.948  13.733  1.00  0.00    -0.247 OA
HETATM    4  N   UNL     1     -40.778 -52.719  12.999  1.00  0.00    -0.343 N 
HETATM    5  H   UNL     1     -38.517 -50.520  13.632  1.00  0.00     0.172 HD
HETATM    6  H   UNL     1     -41.385 -52.072  12.499  1.00  0.00     0.164 HD
ENDROOT
BRANCH   1   7
HETATM    7  C   UNL     1     -40.320 -50.004  12.810  1.00  0.00     0.153 A 
HETATM    8  N   UNL     1     -41.143 -49.283  13.529  1.00  0.00    -0.339 N 
HETATM    9  C   UNL     1     -41.919 -48.495  12.702  1.00  0.00     0.020 A 
ATOM     10  HN  UNL     1     -41.203 -49.301  14.547  1.00  0.00     0.168 HD
HETATM   11  C   UNL     1     -42.951 -47.632  13.335  1.00  0.00     0.069 C 
HETATM   12  C   UNL     1     -41.619 -48.602  11.352  1.00  0.00     0.004 A 
HETATM   13  S   UNL     1     -40.414 -49.811  11.125  1.00  0.00    -0.057 SA
HETATM   14  C   UNL     1     -42.191 -47.850  10.204  1.00  0.00     0.058 C 
ENDBRANCH   1   7
BRANCH   4  15
HETATM   15  C   UNL     1     -41.170 -54.112  13.068  1.00  0.00     0.126 C 
BRANCH  15  16
HETATM   16  C   UNL     1     -42.538 -54.219  13.733  1.00  0.00     0.050 C 
BRANCH  16  17
HETATM   17  C   UNL     1     -43.493 -53.086  13.333  1.00  0.00     0.274 C 
BRANCH  17  18
HETATM   18  N   UNL     1     -44.772 -53.619  12.842  1.00  0.00     0.092 N 
HETATM   19  C   UNL     1     -45.829 -52.602  12.650  1.00  0.00     0.298 C 
HETATM   20  C   UNL     1     -46.580 -52.200  13.928  1.00  0.00     0.198 C 
HETATM   21  O   UNL     1     -47.140 -53.347  14.574  1.00  0.00    -0.388 OA
HETATM   22  C   UNL     1     -46.102 -54.270  14.919  1.00  0.00     0.198 C 
HETATM   23  C   UNL     1     -45.302 -54.716  13.682  1.00  0.00     0.298 C 
ENDBRANCH  17  18
ENDBRANCH  16  17
ENDBRANCH  15  16
ENDBRANCH   4  15
TORSDOF 5
ENDMDL
MODEL 9
REMARK VINA RESULT:      -5.1      2.980      3.711
REMARK  5 active torsions:
REMARK  status: ('A' for Active; 'I' for Inactive)
REMARK    1  A    between atoms: C_5  and  N_6 
REMARK       I    between atoms: N_6  and  C_7 
REMARK       I    between atoms: C_7  and  N_9 
REMARK    2  A    between atoms: N_9  and  C_10 
REMARK    3  A    between atoms: C_10  and  C_11 
REMARK    4  A    between atoms: C_11  and  C_12 
REMARK    5  A    between atoms: C_12  and  N_13 
ROOT
HETATM    1  N   UNL     1     -40.966 -51.648  11.413  1.00  0.00    -0.289 N 
HETATM    2  C   UNL     1     -40.737 -50.319  11.625  1.00  0.00     0.322 C 
HETATM    3  O   UNL     1     -40.443 -49.587  10.683  1.00  0.00    -0.247 OA
HETATM    4  N   UNL     1     -40.923 -49.860  12.893  1.00  0.00    -0.343 N 
HETATM    5  H   UNL     1     -40.949 -51.955  10.452  1.00  0.00     0.172 HD
HETATM    6  H   UNL     1     -40.970 -50.575  13.616  1.00  0.00     0.164 HD
ENDROOT
BRANCH   1   7
HETATM    7  C   UNL     1     -41.267 -52.552  12.385  1.00  0.00     0.153 A 
HETATM    8  N   UNL     1     -40.433 -53.122  13.218  1.00  0.00    -0.339 N 
HETATM    9  C   UNL     1     -41.123 -53.957  14.073  1.00  0.00     0.020 A 
ATOM     10  HN  UNL     1     -39.424 -52.971  13.232  1.00  0.00     0.168 HD
HETATM   11  C   UNL     1     -40.338 -54.732  15.070  1.00  0.00     0.069 C 
HETATM   12  C   UNL     1     -42.499 -53.957  13.896  1.00  0.00     0.004 A 
HETATM   13  S   UNL     1     -42.905 -52.970  12.546  1.00  0.00    -0.057 SA
HETATM   14  C   UNL     1     -43.543 -54.665  14.683  1.00  0.00     0.058 C 
ENDBRANCH   1   7
BRANCH   4  15
HETATM   15  C   UNL     1     -40.799 -48.477  13.304  1.00  0.00     0.126 C 
BRANCH  15  16
HETATM   16  C   UNL     1     -42.099 -47.740  12.995  1.00  0.00     0.050 C 
BRANCH  16  17
HETATM   17  C   UNL     1     -41.926 -46.216  12.929  1.00  0.00     0.274 C 
BRANCH  17  18
HETATM   18  N   UNL     1     -42.225 -45.706  11.583  1.00  0.00     0.092 N 
HETATM   19  C   UNL     1     -41.287 -46.157  10.533  1.00  0.00     0.298 C 
HETATM   20  C   UNL     1     -39.973 -45.364  10.454  1.00  0.00     0.198 C 
HETATM   21  O   UNL     1     -40.230 -43.966  10.289  1.00  0.00    -0.388 OA
HETATM   22  C   UNL     1     -40.999 -43.476  11.391  1.00  0.00     0.198 C 
HETATM   23  C   UNL     1     -42.333 -44.231  11.534  1.00  0.00     0.298 C 
ENDBRANCH  17  18
ENDBRANCH  16  17
ENDBRANCH  15  16
ENDBRANCH   4  15
TORSDOF 5
ENDMDL
