MODEL 1
REMARK VINA RESULT:      -6.6      0.000      0.000
REMARK  3 active torsions:
REMARK  status: ('A' for Active; 'I' for Inactive)
REMARK    1  A    between atoms: C_5  and  N_8 
REMARK       I    between atoms: N_8  and  C_9 
REMARK    2  A    between atoms: C_9  and  C_11 
REMARK    3  A    between atoms: C_11  and  N_12 
ROOT
HETATM    1  N   UNL     1     -40.778 -51.301  11.961  1.00  0.00    -0.247 N 
HETATM    2  N   UNL     1     -41.614 -50.398  11.363  1.00  0.00    -0.299 N 
ATOM      3  HN  UNL     1     -42.432 -50.713  10.843  1.00  0.00     0.187 HD
HETATM    4  C   UNL     1     -41.346 -49.136  11.470  1.00  0.00     0.029 A 
HETATM    5  C   UNL     1     -42.271 -48.187  10.739  1.00  0.00     0.070 C 
HETATM    6  C   UNL     1     -40.210 -48.582  12.259  1.00  0.00    -0.012 A 
HETATM    7  C   UNL     1     -40.052 -47.099  12.444  1.00  0.00     0.052 C 
HETATM    8  C   UNL     1     -39.381 -49.494  12.802  1.00  0.00     0.121 A 
HETATM    9  C   UNL     1     -38.275 -49.104  13.608  1.00  0.00     0.105 C 
HETATM   10  N   UNL     1     -37.400 -48.720  14.266  1.00  0.00    -0.191 NA
HETATM   11  C   UNL     1     -39.615 -50.952  12.624  1.00  0.00     0.283 A 
HETATM   12  O   UNL     1     -38.825 -51.783  13.073  1.00  0.00    -0.265 OA
ENDROOT
BRANCH   1  13
HETATM   13  C   UNL     1     -41.152 -52.707  11.852  1.00  0.00     0.255 C 
BRANCH  13  14
HETATM   14  C   UNL     1     -41.928 -53.182  13.078  1.00  0.00     0.237 C 
HETATM   15  N   UNL     1     -43.283 -52.914  13.043  1.00  0.00    -0.355 N 
HETATM   16  H   UNL     1     -43.670 -52.469  12.216  1.00  0.00     0.162 HD
HETATM   17  O   UNL     1     -41.379 -53.728  14.033  1.00  0.00    -0.272 OA
BRANCH  15  18
HETATM   18  C   UNL     1     -44.182 -53.346  14.109  1.00  0.00     0.084 C 
HETATM   19  C   UNL     1     -45.600 -53.595  13.577  1.00  0.00     0.025 C 
HETATM   20  C   UNL     1     -46.347 -52.300  13.255  1.00  0.00     0.006 C 
HETATM   21  C   UNL     1     -46.366 -51.311  14.429  1.00  0.00    -0.019 C 
HETATM   22  C   UNL     1     -47.297 -51.782  15.551  1.00  0.00     0.010 C 
HETATM   23  C   UNL     1     -44.944 -51.054  14.944  1.00  0.00     0.006 C 
HETATM   24  C   UNL     1     -44.181 -52.341  15.266  1.00  0.00     0.025 C 
ENDBRANCH  15  18
ENDBRANCH  13  14
ENDBRANCH   1  13
TORSDOF 3
ENDMDL
MODEL 2
REMARK VINA RESULT:      -6.6      2.759      3.835
REMARK  3 active torsions:
REMARK  status: ('A' for Active; 'I' for Inactive)
REMARK    1  A    between atoms: C_5  and  N_8 
REMARK       I    between atoms: N_8  and  C_9 
REMARK    2  A    between atoms: C_9  and  C_11 
REMARK    3  A    between atoms: C_11  and  N_12 
ROOT
HETATM    1  N   UNL     1     -41.518 -48.275  10.616  1.00  0.00    -0.247 N 
HETATM    2  N   UNL     1     -42.692 -48.404   9.926  1.00  0.00    -0.299 N 
ATOM      3  HN  UNL     1     -43.067 -49.327   9.706  1.00  0.00     0.187 HD
HETATM    4  C   UNL     1     -43.319 -47.333   9.559  1.00  0.00     0.029 A 
HETATM    5  C   UNL     1     -44.581 -47.536   8.748  1.00  0.00     0.070 C 
HETATM    6  C   UNL     1     -42.881 -45.948   9.889  1.00  0.00    -0.012 A 
HETATM    7  C   UNL     1     -43.741 -44.765   9.542  1.00  0.00     0.052 C 
HETATM    8  C   UNL     1     -41.702 -45.850  10.533  1.00  0.00     0.121 A 
HETATM    9  C   UNL     1     -41.180 -44.589  10.938  1.00  0.00     0.105 C 
HETATM   10  N   UNL     1     -40.820 -43.532  11.252  1.00  0.00    -0.191 NA
HETATM   11  C   UNL     1     -40.917 -47.060  10.893  1.00  0.00     0.283 A 
HETATM   12  O   UNL     1     -39.812 -46.966  11.430  1.00  0.00    -0.265 OA
ENDROOT
BRANCH   1  13
HETATM   13  C   UNL     1     -40.877 -49.513  11.050  1.00  0.00     0.255 C 
BRANCH  13  14
HETATM   14  C   UNL     1     -41.402 -49.976  12.407  1.00  0.00     0.237 C 
HETATM   15  N   UNL     1     -42.410 -50.919  12.344  1.00  0.00    -0.355 N 
HETATM   16  H   UNL     1     -42.700 -51.262  11.432  1.00  0.00     0.162 HD
HETATM   17  O   UNL     1     -40.983 -49.516  13.467  1.00  0.00    -0.272 OA
BRANCH  15  18
HETATM   18  C   UNL     1     -42.990 -51.510  13.546  1.00  0.00     0.084 C 
HETATM   19  C   UNL     1     -43.123 -53.033  13.413  1.00  0.00     0.025 C 
HETATM   20  C   UNL     1     -44.255 -53.448  12.472  1.00  0.00     0.006 C 
HETATM   21  C   UNL     1     -45.602 -52.808  12.836  1.00  0.00    -0.019 C 
HETATM   22  C   UNL     1     -46.194 -53.420  14.110  1.00  0.00     0.010 C 
HETATM   23  C   UNL     1     -45.464 -51.284  12.951  1.00  0.00     0.006 C 
HETATM   24  C   UNL     1     -44.332 -50.852  13.885  1.00  0.00     0.025 C 
ENDBRANCH  15  18
ENDBRANCH  13  14
ENDBRANCH   1  13
TORSDOF 3
ENDMDL
MODEL 3
REMARK VINA RESULT:      -6.4      2.198      3.029
REMARK  3 active torsions:
REMARK  status: ('A' for Active; 'I' for Inactive)
REMARK    1  A    between atoms: C_5  and  N_8 
REMARK       I    between atoms: N_8  and  C_9 
REMARK    2  A    between atoms: C_9  and  C_11 
REMARK    3  A    between atoms: C_11  and  N_12 
ROOT
HETATM    1  N   UNL     1     -40.541 -49.239  11.859  1.00  0.00    -0.247 N 
HETATM    2  N   UNL     1     -39.803 -49.178  13.009  1.00  0.00    -0.299 N 
ATOM      3  HN  UNL     1     -39.526 -50.031  13.494  1.00  0.00     0.187 HD
HETATM    4  C   UNL     1     -39.463 -48.017  13.470  1.00  0.00     0.029 A 
HETATM    5  C   UNL     1     -38.698 -48.009  14.775  1.00  0.00     0.070 C 
HETATM    6  C   UNL     1     -39.769 -46.724  12.797  1.00  0.00    -0.012 A 
HETATM    7  C   UNL     1     -39.218 -45.430  13.327  1.00  0.00     0.052 C 
HETATM    8  C   UNL     1     -40.531 -46.812  11.690  1.00  0.00     0.121 A 
HETATM    9  C   UNL     1     -40.872 -45.657  10.930  1.00  0.00     0.105 C 
HETATM   10  N   UNL     1     -41.101 -44.679  10.350  1.00  0.00    -0.191 NA
HETATM   11  C   UNL     1     -41.010 -48.126  11.184  1.00  0.00     0.283 A 
HETATM   12  O   UNL     1     -41.753 -48.200  10.205  1.00  0.00    -0.265 OA
ENDROOT
BRANCH   1  13
HETATM   13  C   UNL     1     -40.856 -50.573  11.356  1.00  0.00     0.255 C 
BRANCH  13  14
HETATM   14  C   UNL     1     -41.398 -51.479  12.459  1.00  0.00     0.237 C 
HETATM   15  N   UNL     1     -42.764 -51.687  12.415  1.00  0.00    -0.355 N 
HETATM   16  H   UNL     1     -43.296 -51.270  11.657  1.00  0.00     0.162 HD
HETATM   17  O   UNL     1     -40.677 -51.954  13.334  1.00  0.00    -0.272 OA
BRANCH  15  18
HETATM   18  C   UNL     1     -43.440 -52.569  13.363  1.00  0.00     0.084 C 
HETATM   19  C   UNL     1     -44.678 -53.222  12.732  1.00  0.00     0.025 C 
HETATM   20  C   UNL     1     -45.843 -52.244  12.568  1.00  0.00     0.006 C 
HETATM   21  C   UNL     1     -46.206 -51.520  13.872  1.00  0.00    -0.019 C 
HETATM   22  C   UNL     1     -46.897 -52.458  14.867  1.00  0.00     0.010 C 
HETATM   23  C   UNL     1     -44.967 -50.856  14.486  1.00  0.00     0.006 C 
HETATM   24  C   UNL     1     -43.790 -51.820  14.653  1.00  0.00     0.025 C 
ENDBRANCH  15  18
ENDBRANCH  13  14
ENDBRANCH   1  13
TORSDOF 3
ENDMDL
MODEL 4
REMARK VINA RESULT:      -6.3      3.006      4.016
REMARK  3 active torsions:
REMARK  status: ('A' for Active; 'I' for Inactive)
REMARK    1  A    between atoms: C_5  and  N_8 
REMARK       I    between atoms: N_8  and  C_9 
REMARK    2  A    between atoms: C_9  and  C_11 
REMARK    3  A    between atoms: C_11  and  N_12 
ROOT
HETATM    1  N   UNL     1     -42.119 -47.126  11.918  1.00  0.00    -0.247 N 
HETATM    2  N   UNL     1     -41.800 -46.870  13.223  1.00  0.00    -0.299 N 
ATOM      3  HN  UNL     1     -42.270 -47.366  13.979  1.00  0.00     0.187 HD
HETATM    4  C   UNL     1     -40.890 -45.986  13.480  1.00  0.00     0.029 A 
HETATM    5  C   UNL     1     -40.621 -45.702  14.941  1.00  0.00     0.070 C 
HETATM    6  C   UNL     1     -40.109 -45.259  12.441  1.00  0.00    -0.012 A 
HETATM    7  C   UNL     1     -38.974 -44.350  12.825  1.00  0.00     0.052 C 
HETATM    8  C   UNL     1     -40.472 -45.500  11.166  1.00  0.00     0.121 A 
HETATM    9  C   UNL     1     -39.788 -44.897  10.073  1.00  0.00     0.105 C 
HETATM   10  N   UNL     1     -39.179 -44.384   9.229  1.00  0.00    -0.191 NA
HETATM   11  C   UNL     1     -41.572 -46.446  10.844  1.00  0.00     0.283 A 
HETATM   12  O   UNL     1     -41.941 -46.622   9.682  1.00  0.00    -0.265 OA
ENDROOT
BRANCH   1  13
HETATM   13  C   UNL     1     -43.116 -48.165  11.681  1.00  0.00     0.255 C 
BRANCH  13  14
HETATM   14  C   UNL     1     -42.852 -49.404  12.533  1.00  0.00     0.237 C 
HETATM   15  N   UNL     1     -43.980 -50.137  12.851  1.00  0.00    -0.355 N 
HETATM   16  H   UNL     1     -44.877 -49.837  12.478  1.00  0.00     0.162 HD
HETATM   17  O   UNL     1     -41.728 -49.703  12.931  1.00  0.00    -0.272 OA
BRANCH  15  18
HETATM   18  C   UNL     1     -43.903 -51.380  13.614  1.00  0.00     0.084 C 
HETATM   19  C   UNL     1     -44.381 -52.577  12.781  1.00  0.00     0.025 C 
HETATM   20  C   UNL     1     -45.900 -52.599  12.595  1.00  0.00     0.006 C 
HETATM   21  C   UNL     1     -46.667 -52.510  13.921  1.00  0.00    -0.019 C 
HETATM   22  C   UNL     1     -46.565 -53.812  14.723  1.00  0.00     0.010 C 
HETATM   23  C   UNL     1     -46.195 -51.301  14.740  1.00  0.00     0.006 C 
HETATM   24  C   UNL     1     -44.678 -51.261  14.931  1.00  0.00     0.025 C 
ENDBRANCH  15  18
ENDBRANCH  13  14
ENDBRANCH   1  13
TORSDOF 3
ENDMDL
MODEL 5
REMARK VINA RESULT:      -6.3      2.778      4.311
REMARK  3 active torsions:
REMARK  status: ('A' for Active; 'I' for Inactive)
REMARK    1  A    between atoms: C_5  and  N_8 
REMARK       I    between atoms: N_8  and  C_9 
REMARK    2  A    between atoms: C_9  and  C_11 
REMARK    3  A    between atoms: C_11  and  N_12 
ROOT
HETATM    1  N   UNL     1     -41.190 -48.090  11.500  1.00  0.00    -0.247 N 
HETATM    2  N   UNL     1     -40.242 -47.408  12.212  1.00  0.00    -0.299 N 
ATOM      3  HN  UNL     1     -39.555 -47.909  12.775  1.00  0.00     0.187 HD
HETATM    4  C   UNL     1     -40.233 -46.114  12.158  1.00  0.00     0.029 A 
HETATM    5  C   UNL     1     -39.201 -45.412  13.012  1.00  0.00     0.070 C 
HETATM    6  C   UNL     1     -41.155 -45.303  11.315  1.00  0.00    -0.012 A 
HETATM    7  C   UNL     1     -40.987 -43.814  11.204  1.00  0.00     0.052 C 
HETATM    8  C   UNL     1     -42.104 -45.998  10.657  1.00  0.00     0.121 A 
HETATM    9  C   UNL     1     -43.030 -45.352   9.791  1.00  0.00     0.105 C 
HETATM   10  N   UNL     1     -43.744 -44.765   9.090  1.00  0.00    -0.191 NA
HETATM   11  C   UNL     1     -42.192 -47.478  10.768  1.00  0.00     0.283 A 
HETATM   12  O   UNL     1     -43.094 -48.106  10.212  1.00  0.00    -0.265 OA
ENDROOT
BRANCH   1  13
HETATM   13  C   UNL     1     -41.126 -49.547  11.556  1.00  0.00     0.255 C 
BRANCH  13  14
HETATM   14  C   UNL     1     -41.744 -50.090  12.842  1.00  0.00     0.237 C 
HETATM   15  N   UNL     1     -42.846 -50.903  12.654  1.00  0.00    -0.355 N 
HETATM   16  H   UNL     1     -43.141 -51.112  11.705  1.00  0.00     0.162 HD
HETATM   17  O   UNL     1     -41.313 -49.796  13.955  1.00  0.00    -0.272 OA
BRANCH  15  18
HETATM   18  C   UNL     1     -43.528 -51.548  13.773  1.00  0.00     0.084 C 
HETATM   19  C   UNL     1     -42.861 -52.882  14.139  1.00  0.00     0.025 C 
HETATM   20  C   UNL     1     -43.149 -53.986  13.119  1.00  0.00     0.006 C 
HETATM   21  C   UNL     1     -44.648 -54.175  12.849  1.00  0.00    -0.019 C 
HETATM   22  C   UNL     1     -45.358 -54.836  14.035  1.00  0.00     0.010 C 
HETATM   23  C   UNL     1     -45.303 -52.841  12.468  1.00  0.00     0.006 C 
HETATM   24  C   UNL     1     -45.020 -51.725  13.475  1.00  0.00     0.025 C 
ENDBRANCH  15  18
ENDBRANCH  13  14
ENDBRANCH   1  13
TORSDOF 3
ENDMDL
MODEL 6
REMARK VINA RESULT:      -6.3      1.920      5.894
REMARK  3 active torsions:
REMARK  status: ('A' for Active; 'I' for Inactive)
REMARK    1  A    between atoms: C_5  and  N_8 
REMARK       I    between atoms: N_8  and  C_9 
REMARK    2  A    between atoms: C_9  and  C_11 
REMARK    3  A    between atoms: C_11  and  N_12 
ROOT
HETATM    1  N   UNL     1     -42.203 -53.169  12.469  1.00  0.00    -0.247 N 
HETATM    2  N   UNL     1     -43.452 -52.742  12.109  1.00  0.00    -0.299 N 
ATOM      3  HN  UNL     1     -43.578 -52.115  11.315  1.00  0.00     0.187 HD
HETATM    4  C   UNL     1     -44.471 -53.149  12.796  1.00  0.00     0.029 A 
HETATM    5  C   UNL     1     -45.820 -52.598  12.389  1.00  0.00     0.070 C 
HETATM    6  C   UNL     1     -44.389 -54.111  13.930  1.00  0.00    -0.012 A 
HETATM    7  C   UNL     1     -45.635 -54.638  14.585  1.00  0.00     0.052 C 
HETATM    8  C   UNL     1     -43.145 -54.482  14.288  1.00  0.00     0.121 A 
HETATM    9  C   UNL     1     -42.923 -55.422  15.334  1.00  0.00     0.105 C 
HETATM   10  N   UNL     1     -42.813 -56.202  16.186  1.00  0.00    -0.191 NA
HETATM   11  C   UNL     1     -41.949 -53.964  13.573  1.00  0.00     0.283 A 
HETATM   12  O   UNL     1     -40.811 -54.259  13.937  1.00  0.00    -0.265 OA
ENDROOT
BRANCH   1  13
HETATM   13  C   UNL     1     -41.094 -52.720  11.633  1.00  0.00     0.255 C 
BRANCH  13  14
HETATM   14  C   UNL     1     -40.500 -51.408  12.139  1.00  0.00     0.237 C 
HETATM   15  N   UNL     1     -41.106 -50.270  11.641  1.00  0.00    -0.355 N 
HETATM   16  H   UNL     1     -41.905 -50.375  11.022  1.00  0.00     0.162 HD
HETATM   17  O   UNL     1     -39.537 -51.373  12.902  1.00  0.00    -0.272 OA
BRANCH  15  18
HETATM   18  C   UNL     1     -40.699 -48.933  12.061  1.00  0.00     0.084 C 
HETATM   19  C   UNL     1     -41.370 -48.533  13.383  1.00  0.00     0.025 C 
HETATM   20  C   UNL     1     -42.854 -48.201  13.215  1.00  0.00     0.006 C 
HETATM   21  C   UNL     1     -43.113 -47.150  12.126  1.00  0.00    -0.019 C 
HETATM   22  C   UNL     1     -42.665 -45.754  12.568  1.00  0.00     0.010 C 
HETATM   23  C   UNL     1     -42.453 -47.566  10.805  1.00  0.00     0.006 C 
HETATM   24  C   UNL     1     -40.970 -47.906  10.956  1.00  0.00     0.025 C 
ENDBRANCH  15  18
ENDBRANCH  13  14
ENDBRANCH   1  13
TORSDOF 3
ENDMDL
MODEL 7
REMARK VINA RESULT:      -6.3      2.410      6.540
REMARK  3 active torsions:
REMARK  status: ('A' for Active; 'I' for Inactive)
REMARK    1  A    between atoms: C_5  and  N_8 
REMARK       I    between atoms: N_8  and  C_9 
REMARK    2  A    between atoms: C_9  and  C_11 
REMARK    3  A    between atoms: C_11  and  N_12 
ROOT
HETATM    1  N   UNL     1     -41.004 -50.999  11.986  1.00  0.00    -0.247 N 
HETATM    2  N   UNL     1     -42.356 -51.190  12.062  1.00  0.00    -0.299 N 
ATOM      3  HN  UNL     1     -42.998 -50.550  11.595  1.00  0.00     0.187 HD
HETATM    4  C   UNL     1     -42.806 -52.199  12.736  1.00  0.00     0.029 A 
HETATM    5  C   UNL     1     -44.310 -52.327  12.834  1.00  0.00     0.070 C 
HETATM    6  C   UNL     1     -41.944 -53.219  13.397  1.00  0.00    -0.012 A 
HETATM    7  C   UNL     1     -42.547 -54.435  14.043  1.00  0.00     0.052 C 
HETATM    8  C   UNL     1     -40.619 -52.984  13.341  1.00  0.00     0.121 A 
HETATM    9  C   UNL     1     -39.679 -53.893  13.903  1.00  0.00     0.105 C 
HETATM   10  N   UNL     1     -38.968 -54.683  14.368  1.00  0.00    -0.191 NA
HETATM   11  C   UNL     1     -40.077 -51.786  12.647  1.00  0.00     0.283 A 
HETATM   12  O   UNL     1     -38.870 -51.542  12.646  1.00  0.00    -0.265 OA
ENDROOT
BRANCH   1  13
HETATM   13  C   UNL     1     -40.548 -49.876  11.173  1.00  0.00     0.255 C 
BRANCH  13  14
HETATM   14  C   UNL     1     -41.338 -48.605  11.472  1.00  0.00     0.237 C 
HETATM   15  N   UNL     1     -40.658 -47.666  12.225  1.00  0.00    -0.355 N 
HETATM   16  H   UNL     1     -39.696 -47.858  12.490  1.00  0.00     0.162 HD
HETATM   17  O   UNL     1     -42.499 -48.449  11.100  1.00  0.00    -0.272 OA
BRANCH  15  18
HETATM   18  C   UNL     1     -41.246 -46.372  12.558  1.00  0.00     0.084 C 
HETATM   19  C   UNL     1     -41.065 -45.365  11.413  1.00  0.00     0.025 C 
HETATM   20  C   UNL     1     -39.626 -44.859  11.294  1.00  0.00     0.006 C 
HETATM   21  C   UNL     1     -39.077 -44.298  12.613  1.00  0.00    -0.019 C 
HETATM   22  C   UNL     1     -39.713 -42.949  12.964  1.00  0.00     0.010 C 
HETATM   23  C   UNL     1     -39.247 -45.317  13.747  1.00  0.00     0.006 C 
HETATM   24  C   UNL     1     -40.680 -45.837  13.877  1.00  0.00     0.025 C 
ENDBRANCH  15  18
ENDBRANCH  13  14
ENDBRANCH   1  13
TORSDOF 3
ENDMDL
MODEL 8
REMARK VINA RESULT:      -6.2      2.102      6.557
REMARK  3 active torsions:
REMARK  status: ('A' for Active; 'I' for Inactive)
REMARK    1  A    between atoms: C_5  and  N_8 
REMARK       I    between atoms: N_8  and  C_9 
REMARK    2  A    between atoms: C_9  and  C_11 
REMARK    3  A    between atoms: C_11  and  N_12 
ROOT
HETATM    1  N   UNL     1     -42.310 -52.868  12.537  1.00  0.00    -0.247 N 
HETATM    2  N   UNL     1     -43.574 -52.524  12.142  1.00  0.00    -0.299 N 
ATOM      3  HN  UNL     1     -43.718 -51.862  11.380  1.00  0.00     0.187 HD
HETATM    4  C   UNL     1     -44.583 -53.057  12.753  1.00  0.00     0.029 A 
HETATM    5  C   UNL     1     -45.955 -52.596  12.314  1.00  0.00     0.070 C 
HETATM    6  C   UNL     1     -44.468 -54.078  13.832  1.00  0.00    -0.012 A 
HETATM    7  C   UNL     1     -45.692 -54.746  14.393  1.00  0.00     0.052 C 
HETATM    8  C   UNL     1     -43.214 -54.366  14.228  1.00  0.00     0.121 A 
HETATM    9  C   UNL     1     -42.958 -55.347  15.227  1.00  0.00     0.105 C 
HETATM   10  N   UNL     1     -42.818 -56.167  16.036  1.00  0.00    -0.191 NA
HETATM   11  C   UNL     1     -42.037 -53.706  13.603  1.00  0.00     0.283 A 
HETATM   12  O   UNL     1     -40.894 -53.928  14.006  1.00  0.00    -0.265 OA
ENDROOT
BRANCH   1  13
HETATM   13  C   UNL     1     -41.208 -52.277  11.784  1.00  0.00     0.255 C 
BRANCH  13  14
HETATM   14  C   UNL     1     -40.905 -50.855  12.247  1.00  0.00     0.237 C 
HETATM   15  N   UNL     1     -39.859 -50.750  13.145  1.00  0.00    -0.355 N 
HETATM   16  H   UNL     1     -39.351 -51.592  13.400  1.00  0.00     0.162 HD
HETATM   17  O   UNL     1     -41.565 -49.887  11.875  1.00  0.00    -0.272 OA
BRANCH  15  18
HETATM   18  C   UNL     1     -39.402 -49.459  13.650  1.00  0.00     0.084 C 
HETATM   19  C   UNL     1     -37.874 -49.335  13.568  1.00  0.00     0.025 C 
HETATM   20  C   UNL     1     -37.156 -50.180  14.621  1.00  0.00     0.006 C 
HETATM   21  C   UNL     1     -37.654 -49.910  16.048  1.00  0.00    -0.019 C 
HETATM   22  C   UNL     1     -37.186 -48.545  16.562  1.00  0.00     0.010 C 
HETATM   23  C   UNL     1     -39.180 -50.052  16.125  1.00  0.00     0.006 C 
HETATM   24  C   UNL     1     -39.914 -49.216  15.074  1.00  0.00     0.025 C 
ENDBRANCH  15  18
ENDBRANCH  13  14
ENDBRANCH   1  13
TORSDOF 3
ENDMDL
MODEL 9
REMARK VINA RESULT:      -6.2      2.130      3.135
REMARK  3 active torsions:
REMARK  status: ('A' for Active; 'I' for Inactive)
REMARK    1  A    between atoms: C_5  and  N_8 
REMARK       I    between atoms: N_8  and  C_9 
REMARK    2  A    between atoms: C_9  and  C_11 
REMARK    3  A    between atoms: C_11  and  N_12 
ROOT
HETATM    1  N   UNL     1     -40.681 -53.198  13.676  1.00  0.00    -0.247 N 
HETATM    2  N   UNL     1     -40.122 -53.325  14.918  1.00  0.00    -0.299 N 
ATOM      3  HN  UNL     1     -40.406 -54.081  15.540  1.00  0.00     0.187 HD
HETATM    4  C   UNL     1     -39.226 -52.468  15.288  1.00  0.00     0.029 A 
HETATM    5  C   UNL     1     -38.686 -52.623  16.693  1.00  0.00     0.070 C 
HETATM    6  C   UNL     1     -38.705 -51.371  14.425  1.00  0.00    -0.012 A 
HETATM    7  C   UNL     1     -37.565 -50.505  14.883  1.00  0.00     0.052 C 
HETATM    8  C   UNL     1     -39.302 -51.244  13.224  1.00  0.00     0.121 A 
HETATM    9  C   UNL     1     -38.881 -50.259  12.286  1.00  0.00     0.105 C 
HETATM   10  N   UNL     1     -38.479 -49.445  11.564  1.00  0.00    -0.191 NA
HETATM   11  C   UNL     1     -40.394 -52.161  12.805  1.00  0.00     0.283 A 
HETATM   12  O   UNL     1     -40.977 -52.009  11.730  1.00  0.00    -0.265 OA
ENDROOT
BRANCH   1  13
HETATM   13  C   UNL     1     -41.650 -54.218  13.288  1.00  0.00     0.255 C 
BRANCH  13  14
HETATM   14  C   UNL     1     -42.680 -54.465  14.388  1.00  0.00     0.237 C 
HETATM   15  N   UNL     1     -43.818 -53.685  14.298  1.00  0.00    -0.355 N 
HETATM   16  H   UNL     1     -43.911 -53.048  13.512  1.00  0.00     0.162 HD
HETATM   17  O   UNL     1     -42.491 -55.270  15.297  1.00  0.00    -0.272 OA
BRANCH  15  18
HETATM   18  C   UNL     1     -44.927 -53.829  15.237  1.00  0.00     0.084 C 
HETATM   19  C   UNL     1     -46.281 -53.681  14.529  1.00  0.00     0.025 C 
HETATM   20  C   UNL     1     -46.589 -52.234  14.140  1.00  0.00     0.006 C 
HETATM   21  C   UNL     1     -46.476 -51.260  15.320  1.00  0.00    -0.019 C 
HETATM   22  C   UNL     1     -47.633 -51.431  16.310  1.00  0.00     0.010 C 
HETATM   23  C   UNL     1     -45.114 -51.402  16.012  1.00  0.00     0.006 C 
HETATM   24  C   UNL     1     -44.787 -52.844  16.403  1.00  0.00     0.025 C 
ENDBRANCH  15  18
ENDBRANCH  13  14
ENDBRANCH   1  13
TORSDOF 3
ENDMDL
