MODEL 1
REMARK VINA RESULT:      -6.7      0.000      0.000
REMARK  3 active torsions:
REMARK  status: ('A' for Active; 'I' for Inactive)
REMARK    1  A    between atoms: C_2  and  C_3 
REMARK    2  A    between atoms: C_2  and  C_17 
REMARK    3  A    between atoms: C_3  and  N_4 
REMARK       I    between atoms: N_4  and  C_5 
REMARK       I    between atoms: C_5  and  N_7 
ROOT
HETATM    1  N   UNL     1     -42.477 -49.631  12.292  1.00  0.00    -0.342 N 
HETATM    2  C   UNL     1     -41.734 -48.481  12.372  1.00  0.00     0.318 C 
HETATM    3  O   UNL     1     -41.130 -48.152  13.387  1.00  0.00    -0.247 OA
HETATM    4  N   UNL     1     -41.775 -47.719  11.224  1.00  0.00    -0.329 N 
HETATM    5  C   UNL     1     -41.293 -46.344  11.221  1.00  0.00     0.153 C 
HETATM    6  C   UNL     1     -42.345 -45.432  10.578  1.00  0.00     0.189 C 
HETATM    7  O   UNL     1     -42.792 -45.908   9.294  1.00  0.00    -0.377 OA
HETATM    8  C   UNL     1     -43.248 -47.279   9.297  1.00  0.00     0.077 C 
HETATM    9  C   UNL     1     -44.608 -47.431  10.012  1.00  0.00     0.040 C 
HETATM   10  C   UNL     1     -45.647 -47.410   8.901  1.00  0.00     0.003 C 
HETATM   11  C   UNL     1     -44.962 -48.178   7.789  1.00  0.00     0.003 C 
HETATM   12  C   UNL     1     -43.529 -47.666   7.825  1.00  0.00     0.040 C 
HETATM   13  C   UNL     1     -42.165 -48.196   9.899  1.00  0.00     0.165 C 
HETATM   14  H   UNL     1     -43.346 -49.475  11.808  1.00  0.00     0.164 HD
ENDROOT
BRANCH   1  15
HETATM   15  C   UNL     1     -42.594 -50.523  13.430  1.00  0.00     0.133 C 
BRANCH  15  16
HETATM   16  C   UNL     1     -43.913 -50.330  14.209  1.00  0.00     0.032 C 
HETATM   17  C   UNL     1     -43.647 -49.913  15.662  1.00  0.00     0.017 C 
BRANCH  16  18
HETATM   18  C   UNL     1     -44.851 -51.528  14.087  1.00  0.00    -0.050 A 
HETATM   19  C   UNL     1     -46.139 -51.451  14.629  1.00  0.00     0.024 A 
HETATM   20  C   UNL     1     -46.973 -52.559  14.553  1.00  0.00     0.088 A 
HETATM   21  N   UNL     1     -46.622 -53.723  13.970  1.00  0.00    -0.375 N 
HETATM   22  C   UNL     1     -45.385 -53.783  13.440  1.00  0.00     0.088 A 
ATOM     23  HN  UNL     1     -47.260 -54.518  13.932  1.00  0.00     0.164 HD
HETATM   24  C   UNL     1     -44.481 -52.728  13.466  1.00  0.00     0.024 A 
ENDBRANCH  16  18
ENDBRANCH  15  16
ENDBRANCH   1  15
TORSDOF 3
ENDMDL
MODEL 2
REMARK VINA RESULT:      -6.6      2.292      6.462
REMARK  3 active torsions:
REMARK  status: ('A' for Active; 'I' for Inactive)
REMARK    1  A    between atoms: C_2  and  C_3 
REMARK    2  A    between atoms: C_2  and  C_17 
REMARK    3  A    between atoms: C_3  and  N_4 
REMARK       I    between atoms: N_4  and  C_5 
REMARK       I    between atoms: C_5  and  N_7 
ROOT
HETATM    1  N   UNL     1     -42.104 -49.929  12.328  1.00  0.00    -0.342 N 
HETATM    2  C   UNL     1     -41.588 -51.197  12.410  1.00  0.00     0.318 C 
HETATM    3  O   UNL     1     -40.612 -51.558  11.763  1.00  0.00    -0.247 OA
HETATM    4  N   UNL     1     -42.302 -52.028  13.247  1.00  0.00    -0.329 N 
HETATM    5  C   UNL     1     -42.082 -53.469  13.237  1.00  0.00     0.153 C 
HETATM    6  C   UNL     1     -43.430 -54.193  13.133  1.00  0.00     0.189 C 
HETATM    7  O   UNL     1     -44.386 -53.744  14.112  1.00  0.00    -0.377 OA
HETATM    8  C   UNL     1     -44.585 -52.314  14.134  1.00  0.00     0.077 C 
HETATM    9  C   UNL     1     -45.370 -51.823  12.898  1.00  0.00     0.040 C 
HETATM   10  C   UNL     1     -46.816 -51.721  13.361  1.00  0.00     0.003 C 
HETATM   11  C   UNL     1     -46.678 -51.208  14.779  1.00  0.00     0.003 C 
HETATM   12  C   UNL     1     -45.505 -52.002  15.338  1.00  0.00     0.040 C 
HETATM   13  C   UNL     1     -43.230 -51.594  14.289  1.00  0.00     0.165 C 
HETATM   14  H   UNL     1     -43.111 -49.941  12.306  1.00  0.00     0.164 HD
ENDROOT
BRANCH   1  15
HETATM   15  C   UNL     1     -41.513 -48.939  11.448  1.00  0.00     0.133 C 
BRANCH  15  16
HETATM   16  C   UNL     1     -42.355 -47.649  11.346  1.00  0.00     0.032 C 
HETATM   17  C   UNL     1     -43.052 -47.332  12.676  1.00  0.00     0.017 C 
BRANCH  16  18
HETATM   18  C   UNL     1     -43.305 -47.657  10.152  1.00  0.00    -0.050 A 
HETATM   19  C   UNL     1     -44.681 -47.514  10.368  1.00  0.00     0.024 A 
HETATM   20  C   UNL     1     -45.545 -47.565   9.282  1.00  0.00     0.088 A 
HETATM   21  N   UNL     1     -45.139 -47.735   8.007  1.00  0.00    -0.375 N 
HETATM   22  C   UNL     1     -43.812 -47.859   7.810  1.00  0.00     0.088 A 
ATOM     23  HN  UNL     1     -45.802 -47.768   7.233  1.00  0.00     0.164 HD
HETATM   24  C   UNL     1     -42.871 -47.820   8.831  1.00  0.00     0.024 A 
ENDBRANCH  16  18
ENDBRANCH  15  16
ENDBRANCH   1  15
TORSDOF 3
ENDMDL
MODEL 3
REMARK VINA RESULT:      -6.4      2.450      3.540
REMARK  3 active torsions:
REMARK  status: ('A' for Active; 'I' for Inactive)
REMARK    1  A    between atoms: C_2  and  C_3 
REMARK    2  A    between atoms: C_2  and  C_17 
REMARK    3  A    between atoms: C_3  and  N_4 
REMARK       I    between atoms: N_4  and  C_5 
REMARK       I    between atoms: C_5  and  N_7 
ROOT
HETATM    1  N   UNL     1     -40.774 -52.190  12.326  1.00  0.00    -0.342 N 
HETATM    2  C   UNL     1     -39.581 -51.580  12.618  1.00  0.00     0.318 C 
HETATM    3  O   UNL     1     -38.698 -52.129  13.269  1.00  0.00    -0.247 OA
HETATM    4  N   UNL     1     -39.497 -50.286  12.152  1.00  0.00    -0.329 N 
HETATM    5  C   UNL     1     -38.440 -49.392  12.609  1.00  0.00     0.153 C 
HETATM    6  C   UNL     1     -39.050 -48.056  13.048  1.00  0.00     0.189 C 
HETATM    7  O   UNL     1     -39.922 -47.484  12.053  1.00  0.00    -0.377 OA
HETATM    8  C   UNL     1     -40.955 -48.380  11.586  1.00  0.00     0.077 C 
HETATM    9  C   UNL     1     -42.047 -48.606  12.655  1.00  0.00     0.040 C 
HETATM   10  C   UNL     1     -43.160 -47.631  12.298  1.00  0.00     0.003 C 
HETATM   11  C   UNL     1     -43.160 -47.664  10.784  1.00  0.00     0.003 C 
HETATM   12  C   UNL     1     -41.682 -47.666  10.421  1.00  0.00     0.040 C 
HETATM   13  C   UNL     1     -40.329 -49.703  11.102  1.00  0.00     0.165 C 
HETATM   14  H   UNL     1     -41.548 -51.555  12.429  1.00  0.00     0.164 HD
ENDROOT
BRANCH   1  15
HETATM   15  C   UNL     1     -41.057 -53.535  12.791  1.00  0.00     0.133 C 
BRANCH  15  16
HETATM   16  C   UNL     1     -41.883 -53.557  14.095  1.00  0.00     0.032 C 
HETATM   17  C   UNL     1     -41.304 -54.558  15.105  1.00  0.00     0.017 C 
BRANCH  16  18
HETATM   18  C   UNL     1     -43.376 -53.746  13.844  1.00  0.00    -0.050 A 
HETATM   19  C   UNL     1     -44.080 -52.775  13.121  1.00  0.00     0.024 A 
HETATM   20  C   UNL     1     -45.447 -52.931  12.932  1.00  0.00     0.088 A 
HETATM   21  N   UNL     1     -46.154 -53.980  13.398  1.00  0.00    -0.375 N 
HETATM   22  C   UNL     1     -45.465 -54.914  14.082  1.00  0.00     0.088 A 
ATOM     23  HN  UNL     1     -47.158 -54.063  13.241  1.00  0.00     0.164 HD
HETATM   24  C   UNL     1     -44.098 -54.847  14.320  1.00  0.00     0.024 A 
ENDBRANCH  16  18
ENDBRANCH  15  16
ENDBRANCH   1  15
TORSDOF 3
ENDMDL
MODEL 4
REMARK VINA RESULT:      -6.3      2.864      7.024
REMARK  3 active torsions:
REMARK  status: ('A' for Active; 'I' for Inactive)
REMARK    1  A    between atoms: C_2  and  C_3 
REMARK    2  A    between atoms: C_2  and  C_17 
REMARK    3  A    between atoms: C_3  and  N_4 
REMARK       I    between atoms: N_4  and  C_5 
REMARK       I    between atoms: C_5  and  N_7 
ROOT
HETATM    1  N   UNL     1     -41.276 -51.072  12.604  1.00  0.00    -0.342 N 
HETATM    2  C   UNL     1     -40.938 -52.218  13.277  1.00  0.00     0.318 C 
HETATM    3  O   UNL     1     -39.862 -52.785  13.119  1.00  0.00    -0.247 OA
HETATM    4  N   UNL     1     -41.938 -52.688  14.101  1.00  0.00    -0.329 N 
HETATM    5  C   UNL     1     -41.875 -54.030  14.665  1.00  0.00     0.153 C 
HETATM    6  C   UNL     1     -43.207 -54.751  14.428  1.00  0.00     0.189 C 
HETATM    7  O   UNL     1     -44.347 -53.979  14.855  1.00  0.00    -0.377 OA
HETATM    8  C   UNL     1     -44.394 -52.642  14.311  1.00  0.00     0.077 C 
HETATM    9  C   UNL     1     -44.750 -52.644  12.808  1.00  0.00     0.040 C 
HETATM   10  C   UNL     1     -46.248 -52.388  12.754  1.00  0.00     0.003 C 
HETATM   11  C   UNL     1     -46.458 -51.390  13.874  1.00  0.00     0.003 C 
HETATM   12  C   UNL     1     -45.576 -51.915  14.997  1.00  0.00     0.040 C 
HETATM   13  C   UNL     1     -43.069 -51.907  14.597  1.00  0.00     0.165 C 
HETATM   14  H   UNL     1     -42.233 -51.098  12.290  1.00  0.00     0.164 HD
ENDROOT
BRANCH   1  15
HETATM   15  C   UNL     1     -40.364 -50.471  11.650  1.00  0.00     0.133 C 
BRANCH  15  16
HETATM   16  C   UNL     1     -39.968 -49.027  12.026  1.00  0.00     0.032 C 
HETATM   17  C   UNL     1     -40.028 -48.811  13.545  1.00  0.00     0.017 C 
BRANCH  16  18
HETATM   18  C   UNL     1     -40.744 -47.977  11.235  1.00  0.00    -0.050 A 
HETATM   19  C   UNL     1     -41.862 -48.368  10.487  1.00  0.00     0.024 A 
HETATM   20  C   UNL     1     -42.538 -47.416   9.735  1.00  0.00     0.088 A 
HETATM   21  N   UNL     1     -42.191 -46.114   9.684  1.00  0.00    -0.375 N 
HETATM   22  C   UNL     1     -41.121 -45.747  10.418  1.00  0.00     0.088 A 
ATOM     23  HN  UNL     1     -42.711 -45.442   9.121  1.00  0.00     0.164 HD
HETATM   24  C   UNL     1     -40.383 -46.625  11.201  1.00  0.00     0.024 A 
ENDBRANCH  16  18
ENDBRANCH  15  16
ENDBRANCH   1  15
TORSDOF 3
ENDMDL
MODEL 5
REMARK VINA RESULT:      -6.2      5.209      7.081
REMARK  3 active torsions:
REMARK  status: ('A' for Active; 'I' for Inactive)
REMARK    1  A    between atoms: C_2  and  C_3 
REMARK    2  A    between atoms: C_2  and  C_17 
REMARK    3  A    between atoms: C_3  and  N_4 
REMARK       I    between atoms: N_4  and  C_5 
REMARK       I    between atoms: C_5  and  N_7 
ROOT
HETATM    1  N   UNL     1     -45.369 -53.838  14.834  1.00  0.00    -0.342 N 
HETATM    2  C   UNL     1     -44.735 -54.315  15.953  1.00  0.00     0.318 C 
HETATM    3  O   UNL     1     -45.312 -54.473  17.024  1.00  0.00    -0.247 OA
HETATM    4  N   UNL     1     -43.390 -54.548  15.766  1.00  0.00    -0.329 N 
HETATM    5  C   UNL     1     -42.504 -54.776  16.901  1.00  0.00     0.153 C 
HETATM    6  C   UNL     1     -41.269 -53.876  16.777  1.00  0.00     0.189 C 
HETATM    7  O   UNL     1     -40.626 -53.979  15.491  1.00  0.00    -0.377 OA
HETATM    8  C   UNL     1     -41.512 -53.775  14.368  1.00  0.00     0.077 C 
HETATM    9  C   UNL     1     -41.930 -52.295  14.226  1.00  0.00     0.040 C 
HETATM   10  C   UNL     1     -40.982 -51.712  13.190  1.00  0.00     0.003 C 
HETATM   11  C   UNL     1     -40.824 -52.850  12.203  1.00  0.00     0.003 C 
HETATM   12  C   UNL     1     -40.699 -54.082  13.087  1.00  0.00     0.040 C 
HETATM   13  C   UNL     1     -42.727 -54.718  14.475  1.00  0.00     0.165 C 
HETATM   14  H   UNL     1     -44.796 -53.175  14.340  1.00  0.00     0.164 HD
ENDROOT
BRANCH   1  15
HETATM   15  C   UNL     1     -46.775 -53.483  14.869  1.00  0.00     0.133 C 
BRANCH  15  16
HETATM   16  C   UNL     1     -47.012 -51.962  14.743  1.00  0.00     0.032 C 
HETATM   17  C   UNL     1     -46.116 -51.346  13.659  1.00  0.00     0.017 C 
BRANCH  16  18
HETATM   18  C   UNL     1     -46.922 -51.239  16.084  1.00  0.00    -0.050 A 
HETATM   19  C   UNL     1     -48.071 -51.113  16.875  1.00  0.00     0.024 A 
HETATM   20  C   UNL     1     -47.993 -50.417  18.074  1.00  0.00     0.088 A 
HETATM   21  N   UNL     1     -46.861 -49.852  18.542  1.00  0.00    -0.375 N 
HETATM   22  C   UNL     1     -45.760 -49.990  17.779  1.00  0.00     0.088 A 
ATOM     23  HN  UNL     1     -46.840 -49.347  19.428  1.00  0.00     0.164 HD
HETATM   24  C   UNL     1     -45.738 -50.668  16.567  1.00  0.00     0.024 A 
ENDBRANCH  16  18
ENDBRANCH  15  16
ENDBRANCH   1  15
TORSDOF 3
ENDMDL
MODEL 6
REMARK VINA RESULT:      -6.1      3.230      7.186
REMARK  3 active torsions:
REMARK  status: ('A' for Active; 'I' for Inactive)
REMARK    1  A    between atoms: C_2  and  C_3 
REMARK    2  A    between atoms: C_2  and  C_17 
REMARK    3  A    between atoms: C_3  and  N_4 
REMARK       I    between atoms: N_4  and  C_5 
REMARK       I    between atoms: C_5  and  N_7 
ROOT
HETATM    1  N   UNL     1     -42.271 -50.310  12.638  1.00  0.00    -0.342 N 
HETATM    2  C   UNL     1     -42.024 -51.649  12.471  1.00  0.00     0.318 C 
HETATM    3  O   UNL     1     -41.316 -52.084  11.570  1.00  0.00    -0.247 OA
HETATM    4  N   UNL     1     -42.684 -52.447  13.380  1.00  0.00    -0.329 N 
HETATM    5  C   UNL     1     -42.775 -53.889  13.183  1.00  0.00     0.153 C 
HETATM    6  C   UNL     1     -44.231 -54.340  13.352  1.00  0.00     0.189 C 
HETATM    7  O   UNL     1     -44.825 -53.869  14.577  1.00  0.00    -0.377 OA
HETATM    8  C   UNL     1     -44.714 -52.443  14.780  1.00  0.00     0.077 C 
HETATM    9  C   UNL     1     -45.641 -51.652  13.830  1.00  0.00     0.040 C 
HETATM   10  C   UNL     1     -46.890 -51.360  14.648  1.00  0.00     0.003 C 
HETATM   11  C   UNL     1     -46.330 -51.083  16.028  1.00  0.00     0.003 C 
HETATM   12  C   UNL     1     -45.251 -52.143  16.200  1.00  0.00     0.040 C 
HETATM   13  C   UNL     1     -43.241 -52.005  14.657  1.00  0.00     0.165 C 
HETATM   14  H   UNL     1     -43.237 -50.139  12.868  1.00  0.00     0.164 HD
ENDROOT
BRANCH   1  15
HETATM   15  C   UNL     1     -41.704 -49.329  11.733  1.00  0.00     0.133 C 
BRANCH  15  16
HETATM   16  C   UNL     1     -40.534 -48.540  12.361  1.00  0.00     0.032 C 
HETATM   17  C   UNL     1     -40.242 -47.256  11.572  1.00  0.00     0.017 C 
BRANCH  16  18
HETATM   18  C   UNL     1     -39.297 -49.403  12.591  1.00  0.00    -0.050 A 
HETATM   19  C   UNL     1     -38.490 -49.751  11.501  1.00  0.00     0.024 A 
HETATM   20  C   UNL     1     -37.390 -50.573  11.710  1.00  0.00     0.088 A 
HETATM   21  N   UNL     1     -37.033 -51.057  12.917  1.00  0.00    -0.375 N 
HETATM   22  C   UNL     1     -37.809 -50.705  13.960  1.00  0.00     0.088 A 
ATOM     23  HN  UNL     1     -36.217 -51.658  13.034  1.00  0.00     0.164 HD
HETATM   24  C   UNL     1     -38.928 -49.889  13.851  1.00  0.00     0.024 A 
ENDBRANCH  16  18
ENDBRANCH  15  16
ENDBRANCH   1  15
TORSDOF 3
ENDMDL
MODEL 7
REMARK VINA RESULT:      -6.0      2.106      7.196
REMARK  3 active torsions:
REMARK  status: ('A' for Active; 'I' for Inactive)
REMARK    1  A    between atoms: C_2  and  C_3 
REMARK    2  A    between atoms: C_2  and  C_17 
REMARK    3  A    between atoms: C_3  and  N_4 
REMARK       I    between atoms: N_4  and  C_5 
REMARK       I    between atoms: C_5  and  N_7 
ROOT
HETATM    1  N   UNL     1     -42.772 -48.892  11.520  1.00  0.00    -0.342 N 
HETATM    2  C   UNL     1     -41.781 -49.666  12.069  1.00  0.00     0.318 C 
HETATM    3  O   UNL     1     -40.646 -49.712  11.608  1.00  0.00    -0.247 OA
HETATM    4  N   UNL     1     -42.201 -50.413  13.148  1.00  0.00    -0.329 N 
HETATM    5  C   UNL     1     -41.380 -51.497  13.673  1.00  0.00     0.153 C 
HETATM    6  C   UNL     1     -42.237 -52.759  13.833  1.00  0.00     0.189 C 
HETATM    7  O   UNL     1     -43.452 -52.523  14.570  1.00  0.00    -0.377 OA
HETATM    8  C   UNL     1     -44.252 -51.434  14.060  1.00  0.00     0.077 C 
HETATM    9  C   UNL     1     -44.936 -51.798  12.724  1.00  0.00     0.040 C 
HETATM   10  C   UNL     1     -46.340 -52.244  13.105  1.00  0.00     0.003 C 
HETATM   11  C   UNL     1     -46.695 -51.300  14.235  1.00  0.00     0.003 C 
HETATM   12  C   UNL     1     -45.417 -51.221  15.057  1.00  0.00     0.040 C 
HETATM   13  C   UNL     1     -43.396 -50.156  13.949  1.00  0.00     0.165 C 
HETATM   14  H   UNL     1     -43.651 -49.382  11.496  1.00  0.00     0.164 HD
ENDROOT
BRANCH   1  15
HETATM   15  C   UNL     1     -42.521 -48.086  10.341  1.00  0.00     0.133 C 
BRANCH  15  16
HETATM   16  C   UNL     1     -43.140 -46.674  10.437  1.00  0.00     0.032 C 
HETATM   17  C   UNL     1     -44.038 -46.376   9.228  1.00  0.00     0.017 C 
BRANCH  16  18
HETATM   18  C   UNL     1     -42.099 -45.590  10.699  1.00  0.00    -0.050 A 
HETATM   19  C   UNL     1     -42.518 -44.319  11.111  1.00  0.00     0.024 A 
HETATM   20  C   UNL     1     -41.570 -43.324  11.306  1.00  0.00     0.088 A 
HETATM   21  N   UNL     1     -40.245 -43.506  11.133  1.00  0.00    -0.375 N 
HETATM   22  C   UNL     1     -39.851 -44.736  10.749  1.00  0.00     0.088 A 
ATOM     23  HN  UNL     1     -39.575 -42.752  11.286  1.00  0.00     0.164 HD
HETATM   24  C   UNL     1     -40.724 -45.793  10.530  1.00  0.00     0.024 A 
ENDBRANCH  16  18
ENDBRANCH  15  16
ENDBRANCH   1  15
TORSDOF 3
ENDMDL
MODEL 8
REMARK VINA RESULT:      -6.0      4.836      7.236
REMARK  3 active torsions:
REMARK  status: ('A' for Active; 'I' for Inactive)
REMARK    1  A    between atoms: C_2  and  C_3 
REMARK    2  A    between atoms: C_2  and  C_17 
REMARK    3  A    between atoms: C_3  and  N_4 
REMARK       I    between atoms: N_4  and  C_5 
REMARK       I    between atoms: C_5  and  N_7 
ROOT
HETATM    1  N   UNL     1     -44.786 -53.634  16.508  1.00  0.00    -0.342 N 
HETATM    2  C   UNL     1     -44.010 -54.584  17.121  1.00  0.00     0.318 C 
HETATM    3  O   UNL     1     -44.226 -54.981  18.260  1.00  0.00    -0.247 OA
HETATM    4  N   UNL     1     -42.946 -55.005  16.352  1.00  0.00    -0.329 N 
HETATM    5  C   UNL     1     -41.862 -55.783  16.937  1.00  0.00     0.153 C 
HETATM    6  C   UNL     1     -40.515 -55.165  16.542  1.00  0.00     0.189 C 
HETATM    7  O   UNL     1     -40.392 -54.946  15.123  1.00  0.00    -0.377 OA
HETATM    8  C   UNL     1     -41.480 -54.194  14.543  1.00  0.00     0.077 C 
HETATM    9  C   UNL     1     -41.428 -52.703  14.946  1.00  0.00     0.040 C 
HETATM   10  C   UNL     1     -40.734 -52.003  13.788  1.00  0.00     0.003 C 
HETATM   11  C   UNL     1     -41.275 -52.738  12.579  1.00  0.00     0.003 C 
HETATM   12  C   UNL     1     -41.269 -54.198  13.010  1.00  0.00     0.040 C 
HETATM   13  C   UNL     1     -42.828 -54.849  14.904  1.00  0.00     0.165 C 
HETATM   14  H   UNL     1     -44.224 -52.970  16.000  1.00  0.00     0.164 HD
ENDROOT
BRANCH   1  15
HETATM   15  C   UNL     1     -45.914 -53.035  17.196  1.00  0.00     0.133 C 
BRANCH  15  16
HETATM   16  C   UNL     1     -46.225 -51.604  16.706  1.00  0.00     0.032 C 
HETATM   17  C   UNL     1     -47.673 -51.208  17.025  1.00  0.00     0.017 C 
BRANCH  16  18
HETATM   18  C   UNL     1     -45.846 -51.386  15.244  1.00  0.00    -0.050 A 
HETATM   19  C   UNL     1     -46.752 -51.747  14.238  1.00  0.00     0.024 A 
HETATM   20  C   UNL     1     -46.385 -51.587  12.909  1.00  0.00     0.088 A 
HETATM   21  N   UNL     1     -45.197 -51.086  12.513  1.00  0.00    -0.375 N 
HETATM   22  C   UNL     1     -44.338 -50.731  13.489  1.00  0.00     0.088 A 
ATOM     23  HN  UNL     1     -44.960 -50.982  11.526  1.00  0.00     0.164 HD
HETATM   24  C   UNL     1     -44.615 -50.852  14.844  1.00  0.00     0.024 A 
ENDBRANCH  16  18
ENDBRANCH  15  16
ENDBRANCH   1  15
TORSDOF 3
ENDMDL
MODEL 9
REMARK VINA RESULT:      -5.8      4.411      7.461
REMARK  3 active torsions:
REMARK  status: ('A' for Active; 'I' for Inactive)
REMARK    1  A    between atoms: C_2  and  C_3 
REMARK    2  A    between atoms: C_2  and  C_17 
REMARK    3  A    between atoms: C_3  and  N_4 
REMARK       I    between atoms: N_4  and  C_5 
REMARK       I    between atoms: C_5  and  N_7 
ROOT
HETATM    1  N   UNL     1     -41.122 -53.350  14.823  1.00  0.00    -0.342 N 
HETATM    2  C   UNL     1     -41.765 -53.762  13.684  1.00  0.00     0.318 C 
HETATM    3  O   UNL     1     -41.170 -54.007  12.640  1.00  0.00    -0.247 OA
HETATM    4  N   UNL     1     -43.135 -53.825  13.817  1.00  0.00    -0.329 N 
HETATM    5  C   UNL     1     -43.996 -53.960  12.649  1.00  0.00     0.153 C 
HETATM    6  C   UNL     1     -45.115 -52.913  12.711  1.00  0.00     0.189 C 
HETATM    7  O   UNL     1     -45.816 -52.916  13.970  1.00  0.00    -0.377 OA
HETATM    8  C   UNL     1     -44.958 -52.805  15.126  1.00  0.00     0.077 C 
HETATM    9  C   UNL     1     -44.366 -51.385  15.270  1.00  0.00     0.040 C 
HETATM   10  C   UNL     1     -45.276 -50.673  16.259  1.00  0.00     0.003 C 
HETATM   11  C   UNL     1     -45.613 -51.767  17.251  1.00  0.00     0.003 C 
HETATM   12  C   UNL     1     -45.854 -52.988  16.375  1.00  0.00     0.040 C 
HETATM   13  C   UNL     1     -43.866 -53.891  15.081  1.00  0.00     0.165 C 
HETATM   14  H   UNL     1     -41.629 -52.612  15.286  1.00  0.00     0.164 HD
ENDROOT
BRANCH   1  15
HETATM   15  C   UNL     1     -39.683 -53.170  14.844  1.00  0.00     0.133 C 
BRANCH  15  16
HETATM   16  C   UNL     1     -39.265 -51.685  14.899  1.00  0.00     0.032 C 
HETATM   17  C   UNL     1     -40.243 -50.862  15.750  1.00  0.00     0.017 C 
BRANCH  16  18
HETATM   18  C   UNL     1     -39.019 -51.090  13.515  1.00  0.00    -0.050 A 
HETATM   19  C   UNL     1     -37.716 -51.056  13.003  1.00  0.00     0.024 A 
HETATM   20  C   UNL     1     -37.492 -50.474  11.763  1.00  0.00     0.088 A 
HETATM   21  N   UNL     1     -38.466 -49.940  10.997  1.00  0.00    -0.375 N 
HETATM   22  C   UNL     1     -39.717 -49.990  11.494  1.00  0.00     0.088 A 
ATOM     23  HN  UNL     1     -38.265 -49.521  10.089  1.00  0.00     0.164 HD
HETATM   24  C   UNL     1     -40.040 -50.551  12.723  1.00  0.00     0.024 A 
ENDBRANCH  16  18
ENDBRANCH  15  16
ENDBRANCH   1  15
TORSDOF 3
ENDMDL
