MODEL 1
REMARK VINA RESULT:      -7.3      0.000      0.000
REMARK  3 active torsions:
REMARK  status: ('A' for Active; 'I' for Inactive)
REMARK    1  A    between atoms: N_5  and  C_6 
REMARK    2  A    between atoms: C_6  and  C_7 
REMARK       I    between atoms: C_7  and  N_9 
REMARK       I    between atoms: N_9  and  C_10 
REMARK       I    between atoms: C_10  and  N_12 
REMARK    3  A    between atoms: N_12  and  C_13 
ROOT
HETATM    1  C   UNL     1     -45.752 -52.467  12.625  1.00  0.00     0.070 C 
HETATM    2  C   UNL     1     -44.476 -52.771  13.378  1.00  0.00     0.029 A 
HETATM    3  N   UNL     1     -43.552 -51.870  13.328  1.00  0.00    -0.299 N 
ATOM      4  HN  UNL     1     -43.689 -51.008  12.800  1.00  0.00     0.187 HD
HETATM    5  N   UNL     1     -42.383 -52.102  13.999  1.00  0.00    -0.247 N 
HETATM    6  C   UNL     1     -42.102 -53.261  14.701  1.00  0.00     0.283 A 
HETATM    7  O   UNL     1     -41.016 -53.484  15.234  1.00  0.00    -0.265 OA
HETATM    8  C   UNL     1     -43.193 -54.267  14.751  1.00  0.00     0.121 A 
HETATM    9  C   UNL     1     -42.937 -55.458  15.481  1.00  0.00     0.105 C 
HETATM   10  N   UNL     1     -42.789 -56.455  16.056  1.00  0.00    -0.191 NA
HETATM   11  C   UNL     1     -44.359 -54.060  14.113  1.00  0.00    -0.012 A 
HETATM   12  C   UNL     1     -45.524 -55.002  14.084  1.00  0.00     0.052 C 
ENDROOT
BRANCH   5  13
HETATM   13  C   UNL     1     -41.316 -51.149  13.755  1.00  0.00     0.255 C 
BRANCH  13  14
HETATM   14  C   UNL     1     -40.569 -51.292  12.416  1.00  0.00     0.245 C 
HETATM   15  O   UNL     1     -39.673 -52.109  12.203  1.00  0.00    -0.271 OA
HETATM   16  N   UNL     1     -40.938 -50.404  11.409  1.00  0.00    -0.278 N 
HETATM   17  C   UNL     1     -41.751 -49.322  11.590  1.00  0.00     0.323 C 
HETATM   18  H   UNL     1     -40.453 -50.529  10.536  1.00  0.00     0.173 HD
HETATM   19  O   UNL     1     -42.209 -48.999  12.678  1.00  0.00    -0.247 OA
HETATM   20  N   UNL     1     -42.083 -48.618  10.449  1.00  0.00    -0.338 N 
HETATM   21  H   UNL     1     -41.350 -48.544   9.757  1.00  0.00     0.164 HD
BRANCH  20  22
HETATM   22  C   UNL     1     -42.911 -47.423  10.681  1.00  0.00     0.086 C 
HETATM   23  C   UNL     1     -44.426 -47.756  10.723  1.00  0.00     0.025 C 
HETATM   24  C   UNL     1     -45.238 -47.446   9.469  1.00  0.00     0.002 C 
HETATM   25  C   UNL     1     -44.841 -46.129   8.830  1.00  0.00     0.000 C 
HETATM   26  C   UNL     1     -43.354 -46.139   8.508  1.00  0.00     0.002 C 
HETATM   27  C   UNL     1     -42.540 -46.238   9.787  1.00  0.00     0.025 C 
ENDBRANCH  20  22
ENDBRANCH  13  14
ENDBRANCH   5  13
TORSDOF 3
ENDMDL
MODEL 2
REMARK VINA RESULT:      -6.8      2.546      7.597
REMARK  3 active torsions:
REMARK  status: ('A' for Active; 'I' for Inactive)
REMARK    1  A    between atoms: N_5  and  C_6 
REMARK    2  A    between atoms: C_6  and  C_7 
REMARK       I    between atoms: C_7  and  N_9 
REMARK       I    between atoms: N_9  and  C_10 
REMARK       I    between atoms: C_10  and  N_12 
REMARK    3  A    between atoms: N_12  and  C_13 
ROOT
HETATM    1  C   UNL     1     -38.080 -47.163  14.607  1.00  0.00     0.070 C 
HETATM    2  C   UNL     1     -39.035 -47.440  13.467  1.00  0.00     0.029 A 
HETATM    3  N   UNL     1     -39.236 -48.682  13.176  1.00  0.00    -0.299 N 
ATOM      4  HN  UNL     1     -38.763 -49.424  13.693  1.00  0.00     0.187 HD
HETATM    5  N   UNL     1     -40.097 -48.978  12.155  1.00  0.00    -0.247 N 
HETATM    6  C   UNL     1     -40.742 -48.033  11.379  1.00  0.00     0.283 A 
HETATM    7  O   UNL     1     -41.453 -48.316  10.416  1.00  0.00    -0.265 OA
HETATM    8  C   UNL     1     -40.501 -46.616  11.752  1.00  0.00     0.121 A 
HETATM    9  C   UNL     1     -41.168 -45.625  10.983  1.00  0.00     0.105 C 
HETATM   10  N   UNL     1     -41.677 -44.768  10.390  1.00  0.00    -0.191 NA
HETATM   11  C   UNL     1     -39.672 -46.294  12.761  1.00  0.00    -0.012 A 
HETATM   12  C   UNL     1     -39.345 -44.906  13.222  1.00  0.00     0.052 C 
ENDROOT
BRANCH   5  13
HETATM   13  C   UNL     1     -40.139 -50.372  11.750  1.00  0.00     0.255 C 
BRANCH  13  14
HETATM   14  C   UNL     1     -39.643 -51.396  12.788  1.00  0.00     0.245 C 
HETATM   15  O   UNL     1     -38.457 -51.627  13.026  1.00  0.00    -0.271 OA
HETATM   16  N   UNL     1     -40.628 -52.112  13.464  1.00  0.00    -0.278 N 
HETATM   17  C   UNL     1     -41.953 -52.106  13.134  1.00  0.00     0.323 C 
HETATM   18  H   UNL     1     -40.283 -52.761  14.151  1.00  0.00     0.173 HD
HETATM   19  O   UNL     1     -42.405 -51.494  12.176  1.00  0.00    -0.247 OA
HETATM   20  N   UNL     1     -42.790 -52.800  13.986  1.00  0.00    -0.338 N 
HETATM   21  H   UNL     1     -42.406 -53.651  14.372  1.00  0.00     0.164 HD
BRANCH  20  22
HETATM   22  C   UNL     1     -44.204 -52.826  13.575  1.00  0.00     0.086 C 
HETATM   23  C   UNL     1     -45.148 -52.288  14.682  1.00  0.00     0.025 C 
HETATM   24  C   UNL     1     -45.903 -53.322  15.511  1.00  0.00     0.002 C 
HETATM   25  C   UNL     1     -46.414 -54.479  14.674  1.00  0.00     0.000 C 
HETATM   26  C   UNL     1     -45.255 -55.135  13.939  1.00  0.00     0.002 C 
HETATM   27  C   UNL     1     -44.636 -54.156  12.954  1.00  0.00     0.025 C 
ENDBRANCH  20  22
ENDBRANCH  13  14
ENDBRANCH   5  13
TORSDOF 3
ENDMDL
MODEL 3
REMARK VINA RESULT:      -6.5      1.942      7.529
REMARK  3 active torsions:
REMARK  status: ('A' for Active; 'I' for Inactive)
REMARK    1  A    between atoms: N_5  and  C_6 
REMARK    2  A    between atoms: C_6  and  C_7 
REMARK       I    between atoms: C_7  and  N_9 
REMARK       I    between atoms: N_9  and  C_10 
REMARK       I    between atoms: C_10  and  N_12 
REMARK    3  A    between atoms: N_12  and  C_13 
ROOT
HETATM    1  C   UNL     1     -44.622 -47.809   9.912  1.00  0.00     0.070 C 
HETATM    2  C   UNL     1     -43.192 -47.543  10.329  1.00  0.00     0.029 A 
HETATM    3  N   UNL     1     -42.538 -48.548  10.809  1.00  0.00    -0.299 N 
ATOM      4  HN  UNL     1     -42.979 -49.464  10.900  1.00  0.00     0.187 HD
HETATM    5  N   UNL     1     -41.240 -48.354  11.195  1.00  0.00    -0.247 N 
HETATM    6  C   UNL     1     -40.585 -47.137  11.144  1.00  0.00     0.283 A 
HETATM    7  O   UNL     1     -39.443 -46.964  11.567  1.00  0.00    -0.265 OA
HETATM    8  C   UNL     1     -41.361 -46.008  10.573  1.00  0.00     0.121 A 
HETATM    9  C   UNL     1     -40.704 -44.751  10.492  1.00  0.00     0.105 C 
HETATM   10  N   UNL     1     -40.227 -43.696  10.404  1.00  0.00    -0.191 NA
HETATM   11  C   UNL     1     -42.634 -46.172  10.171  1.00  0.00    -0.012 A 
HETATM   12  C   UNL     1     -43.517 -45.110   9.589  1.00  0.00     0.052 C 
ENDROOT
BRANCH   5  13
HETATM   13  C   UNL     1     -40.619 -49.462  11.896  1.00  0.00     0.255 C 
BRANCH  13  14
HETATM   14  C   UNL     1     -40.749 -49.454  13.431  1.00  0.00     0.245 C 
HETATM   15  O   UNL     1     -40.007 -48.828  14.189  1.00  0.00    -0.271 OA
HETATM   16  N   UNL     1     -41.767 -50.240  13.965  1.00  0.00    -0.278 N 
HETATM   17  C   UNL     1     -42.504 -51.142  13.253  1.00  0.00     0.323 C 
HETATM   18  H   UNL     1     -41.847 -50.204  14.968  1.00  0.00     0.173 HD
HETATM   19  O   UNL     1     -42.314 -51.380  12.068  1.00  0.00    -0.247 OA
HETATM   20  N   UNL     1     -43.537 -51.753  13.937  1.00  0.00    -0.338 N 
HETATM   21  H   UNL     1     -43.348 -51.963  14.908  1.00  0.00     0.164 HD
BRANCH  20  22
HETATM   22  C   UNL     1     -44.277 -52.762  13.162  1.00  0.00     0.086 C 
HETATM   23  C   UNL     1     -45.813 -52.618  13.324  1.00  0.00     0.025 C 
HETATM   24  C   UNL     1     -46.503 -53.589  14.278  1.00  0.00     0.002 C 
HETATM   25  C   UNL     1     -45.952 -54.999  14.172  1.00  0.00     0.000 C 
HETATM   26  C   UNL     1     -44.452 -54.986  14.425  1.00  0.00     0.002 C 
HETATM   27  C   UNL     1     -43.744 -54.185  13.345  1.00  0.00     0.025 C 
ENDBRANCH  20  22
ENDBRANCH  13  14
ENDBRANCH   5  13
TORSDOF 3
ENDMDL
MODEL 4
REMARK VINA RESULT:      -6.4      2.728      3.716
REMARK  3 active torsions:
REMARK  status: ('A' for Active; 'I' for Inactive)
REMARK    1  A    between atoms: N_5  and  C_6 
REMARK    2  A    between atoms: C_6  and  C_7 
REMARK       I    between atoms: C_7  and  N_9 
REMARK       I    between atoms: N_9  and  C_10 
REMARK       I    between atoms: C_10  and  N_12 
REMARK    3  A    between atoms: N_12  and  C_13 
ROOT
HETATM    1  C   UNL     1     -39.953 -54.459  16.062  1.00  0.00     0.070 C 
HETATM    2  C   UNL     1     -40.856 -54.007  14.936  1.00  0.00     0.029 A 
HETATM    3  N   UNL     1     -40.367 -53.129  14.125  1.00  0.00    -0.299 N 
ATOM      4  HN  UNL     1     -39.422 -52.767  14.254  1.00  0.00     0.187 HD
HETATM    5  N   UNL     1     -41.148 -52.696  13.089  1.00  0.00    -0.247 N 
HETATM    6  C   UNL     1     -42.451 -53.104  12.870  1.00  0.00     0.283 A 
HETATM    7  O   UNL     1     -43.165 -52.646  11.979  1.00  0.00    -0.265 OA
HETATM    8  C   UNL     1     -42.976 -54.125  13.812  1.00  0.00     0.121 A 
HETATM    9  C   UNL     1     -44.305 -54.576  13.597  1.00  0.00     0.105 C 
HETATM   10  N   UNL     1     -45.387 -54.980  13.481  1.00  0.00    -0.191 NA
HETATM   11  C   UNL     1     -42.226 -54.581  14.831  1.00  0.00    -0.012 A 
HETATM   12  C   UNL     1     -42.648 -55.600  15.846  1.00  0.00     0.052 C 
ENDROOT
BRANCH   5  13
HETATM   13  C   UNL     1     -40.620 -51.579  12.326  1.00  0.00     0.255 C 
BRANCH  13  14
HETATM   14  C   UNL     1     -39.173 -51.160  12.645  1.00  0.00     0.245 C 
HETATM   15  O   UNL     1     -38.280 -51.941  12.976  1.00  0.00    -0.271 OA
HETATM   16  N   UNL     1     -38.897 -49.798  12.572  1.00  0.00    -0.278 N 
HETATM   17  C   UNL     1     -39.843 -48.822  12.435  1.00  0.00     0.323 C 
HETATM   18  H   UNL     1     -37.941 -49.548  12.764  1.00  0.00     0.173 HD
HETATM   19  O   UNL     1     -41.045 -49.050  12.402  1.00  0.00    -0.247 OA
HETATM   20  N   UNL     1     -39.366 -47.535  12.279  1.00  0.00    -0.338 N 
HETATM   21  H   UNL     1     -38.536 -47.314  12.813  1.00  0.00     0.164 HD
BRANCH  20  22
HETATM   22  C   UNL     1     -40.407 -46.498  12.192  1.00  0.00     0.086 C 
HETATM   23  C   UNL     1     -40.529 -45.906  10.764  1.00  0.00     0.025 C 
HETATM   24  C   UNL     1     -39.879 -44.547  10.519  1.00  0.00     0.002 C 
HETATM   25  C   UNL     1     -40.075 -43.591  11.680  1.00  0.00     0.000 C 
HETATM   26  C   UNL     1     -39.535 -44.213  12.959  1.00  0.00     0.002 C 
HETATM   27  C   UNL     1     -40.330 -45.459  13.313  1.00  0.00     0.025 C 
ENDBRANCH  20  22
ENDBRANCH  13  14
ENDBRANCH   5  13
TORSDOF 3
ENDMDL
MODEL 5
REMARK VINA RESULT:      -6.3      2.805      7.659
REMARK  3 active torsions:
REMARK  status: ('A' for Active; 'I' for Inactive)
REMARK    1  A    between atoms: N_5  and  C_6 
REMARK    2  A    between atoms: C_6  and  C_7 
REMARK       I    between atoms: C_7  and  N_9 
REMARK       I    between atoms: N_9  and  C_10 
REMARK       I    between atoms: C_10  and  N_12 
REMARK    3  A    between atoms: N_12  and  C_13 
ROOT
HETATM    1  C   UNL     1     -42.275 -47.142  10.006  1.00  0.00     0.070 C 
HETATM    2  C   UNL     1     -41.234 -46.894  11.075  1.00  0.00     0.029 A 
HETATM    3  N   UNL     1     -40.551 -47.920  11.461  1.00  0.00    -0.299 N 
ATOM      4  HN  UNL     1     -40.720 -48.842  11.058  1.00  0.00     0.187 HD
HETATM    5  N   UNL     1     -39.596 -47.739  12.422  1.00  0.00    -0.247 N 
HETATM    6  C   UNL     1     -39.335 -46.533  13.047  1.00  0.00     0.283 A 
HETATM    7  O   UNL     1     -38.525 -46.405  13.964  1.00  0.00    -0.265 OA
HETATM    8  C   UNL     1     -40.128 -45.372  12.569  1.00  0.00     0.121 A 
HETATM    9  C   UNL     1     -39.866 -44.117  13.180  1.00  0.00     0.105 C 
HETATM   10  N   UNL     1     -39.704 -43.066  13.644  1.00  0.00    -0.191 NA
HETATM   11  C   UNL     1     -41.063 -45.516  11.613  1.00  0.00    -0.012 A 
HETATM   12  C   UNL     1     -41.928 -44.425  11.058  1.00  0.00     0.052 C 
ENDROOT
BRANCH   5  13
HETATM   13  C   UNL     1     -38.994 -48.951  12.948  1.00  0.00     0.255 C 
BRANCH  13  14
HETATM   14  C   UNL     1     -38.731 -50.076  11.930  1.00  0.00     0.245 C 
HETATM   15  O   UNL     1     -37.891 -50.018  11.031  1.00  0.00    -0.271 OA
HETATM   16  N   UNL     1     -39.531 -51.209  12.046  1.00  0.00    -0.278 N 
HETATM   17  C   UNL     1     -40.631 -51.301  12.850  1.00  0.00     0.323 C 
HETATM   18  H   UNL     1     -39.329 -51.940  11.385  1.00  0.00     0.173 HD
HETATM   19  O   UNL     1     -41.050 -50.371  13.527  1.00  0.00    -0.247 OA
HETATM   20  N   UNL     1     -41.238 -52.541  12.905  1.00  0.00    -0.338 N 
HETATM   21  H   UNL     1     -41.246 -53.058  12.036  1.00  0.00     0.164 HD
BRANCH  20  22
HETATM   22  C   UNL     1     -42.454 -52.596  13.732  1.00  0.00     0.086 C 
HETATM   23  C   UNL     1     -42.315 -53.586  14.919  1.00  0.00     0.025 C 
HETATM   24  C   UNL     1     -42.978 -54.951  14.763  1.00  0.00     0.002 C 
HETATM   25  C   UNL     1     -44.337 -54.865  14.095  1.00  0.00     0.000 C 
HETATM   26  C   UNL     1     -44.204 -54.185  12.741  1.00  0.00     0.002 C 
HETATM   27  C   UNL     1     -43.741 -52.748  12.919  1.00  0.00     0.025 C 
ENDBRANCH  20  22
ENDBRANCH  13  14
ENDBRANCH   5  13
TORSDOF 3
ENDMDL
MODEL 6
REMARK VINA RESULT:      -6.3      3.421      6.946
REMARK  3 active torsions:
REMARK  status: ('A' for Active; 'I' for Inactive)
REMARK    1  A    between atoms: N_5  and  C_6 
REMARK    2  A    between atoms: C_6  and  C_7 
REMARK       I    between atoms: C_7  and  N_9 
REMARK       I    between atoms: N_9  and  C_10 
REMARK       I    between atoms: C_10  and  N_12 
REMARK    3  A    between atoms: N_12  and  C_13 
ROOT
HETATM    1  C   UNL     1     -40.724 -46.840  15.235  1.00  0.00     0.070 C 
HETATM    2  C   UNL     1     -39.693 -47.890  14.883  1.00  0.00     0.029 A 
HETATM    3  N   UNL     1     -40.030 -48.742  13.973  1.00  0.00    -0.299 N 
ATOM      4  HN  UNL     1     -40.947 -48.698  13.528  1.00  0.00     0.187 HD
HETATM    5  N   UNL     1     -39.126 -49.706  13.620  1.00  0.00    -0.247 N 
HETATM    6  C   UNL     1     -37.881 -49.861  14.204  1.00  0.00     0.283 A 
HETATM    7  O   UNL     1     -37.112 -50.780  13.928  1.00  0.00    -0.265 OA
HETATM    8  C   UNL     1     -37.521 -48.855  15.235  1.00  0.00     0.121 A 
HETATM    9  C   UNL     1     -36.241 -48.980  15.837  1.00  0.00     0.105 C 
HETATM   10  N   UNL     1     -35.212 -49.030  16.371  1.00  0.00    -0.191 NA
HETATM   11  C   UNL     1     -38.384 -47.886  15.592  1.00  0.00    -0.012 A 
HETATM   12  C   UNL     1     -38.138 -46.825  16.622  1.00  0.00     0.052 C 
ENDROOT
BRANCH   5  13
HETATM   13  C   UNL     1     -39.624 -50.743  12.734  1.00  0.00     0.255 C 
BRANCH  13  14
HETATM   14  C   UNL     1     -40.688 -50.309  11.710  1.00  0.00     0.245 C 
HETATM   15  O   UNL     1     -40.483 -49.520  10.786  1.00  0.00    -0.271 OA
HETATM   16  N   UNL     1     -41.962 -50.841  11.884  1.00  0.00    -0.278 N 
HETATM   17  C   UNL     1     -42.364 -51.542  12.985  1.00  0.00     0.323 C 
HETATM   18  H   UNL     1     -42.637 -50.560  11.192  1.00  0.00     0.173 HD
HETATM   19  O   UNL     1     -41.647 -51.740  13.956  1.00  0.00    -0.247 OA
HETATM   20  N   UNL     1     -43.637 -52.076  12.930  1.00  0.00    -0.338 N 
HETATM   21  H   UNL     1     -44.326 -51.505  12.459  1.00  0.00     0.164 HD
BRANCH  20  22
HETATM   22  C   UNL     1     -44.066 -52.775  14.152  1.00  0.00     0.086 C 
HETATM   23  C   UNL     1     -44.065 -54.317  13.978  1.00  0.00     0.025 C 
HETATM   24  C   UNL     1     -45.414 -54.988  13.737  1.00  0.00     0.002 C 
HETATM   25  C   UNL     1     -46.520 -54.392  14.587  1.00  0.00     0.000 C 
HETATM   26  C   UNL     1     -46.620 -52.896  14.330  1.00  0.00     0.002 C 
HETATM   27  C   UNL     1     -45.342 -52.201  14.770  1.00  0.00     0.025 C 
ENDBRANCH  20  22
ENDBRANCH  13  14
ENDBRANCH   5  13
TORSDOF 3
ENDMDL
MODEL 7
REMARK VINA RESULT:      -6.3     14.815     17.312
REMARK  3 active torsions:
REMARK  status: ('A' for Active; 'I' for Inactive)
REMARK    1  A    between atoms: N_5  and  C_6 
REMARK    2  A    between atoms: C_6  and  C_7 
REMARK       I    between atoms: C_7  and  N_9 
REMARK       I    between atoms: N_9  and  C_10 
REMARK       I    between atoms: C_10  and  N_12 
REMARK    3  A    between atoms: N_12  and  C_13 
ROOT
HETATM    1  C   UNL     1     -53.529 -51.459  -1.433  1.00  0.00     0.070 C 
HETATM    2  C   UNL     1     -52.212 -51.004  -0.844  1.00  0.00     0.029 A 
HETATM    3  N   UNL     1     -51.184 -51.744  -1.096  1.00  0.00    -0.299 N 
ATOM      4  HN  UNL     1     -51.273 -52.589  -1.660  1.00  0.00     0.187 HD
HETATM    5  N   UNL     1     -49.972 -51.366  -0.587  1.00  0.00    -0.247 N 
HETATM    6  C   UNL     1     -49.774 -50.261   0.221  1.00  0.00     0.283 A 
HETATM    7  O   UNL     1     -48.692 -49.979   0.732  1.00  0.00    -0.265 OA
HETATM    8  C   UNL     1     -50.974 -49.424   0.477  1.00  0.00     0.121 A 
HETATM    9  C   UNL     1     -50.794 -48.272   1.288  1.00  0.00     0.105 C 
HETATM   10  N   UNL     1     -50.716 -47.321   1.948  1.00  0.00    -0.191 NA
HETATM   11  C   UNL     1     -52.176 -49.762  -0.023  1.00  0.00    -0.012 A 
HETATM   12  C   UNL     1     -53.455 -49.005   0.174  1.00  0.00     0.052 C 
ENDROOT
BRANCH   5  13
HETATM   13  C   UNL     1     -48.895 -52.328  -0.743  1.00  0.00     0.255 C 
BRANCH  13  14
HETATM   14  C   UNL     1     -47.965 -52.117  -1.951  1.00  0.00     0.245 C 
HETATM   15  O   UNL     1     -47.348 -51.076  -2.182  1.00  0.00    -0.271 OA
HETATM   16  N   UNL     1     -47.857 -53.185  -2.838  1.00  0.00    -0.278 N 
HETATM   17  C   UNL     1     -48.651 -54.296  -2.812  1.00  0.00     0.323 C 
HETATM   18  H   UNL     1     -47.228 -53.034  -3.609  1.00  0.00     0.173 HD
HETATM   19  O   UNL     1     -49.573 -54.446  -2.022  1.00  0.00    -0.247 OA
HETATM   20  N   UNL     1     -48.324 -55.293  -3.710  1.00  0.00    -0.338 N 
HETATM   21  H   UNL     1     -47.993 -54.973  -4.610  1.00  0.00     0.164 HD
BRANCH  20  22
HETATM   22  C   UNL     1     -49.232 -56.452  -3.701  1.00  0.00     0.086 C 
HETATM   23  C   UNL     1     -48.466 -57.798  -3.595  1.00  0.00     0.025 C 
HETATM   24  C   UNL     1     -48.289 -58.597  -4.883  1.00  0.00     0.002 C 
HETATM   25  C   UNL     1     -49.530 -58.578  -5.755  1.00  0.00     0.000 C 
HETATM   26  C   UNL     1     -49.915 -57.141  -6.073  1.00  0.00     0.002 C 
HETATM   27  C   UNL     1     -50.296 -56.405  -4.799  1.00  0.00     0.025 C 
ENDBRANCH  20  22
ENDBRANCH  13  14
ENDBRANCH   5  13
TORSDOF 3
ENDMDL
MODEL 8
REMARK VINA RESULT:      -6.1      2.039      2.476
REMARK  3 active torsions:
REMARK  status: ('A' for Active; 'I' for Inactive)
REMARK    1  A    between atoms: N_5  and  C_6 
REMARK    2  A    between atoms: C_6  and  C_7 
REMARK       I    between atoms: C_7  and  N_9 
REMARK       I    between atoms: N_9  and  C_10 
REMARK       I    between atoms: C_10  and  N_12 
REMARK    3  A    between atoms: N_12  and  C_13 
ROOT
HETATM    1  C   UNL     1     -45.384 -51.002  13.219  1.00  0.00     0.070 C 
HETATM    2  C   UNL     1     -44.170 -51.898  13.328  1.00  0.00     0.029 A 
HETATM    3  N   UNL     1     -43.122 -51.527  12.672  1.00  0.00    -0.299 N 
ATOM      4  HN  UNL     1     -43.130 -50.675  12.111  1.00  0.00     0.187 HD
HETATM    5  N   UNL     1     -41.999 -52.306  12.746  1.00  0.00    -0.247 N 
HETATM    6  C   UNL     1     -41.920 -53.496  13.448  1.00  0.00     0.283 A 
HETATM    7  O   UNL     1     -40.927 -54.222  13.441  1.00  0.00    -0.265 OA
HETATM    8  C   UNL     1     -43.138 -53.883  14.203  1.00  0.00     0.121 A 
HETATM    9  C   UNL     1     -43.076 -55.091  14.948  1.00  0.00     0.105 C 
HETATM   10  N   UNL     1     -43.093 -56.070  15.572  1.00  0.00    -0.191 NA
HETATM   11  C   UNL     1     -44.251 -53.130  14.162  1.00  0.00    -0.012 A 
HETATM   12  C   UNL     1     -45.538 -53.422  14.872  1.00  0.00     0.052 C 
ENDROOT
BRANCH   5  13
HETATM   13  C   UNL     1     -40.920 -51.945  11.845  1.00  0.00     0.255 C 
BRANCH  13  14
HETATM   14  C   UNL     1     -39.665 -51.337  12.497  1.00  0.00     0.245 C 
HETATM   15  O   UNL     1     -38.865 -51.969  13.190  1.00  0.00    -0.271 OA
HETATM   16  N   UNL     1     -39.463 -49.975  12.292  1.00  0.00    -0.278 N 
HETATM   17  C   UNL     1     -40.383 -49.132  11.736  1.00  0.00     0.323 C 
HETATM   18  H   UNL     1     -38.627 -49.603  12.709  1.00  0.00     0.173 HD
HETATM   19  O   UNL     1     -41.502 -49.487  11.396  1.00  0.00    -0.247 OA
HETATM   20  N   UNL     1     -39.961 -47.833  11.524  1.00  0.00    -0.338 N 
HETATM   21  H   UNL     1     -39.345 -47.457  12.232  1.00  0.00     0.164 HD
BRANCH  20  22
HETATM   22  C   UNL     1     -40.989 -46.933  10.979  1.00  0.00     0.086 C 
HETATM   23  C   UNL     1     -40.374 -45.715  10.240  1.00  0.00     0.025 C 
HETATM   24  C   UNL     1     -40.344 -44.389  10.994  1.00  0.00     0.002 C 
HETATM   25  C   UNL     1     -41.614 -44.143  11.787  1.00  0.00     0.000 C 
HETATM   26  C   UNL     1     -41.852 -45.295  12.752  1.00  0.00     0.002 C 
HETATM   27  C   UNL     1     -42.091 -46.584  11.982  1.00  0.00     0.025 C 
ENDBRANCH  20  22
ENDBRANCH  13  14
ENDBRANCH   5  13
TORSDOF 3
ENDMDL
MODEL 9
REMARK VINA RESULT:      -6.1      3.449      7.086
REMARK  3 active torsions:
REMARK  status: ('A' for Active; 'I' for Inactive)
REMARK    1  A    between atoms: N_5  and  C_6 
REMARK    2  A    between atoms: C_6  and  C_7 
REMARK       I    between atoms: C_7  and  N_9 
REMARK       I    between atoms: N_9  and  C_10 
REMARK       I    between atoms: C_10  and  N_12 
REMARK    3  A    between atoms: N_12  and  C_13 
ROOT
HETATM    1  C   UNL     1     -37.130 -50.373  15.174  1.00  0.00     0.070 C 
HETATM    2  C   UNL     1     -38.177 -49.776  14.260  1.00  0.00     0.029 A 
HETATM    3  N   UNL     1     -38.976 -50.610  13.682  1.00  0.00    -0.299 N 
ATOM      4  HN  UNL     1     -38.890 -51.613  13.841  1.00  0.00     0.187 HD
HETATM    5  N   UNL     1     -39.942 -50.112  12.851  1.00  0.00    -0.247 N 
HETATM    6  C   UNL     1     -40.098 -48.771  12.549  1.00  0.00     0.283 A 
HETATM    7  O   UNL     1     -40.923 -48.350  11.740  1.00  0.00    -0.265 OA
HETATM    8  C   UNL     1     -39.172 -47.841  13.243  1.00  0.00     0.121 A 
HETATM    9  C   UNL     1     -39.324 -46.456  12.966  1.00  0.00     0.105 C 
HETATM   10  N   UNL     1     -39.392 -45.313  12.777  1.00  0.00    -0.191 NA
HETATM   11  C   UNL     1     -38.223 -48.299  14.078  1.00  0.00    -0.012 A 
HETATM   12  C   UNL     1     -37.229 -47.461  14.825  1.00  0.00     0.052 C 
ENDROOT
BRANCH   5  13
HETATM   13  C   UNL     1     -40.686 -51.099  12.088  1.00  0.00     0.255 C 
BRANCH  13  14
HETATM   14  C   UNL     1     -40.833 -52.489  12.734  1.00  0.00     0.245 C 
HETATM   15  O   UNL     1     -40.079 -53.439  12.518  1.00  0.00    -0.271 OA
HETATM   16  N   UNL     1     -41.916 -52.656  13.593  1.00  0.00    -0.278 N 
HETATM   17  C   UNL     1     -42.934 -51.758  13.738  1.00  0.00     0.323 C 
HETATM   18  H   UNL     1     -41.981 -53.565  14.020  1.00  0.00     0.173 HD
HETATM   19  O   UNL     1     -43.017 -50.724  13.091  1.00  0.00    -0.247 OA
HETATM   20  N   UNL     1     -43.867 -52.056  14.713  1.00  0.00    -0.338 N 
HETATM   21  H   UNL     1     -44.087 -53.037  14.817  1.00  0.00     0.164 HD
BRANCH  20  22
HETATM   22  C   UNL     1     -44.984 -51.102  14.808  1.00  0.00     0.086 C 
HETATM   23  C   UNL     1     -45.090 -50.458  16.215  1.00  0.00     0.025 C 
HETATM   24  C   UNL     1     -46.158 -51.014  17.153  1.00  0.00     0.002 C 
HETATM   25  C   UNL     1     -47.460 -51.319  16.436  1.00  0.00     0.000 C 
HETATM   26  C   UNL     1     -47.204 -52.288  15.292  1.00  0.00     0.002 C 
HETATM   27  C   UNL     1     -46.301 -51.646  14.251  1.00  0.00     0.025 C 
ENDBRANCH  20  22
ENDBRANCH  13  14
ENDBRANCH   5  13
TORSDOF 3
ENDMDL
