MODEL 1
REMARK VINA RESULT:      -6.0      0.000      0.000
REMARK  5 active torsions:
REMARK  status: ('A' for Active; 'I' for Inactive)
REMARK    1  A    between atoms: N_1  and  S_2 
REMARK    2  A    between atoms: S_2  and  N_5 
REMARK    3  A    between atoms: N_5  and  C_6 
REMARK    4  A    between atoms: C_6  and  C_7 
REMARK    5  A    between atoms: C_10  and  N_14 
ROOT
HETATM    1  C   UNL     1     -41.541 -50.846  12.335  1.00  0.00    -0.029 A 
HETATM    2  C   UNL     1     -42.587 -50.223  13.012  1.00  0.00     0.013 A 
HETATM    3  C   UNL     1     -43.779 -50.914  13.228  1.00  0.00     0.049 A 
HETATM    4  C   UNL     1     -43.926 -52.225  12.775  1.00  0.00     0.103 A 
HETATM    5  N   UNL     1     -42.926 -52.823  12.095  1.00  0.00    -0.352 N 
ATOM      6  HN  UNL     1     -43.032 -53.776  11.748  1.00  0.00     0.166 HD
HETATM    7  C   UNL     1     -41.777 -52.136  11.882  1.00  0.00     0.098 A 
ENDROOT
BRANCH   1   8
HETATM    8  C   UNL     1     -40.220 -50.164  12.114  1.00  0.00     0.145 C 
BRANCH   8   9
HETATM    9  N   UNL     1     -39.159 -51.144  11.798  1.00  0.00    -0.203 NA
HETATM   10  H   UNL     1     -39.250 -51.977  12.376  1.00  0.00     0.141 HD
BRANCH   9  11
HETATM   11  S   UNL     1     -37.622 -50.547  12.010  1.00  0.00     0.276 S 
HETATM   12  O   UNL     1     -36.731 -51.648  12.246  1.00  0.00    -0.194 OA
HETATM   13  O   UNL     1     -37.674 -49.369  12.828  1.00  0.00    -0.194 OA
BRANCH  11  14
HETATM   14  N   UNL     1     -37.401 -50.045  10.439  1.00  0.00    -0.216 NA
HETATM   15  H   UNL     1     -38.301 -49.756  10.049  1.00  0.00     0.137 HD
HETATM   16  H   UNL     1     -37.002 -50.812   9.896  1.00  0.00     0.137 HD
ENDBRANCH  11  14
ENDBRANCH   9  11
ENDBRANCH   8   9
ENDBRANCH   1   8
BRANCH   4  17
HETATM   17  N   UNL     1     -45.066 -52.942  13.048  1.00  0.00    -0.363 N 
HETATM   18  C   UNL     1     -46.321 -52.245  13.343  1.00  0.00     0.150 C 
HETATM   19  C   UNL     1     -46.886 -52.685  14.699  1.00  0.00     0.187 C 
HETATM   20  O   UNL     1     -46.979 -54.118  14.797  1.00  0.00    -0.388 OA
HETATM   21  C   UNL     1     -45.674 -54.701  14.653  1.00  0.00     0.187 C 
HETATM   22  C   UNL     1     -45.061 -54.386  13.279  1.00  0.00     0.150 C 
ENDBRANCH   4  17
TORSDOF 5
ENDMDL
MODEL 2
REMARK VINA RESULT:      -5.8      3.726      4.193
REMARK  5 active torsions:
REMARK  status: ('A' for Active; 'I' for Inactive)
REMARK    1  A    between atoms: N_1  and  S_2 
REMARK    2  A    between atoms: S_2  and  N_5 
REMARK    3  A    between atoms: N_5  and  C_6 
REMARK    4  A    between atoms: C_6  and  C_7 
REMARK    5  A    between atoms: C_10  and  N_14 
ROOT
HETATM    1  C   UNL     1     -41.767 -49.702  11.827  1.00  0.00    -0.029 A 
HETATM    2  C   UNL     1     -40.874 -50.759  11.666  1.00  0.00     0.013 A 
HETATM    3  C   UNL     1     -41.227 -52.035  12.106  1.00  0.00     0.049 A 
HETATM    4  C   UNL     1     -42.468 -52.257  12.699  1.00  0.00     0.103 A 
HETATM    5  N   UNL     1     -43.327 -51.231  12.882  1.00  0.00    -0.352 N 
ATOM      6  HN  UNL     1     -44.231 -51.384  13.328  1.00  0.00     0.166 HD
HETATM    7  C   UNL     1     -42.966 -49.994  12.460  1.00  0.00     0.098 A 
ENDROOT
BRANCH   1   8
HETATM    8  C   UNL     1     -41.456 -48.317  11.332  1.00  0.00     0.145 C 
BRANCH   8   9
HETATM    9  N   UNL     1     -41.710 -48.199   9.880  1.00  0.00    -0.203 NA
HETATM   10  H   UNL     1     -40.881 -47.865   9.392  1.00  0.00     0.141 HD
BRANCH   9  11
HETATM   11  S   UNL     1     -42.964 -47.173   9.508  1.00  0.00     0.276 S 
HETATM   12  O   UNL     1     -42.466 -45.826   9.495  1.00  0.00    -0.194 OA
HETATM   13  O   UNL     1     -44.145 -47.584  10.213  1.00  0.00    -0.194 OA
BRANCH  11  14
HETATM   14  N   UNL     1     -43.140 -47.664   7.927  1.00  0.00    -0.216 NA
HETATM   15  H   UNL     1     -44.092 -47.460   7.616  1.00  0.00     0.137 HD
HETATM   16  H   UNL     1     -42.947 -48.664   7.865  1.00  0.00     0.137 HD
ENDBRANCH  11  14
ENDBRANCH   9  11
ENDBRANCH   8   9
ENDBRANCH   1   8
BRANCH   4  17
HETATM   17  N   UNL     1     -42.859 -53.522  13.067  1.00  0.00    -0.363 N 
HETATM   18  C   UNL     1     -44.208 -53.997  12.749  1.00  0.00     0.150 C 
HETATM   19  C   UNL     1     -44.941 -54.454  14.016  1.00  0.00     0.187 C 
HETATM   20  O   UNL     1     -44.157 -55.393  14.775  1.00  0.00    -0.388 OA
HETATM   21  C   UNL     1     -42.921 -54.782  15.176  1.00  0.00     0.187 C 
HETATM   22  C   UNL     1     -42.072 -54.369  13.962  1.00  0.00     0.150 C 
ENDBRANCH   4  17
TORSDOF 5
ENDMDL
MODEL 3
REMARK VINA RESULT:      -5.7      4.606      7.119
REMARK  5 active torsions:
REMARK  status: ('A' for Active; 'I' for Inactive)
REMARK    1  A    between atoms: N_1  and  S_2 
REMARK    2  A    between atoms: S_2  and  N_5 
REMARK    3  A    between atoms: N_5  and  C_6 
REMARK    4  A    between atoms: C_6  and  C_7 
REMARK    5  A    between atoms: C_10  and  N_14 
ROOT
HETATM    1  C   UNL     1     -39.809 -49.804  12.505  1.00  0.00    -0.029 A 
HETATM    2  C   UNL     1     -39.384 -48.602  13.066  1.00  0.00     0.013 A 
HETATM    3  C   UNL     1     -39.688 -47.398  12.431  1.00  0.00     0.049 A 
HETATM    4  C   UNL     1     -40.418 -47.393  11.243  1.00  0.00     0.103 A 
HETATM    5  N   UNL     1     -40.808 -48.556  10.682  1.00  0.00    -0.352 N 
ATOM      6  HN  UNL     1     -41.329 -48.561   9.805  1.00  0.00     0.166 HD
HETATM    7  C   UNL     1     -40.495 -49.720  11.304  1.00  0.00     0.098 A 
ENDROOT
BRANCH   1   8
HETATM    8  C   UNL     1     -39.547 -51.127  13.170  1.00  0.00     0.145 C 
BRANCH   8   9
HETATM    9  N   UNL     1     -40.806 -51.865  13.406  1.00  0.00    -0.203 NA
HETATM   10  H   UNL     1     -41.112 -51.763  14.371  1.00  0.00     0.141 HD
BRANCH   9  11
HETATM   11  S   UNL     1     -40.691 -53.492  13.081  1.00  0.00     0.276 S 
HETATM   12  O   UNL     1     -41.927 -54.122  13.453  1.00  0.00    -0.194 OA
HETATM   13  O   UNL     1     -39.397 -53.969  13.477  1.00  0.00    -0.194 OA
BRANCH  11  14
HETATM   14  N   UNL     1     -40.675 -53.347  11.423  1.00  0.00    -0.216 NA
HETATM   15  H   UNL     1     -39.719 -53.468  11.084  1.00  0.00     0.137 HD
HETATM   16  H   UNL     1     -41.036 -52.428  11.164  1.00  0.00     0.137 HD
ENDBRANCH  11  14
ENDBRANCH   9  11
ENDBRANCH   8   9
ENDBRANCH   1   8
BRANCH   4  17
HETATM   17  N   UNL     1     -40.789 -46.211  10.648  1.00  0.00    -0.363 N 
HETATM   18  C   UNL     1     -39.784 -45.184  10.360  1.00  0.00     0.150 C 
HETATM   19  C   UNL     1     -40.160 -43.850  11.012  1.00  0.00     0.187 C 
HETATM   20  O   UNL     1     -41.506 -43.456  10.682  1.00  0.00    -0.388 OA
HETATM   21  C   UNL     1     -42.431 -44.452  11.146  1.00  0.00     0.187 C 
HETATM   22  C   UNL     1     -42.185 -45.812  10.474  1.00  0.00     0.150 C 
ENDBRANCH   4  17
TORSDOF 5
ENDMDL
MODEL 4
REMARK VINA RESULT:      -5.7      3.614      7.041
REMARK  5 active torsions:
REMARK  status: ('A' for Active; 'I' for Inactive)
REMARK    1  A    between atoms: N_1  and  S_2 
REMARK    2  A    between atoms: S_2  and  N_5 
REMARK    3  A    between atoms: N_5  and  C_6 
REMARK    4  A    between atoms: C_6  and  C_7 
REMARK    5  A    between atoms: C_10  and  N_14 
ROOT
HETATM    1  C   UNL     1     -42.286 -52.467  12.677  1.00  0.00    -0.029 A 
HETATM    2  C   UNL     1     -42.914 -51.304  13.116  1.00  0.00     0.013 A 
HETATM    3  C   UNL     1     -42.487 -50.066  12.637  1.00  0.00     0.049 A 
HETATM    4  C   UNL     1     -41.441 -49.987  11.720  1.00  0.00     0.103 A 
HETATM    5  N   UNL     1     -40.811 -51.109  11.312  1.00  0.00    -0.352 N 
ATOM      6  HN  UNL     1     -40.035 -51.058  10.652  1.00  0.00     0.166 HD
HETATM    7  C   UNL     1     -41.229 -52.305  11.794  1.00  0.00     0.098 A 
ENDROOT
BRANCH   1   8
HETATM    8  C   UNL     1     -42.734 -53.830  13.126  1.00  0.00     0.145 C 
BRANCH   8   9
HETATM    9  N   UNL     1     -44.045 -54.182  12.540  1.00  0.00    -0.203 NA
HETATM   10  H   UNL     1     -44.342 -53.478  11.866  1.00  0.00     0.141 HD
BRANCH   9  11
HETATM   11  S   UNL     1     -45.254 -54.342  13.670  1.00  0.00     0.276 S 
HETATM   12  O   UNL     1     -44.851 -53.667  14.872  1.00  0.00    -0.194 OA
HETATM   13  O   UNL     1     -45.766 -55.683  13.638  1.00  0.00    -0.194 OA
BRANCH  11  14
HETATM   14  N   UNL     1     -46.362 -53.374  12.893  1.00  0.00    -0.216 NA
HETATM   15  H   UNL     1     -46.574 -52.566  13.481  1.00  0.00     0.137 HD
HETATM   16  H   UNL     1     -47.207 -53.916  12.707  1.00  0.00     0.137 HD
ENDBRANCH  11  14
ENDBRANCH   9  11
ENDBRANCH   8   9
ENDBRANCH   1   8
BRANCH   4  17
HETATM   17  N   UNL     1     -41.062 -48.781  11.183  1.00  0.00    -0.363 N 
HETATM   18  C   UNL     1     -39.876 -48.087  11.695  1.00  0.00     0.150 C 
HETATM   19  C   UNL     1     -40.228 -46.669  12.158  1.00  0.00     0.187 C 
HETATM   20  O   UNL     1     -40.936 -45.937  11.139  1.00  0.00    -0.388 OA
HETATM   21  C   UNL     1     -42.162 -46.614  10.818  1.00  0.00     0.187 C 
HETATM   22  C   UNL     1     -41.902 -48.022  10.258  1.00  0.00     0.150 C 
ENDBRANCH   4  17
TORSDOF 5
ENDMDL
MODEL 5
REMARK VINA RESULT:      -5.7      4.473      5.527
REMARK  5 active torsions:
REMARK  status: ('A' for Active; 'I' for Inactive)
REMARK    1  A    between atoms: N_1  and  S_2 
REMARK    2  A    between atoms: S_2  and  N_5 
REMARK    3  A    between atoms: N_5  and  C_6 
REMARK    4  A    between atoms: C_6  and  C_7 
REMARK    5  A    between atoms: C_10  and  N_14 
ROOT
HETATM    1  C   UNL     1     -41.573 -49.272  11.465  1.00  0.00    -0.029 A 
HETATM    2  C   UNL     1     -42.359 -49.896  12.430  1.00  0.00     0.013 A 
HETATM    3  C   UNL     1     -41.912 -51.073  13.031  1.00  0.00     0.049 A 
HETATM    4  C   UNL     1     -40.681 -51.623  12.674  1.00  0.00     0.103 A 
HETATM    5  N   UNL     1     -39.928 -51.036  11.720  1.00  0.00    -0.352 N 
ATOM      6  HN  UNL     1     -39.033 -51.440  11.444  1.00  0.00     0.166 HD
HETATM    7  C   UNL     1     -40.380 -49.899  11.137  1.00  0.00     0.098 A 
ENDROOT
BRANCH   1   8
HETATM    8  C   UNL     1     -41.986 -47.979  10.819  1.00  0.00     0.145 C 
BRANCH   8   9
HETATM    9  N   UNL     1     -42.048 -48.113   9.348  1.00  0.00    -0.203 NA
HETATM   10  H   UNL     1     -41.270 -47.627   8.906  1.00  0.00     0.141 HD
BRANCH   9  11
HETATM   11  S   UNL     1     -43.455 -47.524   8.687  1.00  0.00     0.276 S 
HETATM   12  O   UNL     1     -44.458 -47.476   9.713  1.00  0.00    -0.194 OA
HETATM   13  O   UNL     1     -43.659 -48.110   7.393  1.00  0.00    -0.194 OA
BRANCH  11  14
HETATM   14  N   UNL     1     -42.906 -45.972   8.442  1.00  0.00    -0.216 NA
HETATM   15  H   UNL     1     -42.033 -45.838   8.956  1.00  0.00     0.137 HD
HETATM   16  H   UNL     1     -43.617 -45.312   8.760  1.00  0.00     0.137 HD
ENDBRANCH  11  14
ENDBRANCH   9  11
ENDBRANCH   8   9
ENDBRANCH   1   8
BRANCH   4  17
HETATM   17  N   UNL     1     -40.194 -52.738  13.312  1.00  0.00    -0.363 N 
HETATM   18  C   UNL     1     -40.981 -53.974  13.335  1.00  0.00     0.150 C 
HETATM   19  C   UNL     1     -41.218 -54.446  14.774  1.00  0.00     0.187 C 
HETATM   20  O   UNL     1     -39.987 -54.525  15.517  1.00  0.00    -0.388 OA
HETATM   21  C   UNL     1     -39.369 -53.230  15.573  1.00  0.00     0.187 C 
HETATM   22  C   UNL     1     -39.012 -52.711  14.171  1.00  0.00     0.150 C 
ENDBRANCH   4  17
TORSDOF 5
ENDMDL
MODEL 6
REMARK VINA RESULT:      -5.3      4.481      5.269
REMARK  5 active torsions:
REMARK  status: ('A' for Active; 'I' for Inactive)
REMARK    1  A    between atoms: N_1  and  S_2 
REMARK    2  A    between atoms: S_2  and  N_5 
REMARK    3  A    between atoms: N_5  and  C_6 
REMARK    4  A    between atoms: C_6  and  C_7 
REMARK    5  A    between atoms: C_10  and  N_14 
ROOT
HETATM    1  C   UNL     1     -41.946 -48.572  11.453  1.00  0.00    -0.029 A 
HETATM    2  C   UNL     1     -42.825 -49.093  12.399  1.00  0.00     0.013 A 
HETATM    3  C   UNL     1     -42.702 -50.424  12.799  1.00  0.00     0.049 A 
HETATM    4  C   UNL     1     -41.701 -51.231  12.260  1.00  0.00     0.103 A 
HETATM    5  N   UNL     1     -40.863 -50.739  11.323  1.00  0.00    -0.352 N 
ATOM      6  HN  UNL     1     -40.138 -51.328  10.914  1.00  0.00     0.166 HD
HETATM    7  C   UNL     1     -41.002 -49.447  10.936  1.00  0.00     0.098 A 
ENDROOT
BRANCH   1   8
HETATM    8  C   UNL     1     -42.006 -47.134  11.020  1.00  0.00     0.145 C 
BRANCH   8   9
HETATM    9  N   UNL     1     -43.403 -46.693  10.824  1.00  0.00    -0.203 NA
HETATM   10  H   UNL     1     -44.056 -47.362  11.229  1.00  0.00     0.141 HD
BRANCH   9  11
HETATM   11  S   UNL     1     -43.815 -46.485   9.227  1.00  0.00     0.276 S 
HETATM   12  O   UNL     1     -43.324 -47.608   8.478  1.00  0.00    -0.194 OA
HETATM   13  O   UNL     1     -43.603 -45.116   8.851  1.00  0.00    -0.194 OA
BRANCH  11  14
HETATM   14  N   UNL     1     -45.454 -46.691   9.432  1.00  0.00    -0.216 NA
HETATM   15  H   UNL     1     -45.948 -46.259   8.648  1.00  0.00     0.137 HD
HETATM   16  H   UNL     1     -45.736 -46.263  10.315  1.00  0.00     0.137 HD
ENDBRANCH  11  14
ENDBRANCH   9  11
ENDBRANCH   8   9
ENDBRANCH   1   8
BRANCH   4  17
HETATM   17  N   UNL     1     -41.520 -52.520  12.700  1.00  0.00    -0.363 N 
HETATM   18  C   UNL     1     -42.675 -53.406  12.878  1.00  0.00     0.150 C 
HETATM   19  C   UNL     1     -42.728 -53.956  14.307  1.00  0.00     0.187 C 
HETATM   20  O   UNL     1     -41.475 -54.548  14.698  1.00  0.00    -0.388 OA
HETATM   21  C   UNL     1     -40.433 -53.561  14.643  1.00  0.00     0.187 C 
HETATM   22  C   UNL     1     -40.245 -53.012  13.219  1.00  0.00     0.150 C 
ENDBRANCH   4  17
TORSDOF 5
ENDMDL
MODEL 7
REMARK VINA RESULT:      -5.1      3.586      7.054
REMARK  5 active torsions:
REMARK  status: ('A' for Active; 'I' for Inactive)
REMARK    1  A    between atoms: N_1  and  S_2 
REMARK    2  A    between atoms: S_2  and  N_5 
REMARK    3  A    between atoms: N_5  and  C_6 
REMARK    4  A    between atoms: C_6  and  C_7 
REMARK    5  A    between atoms: C_10  and  N_14 
ROOT
HETATM    1  C   UNL     1     -43.317 -51.471  14.103  1.00  0.00    -0.029 A 
HETATM    2  C   UNL     1     -41.949 -51.612  13.882  1.00  0.00     0.013 A 
HETATM    3  C   UNL     1     -41.309 -50.783  12.961  1.00  0.00     0.049 A 
HETATM    4  C   UNL     1     -42.030 -49.811  12.268  1.00  0.00     0.103 A 
HETATM    5  N   UNL     1     -43.360 -49.688  12.459  1.00  0.00    -0.352 N 
ATOM      6  HN  UNL     1     -43.896 -48.990  11.945  1.00  0.00     0.166 HD
HETATM    7  C   UNL     1     -43.971 -50.509  13.348  1.00  0.00     0.098 A 
ENDROOT
BRANCH   1   8
HETATM    8  C   UNL     1     -44.048 -52.308  15.115  1.00  0.00     0.145 C 
BRANCH   8   9
HETATM    9  N   UNL     1     -45.178 -53.032  14.494  1.00  0.00    -0.203 NA
HETATM   10  H   UNL     1     -45.905 -53.228  15.179  1.00  0.00     0.141 HD
BRANCH   9  11
HETATM   11  S   UNL     1     -44.737 -54.477  13.798  1.00  0.00     0.276 S 
HETATM   12  O   UNL     1     -43.725 -55.088  14.614  1.00  0.00    -0.194 OA
HETATM   13  O   UNL     1     -44.628 -54.311  12.377  1.00  0.00    -0.194 OA
BRANCH  11  14
HETATM   14  N   UNL     1     -46.171 -55.268  14.093  1.00  0.00    -0.216 NA
HETATM   15  H   UNL     1     -46.655 -55.428  13.207  1.00  0.00     0.137 HD
HETATM   16  H   UNL     1     -46.743 -54.700  14.719  1.00  0.00     0.137 HD
ENDBRANCH  11  14
ENDBRANCH   9  11
ENDBRANCH   8   9
ENDBRANCH   1   8
BRANCH   4  17
HETATM   17  N   UNL     1     -41.398 -48.938  11.416  1.00  0.00    -0.363 N 
HETATM   18  C   UNL     1     -40.011 -48.536  11.670  1.00  0.00     0.150 C 
HETATM   19  C   UNL     1     -39.890 -47.011  11.763  1.00  0.00     0.187 C 
HETATM   20  O   UNL     1     -40.487 -46.359  10.626  1.00  0.00    -0.388 OA
HETATM   21  C   UNL     1     -41.883 -46.688  10.554  1.00  0.00     0.187 C 
HETATM   22  C   UNL     1     -42.101 -48.198  10.369  1.00  0.00     0.150 C 
ENDBRANCH   4  17
TORSDOF 5
ENDMDL
MODEL 8
REMARK VINA RESULT:      -5.1      3.055      7.516
REMARK  5 active torsions:
REMARK  status: ('A' for Active; 'I' for Inactive)
REMARK    1  A    between atoms: N_1  and  S_2 
REMARK    2  A    between atoms: S_2  and  N_5 
REMARK    3  A    between atoms: N_5  and  C_6 
REMARK    4  A    between atoms: C_6  and  C_7 
REMARK    5  A    between atoms: C_10  and  N_14 
ROOT
HETATM    1  C   UNL     1     -42.542 -53.481  13.093  1.00  0.00    -0.029 A 
HETATM    2  C   UNL     1     -41.324 -53.778  13.700  1.00  0.00     0.013 A 
HETATM    3  C   UNL     1     -40.213 -52.972  13.451  1.00  0.00     0.049 A 
HETATM    4  C   UNL     1     -40.318 -51.869  12.604  1.00  0.00     0.103 A 
HETATM    5  N   UNL     1     -41.490 -51.593  11.992  1.00  0.00    -0.352 N 
ATOM      6  HN  UNL     1     -41.570 -50.797  11.360  1.00  0.00     0.166 HD
HETATM    7  C   UNL     1     -42.558 -52.393  12.234  1.00  0.00     0.098 A 
ENDROOT
BRANCH   1   8
HETATM    8  C   UNL     1     -43.780 -54.291  13.360  1.00  0.00     0.145 C 
BRANCH   8   9
HETATM    9  N   UNL     1     -44.205 -54.167  14.771  1.00  0.00    -0.203 NA
HETATM   10  H   UNL     1     -43.804 -54.911  15.338  1.00  0.00     0.141 HD
BRANCH   9  11
HETATM   11  S   UNL     1     -45.855 -54.211  14.972  1.00  0.00     0.276 S 
HETATM   12  O   UNL     1     -46.426 -53.058  14.332  1.00  0.00    -0.194 OA
HETATM   13  O   UNL     1     -46.164 -54.618  16.313  1.00  0.00    -0.194 OA
BRANCH  11  14
HETATM   14  N   UNL     1     -46.125 -55.524  13.985  1.00  0.00    -0.216 NA
HETATM   15  H   UNL     1     -45.852 -56.377  14.477  1.00  0.00     0.137 HD
HETATM   16  H   UNL     1     -45.583 -55.413  13.127  1.00  0.00     0.137 HD
ENDBRANCH  11  14
ENDBRANCH   9  11
ENDBRANCH   8   9
ENDBRANCH   1   8
BRANCH   4  17
HETATM   17  N   UNL     1     -39.253 -51.023  12.411  1.00  0.00    -0.363 N 
HETATM   18  C   UNL     1     -38.041 -51.170  13.221  1.00  0.00     0.150 C 
HETATM   19  C   UNL     1     -37.702 -49.861  13.943  1.00  0.00     0.187 C 
HETATM   20  O   UNL     1     -37.663 -48.746  13.032  1.00  0.00    -0.388 OA
HETATM   21  C   UNL     1     -38.944 -48.585  12.404  1.00  0.00     0.187 C 
HETATM   22  C   UNL     1     -39.331 -49.823  11.579  1.00  0.00     0.150 C 
ENDBRANCH   4  17
TORSDOF 5
ENDMDL
MODEL 9
REMARK VINA RESULT:      -5.0      2.032      2.426
REMARK  5 active torsions:
REMARK  status: ('A' for Active; 'I' for Inactive)
REMARK    1  A    between atoms: N_1  and  S_2 
REMARK    2  A    between atoms: S_2  and  N_5 
REMARK    3  A    between atoms: N_5  and  C_6 
REMARK    4  A    between atoms: C_6  and  C_7 
REMARK    5  A    between atoms: C_10  and  N_14 
ROOT
HETATM    1  C   UNL     1     -40.560 -53.051  14.132  1.00  0.00    -0.029 A 
HETATM    2  C   UNL     1     -41.250 -54.108  13.543  1.00  0.00     0.013 A 
HETATM    3  C   UNL     1     -42.637 -54.185  13.673  1.00  0.00     0.049 A 
HETATM    4  C   UNL     1     -43.334 -53.208  14.382  1.00  0.00     0.103 A 
HETATM    5  N   UNL     1     -42.667 -52.197  14.977  1.00  0.00    -0.352 N 
ATOM      6  HN  UNL     1     -43.169 -51.487  15.510  1.00  0.00     0.166 HD
HETATM    7  C   UNL     1     -41.318 -52.141  14.853  1.00  0.00     0.098 A 
ENDROOT
BRANCH   1   8
HETATM    8  C   UNL     1     -39.072 -52.895  13.986  1.00  0.00     0.145 C 
BRANCH   8   9
HETATM    9  N   UNL     1     -38.666 -51.480  14.127  1.00  0.00    -0.203 NA
HETATM   10  H   UNL     1     -39.473 -50.888  14.316  1.00  0.00     0.141 HD
BRANCH   9  11
HETATM   11  S   UNL     1     -37.897 -50.874  12.784  1.00  0.00     0.276 S 
HETATM   12  O   UNL     1     -36.873 -51.800  12.386  1.00  0.00    -0.194 OA
HETATM   13  O   UNL     1     -37.683 -49.465  12.949  1.00  0.00    -0.194 OA
BRANCH  11  14
HETATM   14  N   UNL     1     -39.179 -51.058  11.739  1.00  0.00    -0.216 NA
HETATM   15  H   UNL     1     -39.146 -51.992  11.326  1.00  0.00     0.137 HD
HETATM   16  H   UNL     1     -39.125 -50.340  11.015  1.00  0.00     0.137 HD
ENDBRANCH  11  14
ENDBRANCH   9  11
ENDBRANCH   8   9
ENDBRANCH   1   8
BRANCH   4  17
HETATM   17  N   UNL     1     -44.706 -53.231  14.453  1.00  0.00    -0.363 N 
HETATM   18  C   UNL     1     -45.504 -52.452  13.502  1.00  0.00     0.150 C 
HETATM   19  C   UNL     1     -46.451 -51.495  14.235  1.00  0.00     0.187 C 
HETATM   20  O   UNL     1     -47.235 -52.181  15.229  1.00  0.00    -0.388 OA
HETATM   21  C   UNL     1     -46.368 -52.778  16.206  1.00  0.00     0.187 C 
HETATM   22  C   UNL     1     -45.436 -53.824  15.572  1.00  0.00     0.150 C 
ENDBRANCH   4  17
TORSDOF 5
ENDMDL
