MODEL 1
REMARK VINA RESULT:      -5.6      0.000      0.000
REMARK  7 active torsions:
REMARK  status: ('A' for Active; 'I' for Inactive)
REMARK    1  A    between atoms: N_5  and  C_6 
REMARK    2  A    between atoms: C_6  and  C_7 
REMARK    3  A    between atoms: C_7  and  O_8 
REMARK    4  A    between atoms: C_7  and  C_9 
REMARK    5  A    between atoms: C_9  and  O_10 
REMARK    6  A    between atoms: O_10  and  C_11 
REMARK    7  A    between atoms: C_11  and  C_12 
ROOT
HETATM    1  C   UNL     1     -45.802 -52.834  12.113  1.00  0.00     0.070 C 
HETATM    2  C   UNL     1     -44.447 -53.228  12.662  1.00  0.00     0.029 A 
HETATM    3  N   UNL     1     -43.422 -52.638  12.136  1.00  0.00    -0.300 N 
ATOM      4  HN  UNL     1     -43.540 -51.977  11.367  1.00  0.00     0.187 HD
HETATM    5  N   UNL     1     -42.176 -52.920  12.632  1.00  0.00    -0.254 N 
HETATM    6  C   UNL     1     -41.939 -53.869  13.620  1.00  0.00     0.283 A 
HETATM    7  O   UNL     1     -40.814 -54.168  14.016  1.00  0.00    -0.265 OA
HETATM    8  C   UNL     1     -43.141 -54.530  14.195  1.00  0.00     0.121 A 
HETATM    9  C   UNL     1     -42.917 -55.483  15.227  1.00  0.00     0.105 C 
HETATM   10  N   UNL     1     -42.808 -56.273  16.072  1.00  0.00    -0.191 NA
HETATM   11  C   UNL     1     -44.376 -54.237  13.750  1.00  0.00    -0.012 A 
HETATM   12  C   UNL     1     -45.655 -54.848  14.242  1.00  0.00     0.052 C 
ENDROOT
BRANCH   5  13
HETATM   13  C   UNL     1     -41.038 -52.257  11.986  1.00  0.00     0.186 C 
BRANCH  13  14
HETATM   14  C   UNL     1     -40.969 -50.735  12.214  1.00  0.00     0.162 C 
BRANCH  14  15
HETATM   15  O   UNL     1     -42.001 -50.050  11.498  1.00  0.00    -0.392 OA
HETATM   16  H   UNL     1     -41.590 -49.814  10.638  1.00  0.00     0.210 HD
ENDBRANCH  14  15
BRANCH  14  17
HETATM   17  C   UNL     1     -41.029 -50.366  13.703  1.00  0.00     0.201 C 
BRANCH  17  18
HETATM   18  O   UNL     1     -42.355 -50.358  14.225  1.00  0.00    -0.384 OA
BRANCH  18  19
HETATM   19  C   UNL     1     -42.431 -50.769  15.593  1.00  0.00     0.208 C 
BRANCH  19  20
HETATM   20  C   UNL     1     -43.831 -51.230  15.912  1.00  0.00    -0.013 A 
HETATM   21  C   UNL     1     -44.915 -50.757  15.149  1.00  0.00     0.011 A 
HETATM   22  C   UNL     1     -46.217 -51.185  15.407  1.00  0.00     0.001 A 
HETATM   23  C   UNL     1     -46.456 -52.111  16.418  1.00  0.00     0.002 A 
HETATM   24  C   UNL     1     -45.391 -52.619  17.160  1.00  0.00     0.024 A 
HETATM   25  C   UNL     1     -44.085 -52.190  16.904  1.00  0.00     0.042 A 
HETATM   26 CL   UNL     1     -42.814 -52.903  17.833  1.00  0.00    -0.084 Cl
ENDBRANCH  19  20
ENDBRANCH  18  19
ENDBRANCH  17  18
ENDBRANCH  14  17
ENDBRANCH  13  14
ENDBRANCH   5  13
TORSDOF 7
ENDMDL
MODEL 2
REMARK VINA RESULT:      -5.4      1.947      2.566
REMARK  7 active torsions:
REMARK  status: ('A' for Active; 'I' for Inactive)
REMARK    1  A    between atoms: N_5  and  C_6 
REMARK    2  A    between atoms: C_6  and  C_7 
REMARK    3  A    between atoms: C_7  and  O_8 
REMARK    4  A    between atoms: C_7  and  C_9 
REMARK    5  A    between atoms: C_9  and  O_10 
REMARK    6  A    between atoms: O_10  and  C_11 
REMARK    7  A    between atoms: C_11  and  C_12 
ROOT
HETATM    1  C   UNL     1     -44.150 -54.538  15.073  1.00  0.00     0.070 C 
HETATM    2  C   UNL     1     -42.687 -54.416  14.707  1.00  0.00     0.029 A 
HETATM    3  N   UNL     1     -42.415 -53.703  13.662  1.00  0.00    -0.300 N 
ATOM      4  HN  UNL     1     -43.163 -53.288  13.106  1.00  0.00     0.187 HD
HETATM    5  N   UNL     1     -41.101 -53.518  13.317  1.00  0.00    -0.254 N 
HETATM    6  C   UNL     1     -40.039 -54.121  13.982  1.00  0.00     0.283 A 
HETATM    7  O   UNL     1     -38.867 -54.008  13.629  1.00  0.00    -0.265 OA
HETATM    8  C   UNL     1     -40.393 -54.937  15.173  1.00  0.00     0.121 A 
HETATM    9  C   UNL     1     -39.315 -55.538  15.882  1.00  0.00     0.105 C 
HETATM   10  N   UNL     1     -38.485 -56.059  16.506  1.00  0.00    -0.191 NA
HETATM   11  C   UNL     1     -41.673 -55.098  15.552  1.00  0.00    -0.012 A 
HETATM   12  C   UNL     1     -42.148 -55.907  16.724  1.00  0.00     0.052 C 
ENDROOT
BRANCH   5  13
HETATM   13  C   UNL     1     -40.836 -52.733  12.106  1.00  0.00     0.186 C 
BRANCH  13  14
HETATM   14  C   UNL     1     -40.320 -51.306  12.368  1.00  0.00     0.162 C 
BRANCH  14  15
HETATM   15  O   UNL     1     -39.148 -51.022  11.598  1.00  0.00    -0.392 OA
HETATM   16  H   UNL     1     -38.692 -50.308  12.095  1.00  0.00     0.210 HD
ENDBRANCH  14  15
BRANCH  14  17
HETATM   17  C   UNL     1     -41.393 -50.240  12.104  1.00  0.00     0.201 C 
BRANCH  17  18
HETATM   18  O   UNL     1     -42.686 -50.623  12.562  1.00  0.00    -0.384 OA
BRANCH  18  19
HETATM   19  C   UNL     1     -42.948 -50.238  13.915  1.00  0.00     0.208 C 
BRANCH  19  20
HETATM   20  C   UNL     1     -44.337 -50.670  14.311  1.00  0.00    -0.013 A 
HETATM   21  C   UNL     1     -45.225 -51.158  13.333  1.00  0.00     0.011 A 
HETATM   22  C   UNL     1     -46.506 -51.588  13.676  1.00  0.00     0.001 A 
HETATM   23  C   UNL     1     -46.916 -51.559  15.005  1.00  0.00     0.002 A 
HETATM   24  C   UNL     1     -46.038 -51.114  15.993  1.00  0.00     0.024 A 
HETATM   25  C   UNL     1     -44.753 -50.682  15.651  1.00  0.00     0.042 A 
HETATM   26 CL   UNL     1     -43.708 -50.193  16.938  1.00  0.00    -0.084 Cl
ENDBRANCH  19  20
ENDBRANCH  18  19
ENDBRANCH  17  18
ENDBRANCH  14  17
ENDBRANCH  13  14
ENDBRANCH   5  13
TORSDOF 7
ENDMDL
MODEL 3
REMARK VINA RESULT:      -5.3      1.960      3.446
REMARK  7 active torsions:
REMARK  status: ('A' for Active; 'I' for Inactive)
REMARK    1  A    between atoms: N_5  and  C_6 
REMARK    2  A    between atoms: C_6  and  C_7 
REMARK    3  A    between atoms: C_7  and  O_8 
REMARK    4  A    between atoms: C_7  and  C_9 
REMARK    5  A    between atoms: C_9  and  O_10 
REMARK    6  A    between atoms: O_10  and  C_11 
REMARK    7  A    between atoms: C_11  and  C_12 
ROOT
HETATM    1  C   UNL     1     -46.561 -51.712  12.344  1.00  0.00     0.070 C 
HETATM    2  C   UNL     1     -45.451 -51.190  13.231  1.00  0.00     0.029 A 
HETATM    3  N   UNL     1     -44.384 -50.775  12.628  1.00  0.00    -0.300 N 
ATOM      4  HN  UNL     1     -44.299 -50.841  11.614  1.00  0.00     0.187 HD
HETATM    5  N   UNL     1     -43.369 -50.244  13.382  1.00  0.00    -0.254 N 
HETATM    6  C   UNL     1     -43.386 -50.198  14.771  1.00  0.00     0.283 A 
HETATM    7  O   UNL     1     -42.447 -49.784  15.447  1.00  0.00    -0.265 OA
HETATM    8  C   UNL     1     -44.627 -50.691  15.426  1.00  0.00     0.121 A 
HETATM    9  C   UNL     1     -44.671 -50.625  16.847  1.00  0.00     0.105 C 
HETATM   10  N   UNL     1     -44.775 -50.602  18.005  1.00  0.00    -0.191 NA
HETATM   11  C   UNL     1     -45.650 -51.178  14.703  1.00  0.00    -0.012 A 
HETATM   12  C   UNL     1     -46.940 -51.713  15.254  1.00  0.00     0.052 C 
ENDROOT
BRANCH   5  13
HETATM   13  C   UNL     1     -42.163 -49.817  12.665  1.00  0.00     0.186 C 
BRANCH  13  14
HETATM   14  C   UNL     1     -41.287 -50.971  12.140  1.00  0.00     0.162 C 
BRANCH  14  15
HETATM   15  O   UNL     1     -40.807 -50.705  10.818  1.00  0.00    -0.392 OA
HETATM   16  H   UNL     1     -40.907 -51.559  10.343  1.00  0.00     0.210 HD
ENDBRANCH  14  15
BRANCH  14  17
HETATM   17  C   UNL     1     -40.109 -51.280  13.075  1.00  0.00     0.201 C 
BRANCH  17  18
HETATM   18  O   UNL     1     -40.488 -52.042  14.218  1.00  0.00    -0.384 OA
BRANCH  18  19
HETATM   19  C   UNL     1     -40.681 -53.431  13.937  1.00  0.00     0.208 C 
BRANCH  19  20
HETATM   20  C   UNL     1     -42.107 -53.820  14.231  1.00  0.00    -0.013 A 
HETATM   21  C   UNL     1     -42.990 -54.101  13.171  1.00  0.00     0.011 A 
HETATM   22  C   UNL     1     -44.308 -54.486  13.416  1.00  0.00     0.001 A 
HETATM   23  C   UNL     1     -44.761 -54.619  14.725  1.00  0.00     0.002 A 
HETATM   24  C   UNL     1     -43.891 -54.382  15.788  1.00  0.00     0.024 A 
HETATM   25  C   UNL     1     -42.569 -53.994  15.545  1.00  0.00     0.042 A 
HETATM   26 CL   UNL     1     -41.540 -53.767  16.915  1.00  0.00    -0.084 Cl
ENDBRANCH  19  20
ENDBRANCH  18  19
ENDBRANCH  17  18
ENDBRANCH  14  17
ENDBRANCH  13  14
ENDBRANCH   5  13
TORSDOF 7
ENDMDL
MODEL 4
REMARK VINA RESULT:      -5.2      4.588      7.242
REMARK  7 active torsions:
REMARK  status: ('A' for Active; 'I' for Inactive)
REMARK    1  A    between atoms: N_5  and  C_6 
REMARK    2  A    between atoms: C_6  and  C_7 
REMARK    3  A    between atoms: C_7  and  O_8 
REMARK    4  A    between atoms: C_7  and  C_9 
REMARK    5  A    between atoms: C_9  and  O_10 
REMARK    6  A    between atoms: O_10  and  C_11 
REMARK    7  A    between atoms: C_11  and  C_12 
ROOT
HETATM    1  C   UNL     1     -39.155 -44.605   9.621  1.00  0.00     0.070 C 
HETATM    2  C   UNL     1     -40.265 -45.210  10.454  1.00  0.00     0.029 A 
HETATM    3  N   UNL     1     -40.566 -46.442  10.199  1.00  0.00    -0.300 N 
ATOM      4  HN  UNL     1     -40.097 -46.948   9.448  1.00  0.00     0.187 HD
HETATM    5  N   UNL     1     -41.529 -47.053  10.960  1.00  0.00    -0.254 N 
HETATM    6  C   UNL     1     -42.262 -46.399  11.943  1.00  0.00     0.283 A 
HETATM    7  O   UNL     1     -43.171 -46.931  12.577  1.00  0.00    -0.265 OA
HETATM    8  C   UNL     1     -41.892 -44.982  12.201  1.00  0.00     0.121 A 
HETATM    9  C   UNL     1     -42.614 -44.306  13.224  1.00  0.00     0.105 C 
HETATM   10  N   UNL     1     -43.164 -43.693  14.044  1.00  0.00    -0.191 NA
HETATM   11  C   UNL     1     -40.922 -44.376  11.494  1.00  0.00    -0.012 A 
HETATM   12  C   UNL     1     -40.474 -42.953  11.657  1.00  0.00     0.052 C 
ENDROOT
BRANCH   5  13
HETATM   13  C   UNL     1     -41.866 -48.440  10.617  1.00  0.00     0.186 C 
BRANCH  13  14
HETATM   14  C   UNL     1     -40.880 -49.492  11.160  1.00  0.00     0.162 C 
BRANCH  14  15
HETATM   15  O   UNL     1     -39.548 -48.973  11.235  1.00  0.00    -0.392 OA
HETATM   16  H   UNL     1     -39.442 -48.699  12.172  1.00  0.00     0.210 HD
ENDBRANCH  14  15
BRANCH  14  17
HETATM   17  C   UNL     1     -41.308 -50.039  12.530  1.00  0.00     0.201 C 
BRANCH  17  18
HETATM   18  O   UNL     1     -40.739 -51.311  12.827  1.00  0.00    -0.384 OA
BRANCH  18  19
HETATM   19  C   UNL     1     -41.255 -52.369  12.014  1.00  0.00     0.208 C 
BRANCH  19  20
HETATM   20  C   UNL     1     -42.276 -53.160  12.792  1.00  0.00    -0.013 A 
HETATM   21  C   UNL     1     -43.638 -53.075  12.447  1.00  0.00     0.011 A 
HETATM   22  C   UNL     1     -44.602 -53.814  13.133  1.00  0.00     0.001 A 
HETATM   23  C   UNL     1     -44.218 -54.668  14.162  1.00  0.00     0.002 A 
HETATM   24  C   UNL     1     -42.870 -54.794  14.493  1.00  0.00     0.024 A 
HETATM   25  C   UNL     1     -41.903 -54.054  13.807  1.00  0.00     0.042 A 
HETATM   26 CL   UNL     1     -40.248 -54.302  14.244  1.00  0.00    -0.084 Cl
ENDBRANCH  19  20
ENDBRANCH  18  19
ENDBRANCH  17  18
ENDBRANCH  14  17
ENDBRANCH  13  14
ENDBRANCH   5  13
TORSDOF 7
ENDMDL
MODEL 5
REMARK VINA RESULT:      -5.2      3.743      5.170
REMARK  7 active torsions:
REMARK  status: ('A' for Active; 'I' for Inactive)
REMARK    1  A    between atoms: N_5  and  C_6 
REMARK    2  A    between atoms: C_6  and  C_7 
REMARK    3  A    between atoms: C_7  and  O_8 
REMARK    4  A    between atoms: C_7  and  C_9 
REMARK    5  A    between atoms: C_9  and  O_10 
REMARK    6  A    between atoms: O_10  and  C_11 
REMARK    7  A    between atoms: C_11  and  C_12 
ROOT
HETATM    1  C   UNL     1     -45.839 -52.551  12.253  1.00  0.00     0.070 C 
HETATM    2  C   UNL     1     -44.536 -52.806  12.980  1.00  0.00     0.029 A 
HETATM    3  N   UNL     1     -43.606 -51.921  12.817  1.00  0.00    -0.300 N 
ATOM      4  HN  UNL     1     -43.749 -51.124  12.196  1.00  0.00     0.187 HD
HETATM    5  N   UNL     1     -42.425 -52.077  13.495  1.00  0.00    -0.254 N 
HETATM    6  C   UNL     1     -42.136 -53.180  14.291  1.00  0.00     0.283 A 
HETATM    7  O   UNL     1     -41.051 -53.350  14.843  1.00  0.00    -0.265 OA
HETATM    8  C   UNL     1     -43.227 -54.177  14.448  1.00  0.00     0.121 A 
HETATM    9  C   UNL     1     -42.956 -55.298  15.283  1.00  0.00     0.105 C 
HETATM   10  N   UNL     1     -42.803 -56.238  15.948  1.00  0.00    -0.191 NA
HETATM   11  C   UNL     1     -44.408 -54.022  13.824  1.00  0.00    -0.012 A 
HETATM   12  C   UNL     1     -45.572 -54.966  13.898  1.00  0.00     0.052 C 
ENDROOT
BRANCH   5  13
HETATM   13  C   UNL     1     -41.384 -51.072  13.256  1.00  0.00     0.186 C 
BRANCH  13  14
HETATM   14  C   UNL     1     -40.623 -51.241  11.927  1.00  0.00     0.162 C 
BRANCH  14  15
HETATM   15  O   UNL     1     -41.182 -52.291  11.132  1.00  0.00    -0.392 OA
HETATM   16  H   UNL     1     -40.906 -52.080  10.214  1.00  0.00     0.210 HD
ENDBRANCH  14  15
BRANCH  14  17
HETATM   17  C   UNL     1     -40.570 -49.939  11.116  1.00  0.00     0.201 C 
BRANCH  17  18
HETATM   18  O   UNL     1     -41.580 -49.006  11.490  1.00  0.00    -0.384 OA
BRANCH  18  19
HETATM   19  C   UNL     1     -41.208 -47.643  11.265  1.00  0.00     0.208 C 
BRANCH  19  20
HETATM   20  C   UNL     1     -42.245 -46.964  10.406  1.00  0.00    -0.013 A 
HETATM   21  C   UNL     1     -43.087 -47.735   9.584  1.00  0.00     0.011 A 
HETATM   22  C   UNL     1     -44.071 -47.135   8.798  1.00  0.00     0.001 A 
HETATM   23  C   UNL     1     -44.245 -45.755   8.837  1.00  0.00     0.002 A 
HETATM   24  C   UNL     1     -43.445 -44.979   9.674  1.00  0.00     0.024 A 
HETATM   25  C   UNL     1     -42.458 -45.578  10.462  1.00  0.00     0.042 A 
HETATM   26 CL   UNL     1     -41.540 -44.553  11.509  1.00  0.00    -0.084 Cl
ENDBRANCH  19  20
ENDBRANCH  18  19
ENDBRANCH  17  18
ENDBRANCH  14  17
ENDBRANCH  13  14
ENDBRANCH   5  13
TORSDOF 7
ENDMDL
MODEL 6
REMARK VINA RESULT:      -5.2      3.123      5.809
REMARK  7 active torsions:
REMARK  status: ('A' for Active; 'I' for Inactive)
REMARK    1  A    between atoms: N_5  and  C_6 
REMARK    2  A    between atoms: C_6  and  C_7 
REMARK    3  A    between atoms: C_7  and  O_8 
REMARK    4  A    between atoms: C_7  and  C_9 
REMARK    5  A    between atoms: C_9  and  O_10 
REMARK    6  A    between atoms: O_10  and  C_11 
REMARK    7  A    between atoms: C_11  and  C_12 
ROOT
HETATM    1  C   UNL     1     -41.347 -48.679  10.728  1.00  0.00     0.070 C 
HETATM    2  C   UNL     1     -41.651 -49.439  12.001  1.00  0.00     0.029 A 
HETATM    3  N   UNL     1     -41.939 -50.693  11.865  1.00  0.00    -0.300 N 
ATOM      4  HN  UNL     1     -41.993 -51.117  10.939  1.00  0.00     0.187 HD
HETATM    5  N   UNL     1     -42.171 -51.439  12.991  1.00  0.00    -0.254 N 
HETATM    6  C   UNL     1     -42.195 -50.905  14.275  1.00  0.00     0.283 A 
HETATM    7  O   UNL     1     -42.470 -51.563  15.277  1.00  0.00    -0.265 OA
HETATM    8  C   UNL     1     -41.865 -49.460  14.389  1.00  0.00     0.121 A 
HETATM    9  C   UNL     1     -41.857 -48.905  15.700  1.00  0.00     0.105 C 
HETATM   10  N   UNL     1     -41.834 -48.386  16.739  1.00  0.00    -0.191 NA
HETATM   11  C   UNL     1     -41.594 -48.720  13.300  1.00  0.00    -0.012 A 
HETATM   12  C   UNL     1     -41.264 -47.255  13.292  1.00  0.00     0.052 C 
ENDROOT
BRANCH   5  13
HETATM   13  C   UNL     1     -42.529 -52.848  12.793  1.00  0.00     0.186 C 
BRANCH  13  14
HETATM   14  C   UNL     1     -41.345 -53.763  12.427  1.00  0.00     0.162 C 
BRANCH  14  15
HETATM   15  O   UNL     1     -40.563 -53.210  11.365  1.00  0.00    -0.392 OA
HETATM   16  H   UNL     1     -39.635 -53.423  11.604  1.00  0.00     0.210 HD
ENDBRANCH  14  15
BRANCH  14  17
HETATM   17  C   UNL     1     -40.449 -54.068  13.636  1.00  0.00     0.201 C 
BRANCH  17  18
HETATM   18  O   UNL     1     -39.188 -53.407  13.579  1.00  0.00    -0.384 OA
BRANCH  18  19
HETATM   19  C   UNL     1     -38.923 -52.587  14.720  1.00  0.00     0.208 C 
BRANCH  19  20
HETATM   20  C   UNL     1     -38.511 -51.207  14.274  1.00  0.00    -0.013 A 
HETATM   21  C   UNL     1     -38.325 -50.940  12.904  1.00  0.00     0.011 A 
HETATM   22  C   UNL     1     -37.968 -49.666  12.462  1.00  0.00     0.001 A 
HETATM   23  C   UNL     1     -37.812 -48.631  13.379  1.00  0.00     0.002 A 
HETATM   24  C   UNL     1     -38.029 -48.867  14.735  1.00  0.00     0.024 A 
HETATM   25  C   UNL     1     -38.387 -50.143  15.181  1.00  0.00     0.042 A 
HETATM   26 CL   UNL     1     -38.686 -50.344  16.872  1.00  0.00    -0.084 Cl
ENDBRANCH  19  20
ENDBRANCH  18  19
ENDBRANCH  17  18
ENDBRANCH  14  17
ENDBRANCH  13  14
ENDBRANCH   5  13
TORSDOF 7
ENDMDL
MODEL 7
REMARK VINA RESULT:      -5.1      3.584      5.750
REMARK  7 active torsions:
REMARK  status: ('A' for Active; 'I' for Inactive)
REMARK    1  A    between atoms: N_5  and  C_6 
REMARK    2  A    between atoms: C_6  and  C_7 
REMARK    3  A    between atoms: C_7  and  O_8 
REMARK    4  A    between atoms: C_7  and  C_9 
REMARK    5  A    between atoms: C_9  and  O_10 
REMARK    6  A    between atoms: O_10  and  C_11 
REMARK    7  A    between atoms: C_11  and  C_12 
ROOT
HETATM    1  C   UNL     1     -42.845 -47.711   9.458  1.00  0.00     0.070 C 
HETATM    2  C   UNL     1     -41.718 -47.904  10.451  1.00  0.00     0.029 A 
HETATM    3  N   UNL     1     -41.248 -49.104  10.558  1.00  0.00    -0.300 N 
ATOM      4  HN  UNL     1     -41.654 -49.873  10.023  1.00  0.00     0.187 HD
HETATM    5  N   UNL     1     -40.191 -49.322  11.404  1.00  0.00    -0.254 N 
HETATM    6  C   UNL     1     -39.644 -48.338  12.220  1.00  0.00     0.283 A 
HETATM    7  O   UNL     1     -38.742 -48.552  13.027  1.00  0.00    -0.265 OA
HETATM    8  C   UNL     1     -40.217 -46.974  12.073  1.00  0.00     0.121 A 
HETATM    9  C   UNL     1     -39.649 -45.949  12.880  1.00  0.00     0.105 C 
HETATM   10  N   UNL     1     -39.234 -45.065  13.511  1.00  0.00    -0.191 NA
HETATM   11  C   UNL     1     -41.226 -46.731  11.218  1.00  0.00    -0.012 A 
HETATM   12  C   UNL     1     -41.890 -45.403  10.997  1.00  0.00     0.052 C 
ENDROOT
BRANCH   5  13
HETATM   13  C   UNL     1     -39.709 -50.703  11.523  1.00  0.00     0.186 C 
BRANCH  13  14
HETATM   14  C   UNL     1     -40.752 -51.701  12.062  1.00  0.00     0.162 C 
BRANCH  14  15
HETATM   15  O   UNL     1     -40.613 -52.986  11.450  1.00  0.00    -0.392 OA
HETATM   16  H   UNL     1     -41.253 -52.976  10.705  1.00  0.00     0.210 HD
ENDBRANCH  14  15
BRANCH  14  17
HETATM   17  C   UNL     1     -40.690 -51.837  13.591  1.00  0.00     0.201 C 
BRANCH  17  18
HETATM   18  O   UNL     1     -41.878 -51.393  14.240  1.00  0.00    -0.384 OA
BRANCH  18  19
HETATM   19  C   UNL     1     -42.639 -52.454  14.825  1.00  0.00     0.208 C 
BRANCH  19  20
HETATM   20  C   UNL     1     -44.110 -52.135  14.743  1.00  0.00    -0.013 A 
HETATM   21  C   UNL     1     -44.734 -51.434  15.791  1.00  0.00     0.011 A 
HETATM   22  C   UNL     1     -46.088 -51.104  15.730  1.00  0.00     0.001 A 
HETATM   23  C   UNL     1     -46.837 -51.451  14.610  1.00  0.00     0.002 A 
HETATM   24  C   UNL     1     -46.227 -52.113  13.545  1.00  0.00     0.024 A 
HETATM   25  C   UNL     1     -44.870 -52.445  13.605  1.00  0.00     0.042 A 
HETATM   26 CL   UNL     1     -44.177 -53.221  12.224  1.00  0.00    -0.084 Cl
ENDBRANCH  19  20
ENDBRANCH  18  19
ENDBRANCH  17  18
ENDBRANCH  14  17
ENDBRANCH  13  14
ENDBRANCH   5  13
TORSDOF 7
ENDMDL
MODEL 8
REMARK VINA RESULT:      -5.1      2.557      3.455
REMARK  7 active torsions:
REMARK  status: ('A' for Active; 'I' for Inactive)
REMARK    1  A    between atoms: N_5  and  C_6 
REMARK    2  A    between atoms: C_6  and  C_7 
REMARK    3  A    between atoms: C_7  and  O_8 
REMARK    4  A    between atoms: C_7  and  C_9 
REMARK    5  A    between atoms: C_9  and  O_10 
REMARK    6  A    between atoms: O_10  and  C_11 
REMARK    7  A    between atoms: C_11  and  C_12 
ROOT
HETATM    1  C   UNL     1     -43.895 -53.933  16.747  1.00  0.00     0.070 C 
HETATM    2  C   UNL     1     -42.493 -54.258  16.277  1.00  0.00     0.029 A 
HETATM    3  N   UNL     1     -42.007 -53.494  15.353  1.00  0.00    -0.300 N 
ATOM      4  HN  UNL     1     -42.568 -52.745  14.948  1.00  0.00     0.187 HD
HETATM    5  N   UNL     1     -40.722 -53.713  14.929  1.00  0.00    -0.254 N 
HETATM    6  C   UNL     1     -39.932 -54.766  15.380  1.00  0.00     0.283 A 
HETATM    7  O   UNL     1     -38.805 -55.000  14.948  1.00  0.00    -0.265 OA
HETATM    8  C   UNL     1     -40.529 -55.625  16.436  1.00  0.00     0.121 A 
HETATM    9  C   UNL     1     -39.723 -56.689  16.929  1.00  0.00     0.105 C 
HETATM   10  N   UNL     1     -39.122 -57.578  17.375  1.00  0.00    -0.191 NA
HETATM   11  C   UNL     1     -41.773 -55.401  16.895  1.00  0.00    -0.012 A 
HETATM   12  C   UNL     1     -42.481 -56.208  17.945  1.00  0.00     0.052 C 
ENDROOT
BRANCH   5  13
HETATM   13  C   UNL     1     -40.219 -52.848  13.856  1.00  0.00     0.186 C 
BRANCH  13  14
HETATM   14  C   UNL     1     -40.920 -53.041  12.497  1.00  0.00     0.162 C 
BRANCH  14  15
HETATM   15  O   UNL     1     -41.590 -54.302  12.426  1.00  0.00    -0.392 OA
HETATM   16  H   UNL     1     -41.563 -54.649  13.345  1.00  0.00     0.210 HD
ENDBRANCH  14  15
BRANCH  14  17
HETATM   17  C   UNL     1     -41.904 -51.904  12.184  1.00  0.00     0.201 C 
BRANCH  17  18
HETATM   18  O   UNL     1     -43.126 -52.007  12.909  1.00  0.00    -0.384 OA
BRANCH  18  19
HETATM   19  C   UNL     1     -43.716 -50.740  13.214  1.00  0.00     0.208 C 
BRANCH  19  20
HETATM   20  C   UNL     1     -44.748 -50.903  14.300  1.00  0.00    -0.013 A 
HETATM   21  C   UNL     1     -44.458 -50.482  15.611  1.00  0.00     0.011 A 
HETATM   22  C   UNL     1     -45.403 -50.599  16.630  1.00  0.00     0.001 A 
HETATM   23  C   UNL     1     -46.664 -51.118  16.351  1.00  0.00     0.002 A 
HETATM   24  C   UNL     1     -46.983 -51.505  15.050  1.00  0.00     0.024 A 
HETATM   25  C   UNL     1     -46.036 -51.390  14.028  1.00  0.00     0.042 A 
HETATM   26 CL   UNL     1     -46.524 -51.845  12.433  1.00  0.00    -0.084 Cl
ENDBRANCH  19  20
ENDBRANCH  18  19
ENDBRANCH  17  18
ENDBRANCH  14  17
ENDBRANCH  13  14
ENDBRANCH   5  13
TORSDOF 7
ENDMDL
MODEL 9
REMARK VINA RESULT:      -5.0      3.144      4.997
REMARK  7 active torsions:
REMARK  status: ('A' for Active; 'I' for Inactive)
REMARK    1  A    between atoms: N_5  and  C_6 
REMARK    2  A    between atoms: C_6  and  C_7 
REMARK    3  A    between atoms: C_7  and  O_8 
REMARK    4  A    between atoms: C_7  and  C_9 
REMARK    5  A    between atoms: C_9  and  O_10 
REMARK    6  A    between atoms: O_10  and  C_11 
REMARK    7  A    between atoms: C_11  and  C_12 
ROOT
HETATM    1  C   UNL     1     -46.088 -52.397  12.466  1.00  0.00     0.070 C 
HETATM    2  C   UNL     1     -44.712 -52.895  12.855  1.00  0.00     0.029 A 
HETATM    3  N   UNL     1     -43.711 -52.340  12.252  1.00  0.00    -0.300 N 
ATOM      4  HN  UNL     1     -43.863 -51.636  11.529  1.00  0.00     0.187 HD
HETATM    5  N   UNL     1     -42.441 -52.717  12.606  1.00  0.00    -0.254 N 
HETATM    6  C   UNL     1     -42.166 -53.726  13.522  1.00  0.00     0.283 A 
HETATM    7  O   UNL     1     -41.028 -54.109  13.787  1.00  0.00    -0.265 OA
HETATM    8  C   UNL     1     -43.343 -54.344  14.188  1.00  0.00     0.121 A 
HETATM    9  C   UNL     1     -43.077 -55.358  15.150  1.00  0.00     0.105 C 
HETATM   10  N   UNL     1     -42.933 -56.194  15.944  1.00  0.00    -0.191 NA
HETATM   11  C   UNL     1     -44.595 -53.959  13.885  1.00  0.00    -0.012 A 
HETATM   12  C   UNL     1     -45.855 -54.518  14.480  1.00  0.00     0.052 C 
ENDROOT
BRANCH   5  13
HETATM   13  C   UNL     1     -41.334 -52.090  11.875  1.00  0.00     0.186 C 
BRANCH  13  14
HETATM   14  C   UNL     1     -41.179 -50.577  12.122  1.00  0.00     0.162 C 
BRANCH  14  15
HETATM   15  O   UNL     1     -42.251 -49.837  11.529  1.00  0.00    -0.392 OA
HETATM   16  H   UNL     1     -42.756 -50.503  11.014  1.00  0.00     0.210 HD
ENDBRANCH  14  15
BRANCH  14  17
HETATM   17  C   UNL     1     -41.069 -50.239  13.616  1.00  0.00     0.201 C 
BRANCH  17  18
HETATM   18  O   UNL     1     -40.730 -48.877  13.857  1.00  0.00    -0.384 OA
BRANCH  18  19
HETATM   19  C   UNL     1     -39.457 -48.504  13.321  1.00  0.00     0.208 C 
BRANCH  19  20
HETATM   20  C   UNL     1     -39.550 -47.141  12.683  1.00  0.00    -0.013 A 
HETATM   21  C   UNL     1     -39.957 -47.022  11.341  1.00  0.00     0.011 A 
HETATM   22  C   UNL     1     -40.075 -45.772  10.733  1.00  0.00     0.001 A 
HETATM   23  C   UNL     1     -39.808 -44.618  11.463  1.00  0.00     0.002 A 
HETATM   24  C   UNL     1     -39.439 -44.714  12.804  1.00  0.00     0.024 A 
HETATM   25  C   UNL     1     -39.320 -45.966  13.415  1.00  0.00     0.042 A 
HETATM   26 CL   UNL     1     -38.907 -45.999  15.093  1.00  0.00    -0.084 Cl
ENDBRANCH  19  20
ENDBRANCH  18  19
ENDBRANCH  17  18
ENDBRANCH  14  17
ENDBRANCH  13  14
ENDBRANCH   5  13
TORSDOF 7
ENDMDL
