MODEL 1
REMARK VINA RESULT:      -6.7      0.000      0.000
REMARK  4 active torsions:
REMARK  status: ('A' for Active; 'I' for Inactive)
REMARK    1  A    between atoms: N_11  and  C_12 
REMARK    2  A    between atoms: C_12  and  C_13 
REMARK    3  A    between atoms: C_13  and  O_14 
REMARK    4  A    between atoms: C_13  and  C_15 
ROOT
HETATM    1  C   UNL     1     -37.811 -50.481  12.043  1.00  0.00     0.089 C 
HETATM    2  C   UNL     1     -39.089 -49.742  11.882  1.00  0.00     0.080 A 
HETATM    3  N   UNL     1     -39.213 -48.577  11.279  1.00  0.00    -0.344 N 
ATOM      4  HN  UNL     1     -38.469 -48.027  10.850  1.00  0.00     0.167 HD
HETATM    5  C   UNL     1     -40.543 -48.258  11.347  1.00  0.00     0.060 A 
HETATM    6  C   UNL     1     -41.211 -47.127  10.851  1.00  0.00     0.032 A 
HETATM    7  C   UNL     1     -42.592 -47.019  11.045  1.00  0.00     0.002 A 
HETATM    8  C   UNL     1     -43.295 -48.017  11.720  1.00  0.00     0.002 A 
HETATM    9  C   UNL     1     -42.646 -49.155  12.217  1.00  0.00     0.032 A 
HETATM   10  C   UNL     1     -41.262 -49.247  12.012  1.00  0.00     0.062 A 
HETATM   11  N   UNL     1     -40.311 -50.191  12.337  1.00  0.00    -0.332 N 
ENDROOT
BRANCH  11  12
HETATM   12  C   UNL     1     -40.573 -51.479  12.962  1.00  0.00     0.167 C 
BRANCH  12  13
HETATM   13  C   UNL     1     -41.365 -52.448  12.067  1.00  0.00     0.169 C 
BRANCH  13  14
HETATM   14  O   UNL     1     -40.504 -53.432  11.492  1.00  0.00    -0.389 OA
HETATM   15  H   UNL     1     -41.019 -54.243  11.351  1.00  0.00     0.210 HD
ENDBRANCH  13  14
BRANCH  13  16
HETATM   16  C   UNL     1     -42.495 -53.192  12.763  1.00  0.00    -0.028 A 
HETATM   17  C   UNL     1     -43.814 -52.991  12.312  1.00  0.00     0.013 A 
HETATM   18  C   UNL     1     -44.889 -53.658  12.905  1.00  0.00     0.043 A 
HETATM   19  C   UNL     1     -44.654 -54.542  13.947  1.00  0.00     0.116 A 
HETATM   20  F   UNL     1     -45.681 -55.182  14.519  1.00  0.00    -0.206 F 
HETATM   21  C   UNL     1     -43.362 -54.777  14.401  1.00  0.00     0.043 A 
HETATM   22  C   UNL     1     -42.284 -54.110  13.808  1.00  0.00     0.013 A 
ENDBRANCH  13  16
ENDBRANCH  12  13
ENDBRANCH  11  12
TORSDOF 4
ENDMDL
MODEL 2
REMARK VINA RESULT:      -6.3      2.918      5.285
REMARK  4 active torsions:
REMARK  status: ('A' for Active; 'I' for Inactive)
REMARK    1  A    between atoms: N_11  and  C_12 
REMARK    2  A    between atoms: C_12  and  C_13 
REMARK    3  A    between atoms: C_13  and  O_14 
REMARK    4  A    between atoms: C_13  and  C_15 
ROOT
HETATM    1  C   UNL     1     -39.442 -51.263  12.804  1.00  0.00     0.089 C 
HETATM    2  C   UNL     1     -40.194 -52.319  13.529  1.00  0.00     0.080 A 
HETATM    3  N   UNL     1     -39.686 -53.093  14.467  1.00  0.00    -0.344 N 
ATOM      4  HN  UNL     1     -38.729 -53.083  14.820  1.00  0.00     0.167 HD
HETATM    5  C   UNL     1     -40.706 -53.913  14.870  1.00  0.00     0.060 A 
HETATM    6  C   UNL     1     -40.702 -54.918  15.851  1.00  0.00     0.032 A 
HETATM    7  C   UNL     1     -41.880 -55.634  16.090  1.00  0.00     0.002 A 
HETATM    8  C   UNL     1     -43.040 -55.355  15.365  1.00  0.00     0.002 A 
HETATM    9  C   UNL     1     -43.063 -54.353  14.386  1.00  0.00     0.032 A 
HETATM   10  C   UNL     1     -41.874 -53.644  14.163  1.00  0.00     0.062 A 
HETATM   11  N   UNL     1     -41.524 -52.614  13.316  1.00  0.00    -0.332 N 
ENDROOT
BRANCH  11  12
HETATM   12  C   UNL     1     -42.429 -51.900  12.427  1.00  0.00     0.167 C 
BRANCH  12  13
HETATM   13  C   UNL     1     -43.079 -50.664  13.074  1.00  0.00     0.169 C 
BRANCH  13  14
HETATM   14  O   UNL     1     -43.366 -49.667  12.093  1.00  0.00    -0.389 OA
HETATM   15  H   UNL     1     -43.859 -50.084  11.367  1.00  0.00     0.210 HD
ENDBRANCH  13  14
BRANCH  13  16
HETATM   16  C   UNL     1     -44.371 -50.935  13.829  1.00  0.00    -0.028 A 
HETATM   17  C   UNL     1     -44.401 -50.705  15.219  1.00  0.00     0.013 A 
HETATM   18  C   UNL     1     -45.564 -50.924  15.961  1.00  0.00     0.043 A 
HETATM   19  C   UNL     1     -46.712 -51.363  15.319  1.00  0.00     0.116 A 
HETATM   20  F   UNL     1     -47.828 -51.576  16.027  1.00  0.00    -0.206 F 
HETATM   21  C   UNL     1     -46.719 -51.580  13.947  1.00  0.00     0.043 A 
HETATM   22  C   UNL     1     -45.555 -51.361  13.202  1.00  0.00     0.013 A 
ENDBRANCH  13  16
ENDBRANCH  12  13
ENDBRANCH  11  12
TORSDOF 4
ENDMDL
MODEL 3
REMARK VINA RESULT:      -6.2      2.684      4.217
REMARK  4 active torsions:
REMARK  status: ('A' for Active; 'I' for Inactive)
REMARK    1  A    between atoms: N_11  and  C_12 
REMARK    2  A    between atoms: C_12  and  C_13 
REMARK    3  A    between atoms: C_13  and  O_14 
REMARK    4  A    between atoms: C_13  and  C_15 
ROOT
HETATM    1  C   UNL     1     -41.317 -53.700  14.711  1.00  0.00     0.089 C 
HETATM    2  C   UNL     1     -40.474 -52.713  13.990  1.00  0.00     0.080 A 
HETATM    3  N   UNL     1     -39.169 -52.596  14.130  1.00  0.00    -0.344 N 
ATOM      4  HN  UNL     1     -38.565 -53.148  14.739  1.00  0.00     0.167 HD
HETATM    5  C   UNL     1     -38.791 -51.581  13.291  1.00  0.00     0.060 A 
HETATM    6  C   UNL     1     -37.510 -51.059  13.052  1.00  0.00     0.032 A 
HETATM    7  C   UNL     1     -37.369 -50.008  12.139  1.00  0.00     0.002 A 
HETATM    8  C   UNL     1     -38.482 -49.487  11.478  1.00  0.00     0.002 A 
HETATM    9  C   UNL     1     -39.767 -49.999  11.701  1.00  0.00     0.032 A 
HETATM   10  C   UNL     1     -39.888 -51.054  12.617  1.00  0.00     0.062 A 
HETATM   11  N   UNL     1     -40.954 -51.800  13.074  1.00  0.00    -0.332 N 
ENDROOT
BRANCH  11  12
HETATM   12  C   UNL     1     -42.325 -51.704  12.597  1.00  0.00     0.167 C 
BRANCH  12  13
HETATM   13  C   UNL     1     -43.093 -50.499  13.170  1.00  0.00     0.169 C 
BRANCH  13  14
HETATM   14  O   UNL     1     -43.425 -49.569  12.138  1.00  0.00    -0.389 OA
HETATM   15  H   UNL     1     -42.950 -48.739  12.311  1.00  0.00     0.210 HD
ENDBRANCH  13  14
BRANCH  13  16
HETATM   16  C   UNL     1     -44.384 -50.843  13.897  1.00  0.00    -0.028 A 
HETATM   17  C   UNL     1     -44.443 -50.657  15.292  1.00  0.00     0.013 A 
HETATM   18  C   UNL     1     -45.607 -50.943  16.009  1.00  0.00     0.043 A 
HETATM   19  C   UNL     1     -46.727 -51.407  15.337  1.00  0.00     0.116 A 
HETATM   20  F   UNL     1     -47.845 -51.684  16.021  1.00  0.00    -0.206 F 
HETATM   21  C   UNL     1     -46.707 -51.582  13.959  1.00  0.00     0.043 A 
HETATM   22  C   UNL     1     -45.542 -51.296  13.239  1.00  0.00     0.013 A 
ENDBRANCH  13  16
ENDBRANCH  12  13
ENDBRANCH  11  12
TORSDOF 4
ENDMDL
MODEL 4
REMARK VINA RESULT:      -6.2      2.828      3.683
REMARK  4 active torsions:
REMARK  status: ('A' for Active; 'I' for Inactive)
REMARK    1  A    between atoms: N_11  and  C_12 
REMARK    2  A    between atoms: C_12  and  C_13 
REMARK    3  A    between atoms: C_13  and  O_14 
REMARK    4  A    between atoms: C_13  and  C_15 
ROOT
HETATM    1  C   UNL     1     -39.471 -53.517  16.740  1.00  0.00     0.089 C 
HETATM    2  C   UNL     1     -39.038 -52.394  15.869  1.00  0.00     0.080 A 
HETATM    3  N   UNL     1     -38.468 -51.287  16.300  1.00  0.00    -0.344 N 
ATOM      4  HN  UNL     1     -38.251 -51.044  17.266  1.00  0.00     0.167 HD
HETATM    5  C   UNL     1     -38.229 -50.529  15.184  1.00  0.00     0.060 A 
HETATM    6  C   UNL     1     -37.631 -49.263  15.082  1.00  0.00     0.032 A 
HETATM    7  C   UNL     1     -37.493 -48.681  13.817  1.00  0.00     0.002 A 
HETATM    8  C   UNL     1     -37.942 -49.346  12.676  1.00  0.00     0.002 A 
HETATM    9  C   UNL     1     -38.536 -50.613  12.758  1.00  0.00     0.032 A 
HETATM   10  C   UNL     1     -38.664 -51.181  14.033  1.00  0.00     0.062 A 
HETATM   11  N   UNL     1     -39.170 -52.377  14.497  1.00  0.00    -0.332 N 
ENDROOT
BRANCH  11  12
HETATM   12  C   UNL     1     -39.665 -53.467  13.669  1.00  0.00     0.167 C 
BRANCH  12  13
HETATM   13  C   UNL     1     -40.868 -53.077  12.792  1.00  0.00     0.169 C 
BRANCH  13  14
HETATM   14  O   UNL     1     -40.659 -53.470  11.435  1.00  0.00    -0.389 OA
HETATM   15  H   UNL     1     -40.596 -52.668  10.890  1.00  0.00     0.210 HD
ENDBRANCH  13  14
BRANCH  13  16
HETATM   16  C   UNL     1     -42.202 -53.663  13.228  1.00  0.00    -0.028 A 
HETATM   17  C   UNL     1     -43.348 -53.376  12.462  1.00  0.00     0.013 A 
HETATM   18  C   UNL     1     -44.597 -53.897  12.808  1.00  0.00     0.043 A 
HETATM   19  C   UNL     1     -44.710 -54.722  13.917  1.00  0.00     0.116 A 
HETATM   20  F   UNL     1     -45.905 -55.223  14.253  1.00  0.00    -0.206 F 
HETATM   21  C   UNL     1     -43.594 -55.040  14.681  1.00  0.00     0.043 A 
HETATM   22  C   UNL     1     -42.343 -54.518  14.336  1.00  0.00     0.013 A 
ENDBRANCH  13  16
ENDBRANCH  12  13
ENDBRANCH  11  12
TORSDOF 4
ENDMDL
MODEL 5
REMARK VINA RESULT:      -6.2      3.333      6.255
REMARK  4 active torsions:
REMARK  status: ('A' for Active; 'I' for Inactive)
REMARK    1  A    between atoms: N_11  and  C_12 
REMARK    2  A    between atoms: C_12  and  C_13 
REMARK    3  A    between atoms: C_13  and  O_14 
REMARK    4  A    between atoms: C_13  and  C_15 
ROOT
HETATM    1  C   UNL     1     -43.112 -49.568  13.702  1.00  0.00     0.089 C 
HETATM    2  C   UNL     1     -43.796 -50.878  13.840  1.00  0.00     0.080 A 
HETATM    3  N   UNL     1     -44.825 -51.109  14.631  1.00  0.00    -0.344 N 
ATOM      4  HN  UNL     1     -45.286 -50.441  15.249  1.00  0.00     0.167 HD
HETATM    5  C   UNL     1     -45.147 -52.428  14.453  1.00  0.00     0.060 A 
HETATM    6  C   UNL     1     -46.171 -53.180  15.051  1.00  0.00     0.032 A 
HETATM    7  C   UNL     1     -46.306 -54.530  14.708  1.00  0.00     0.002 A 
HETATM    8  C   UNL     1     -45.439 -55.120  13.788  1.00  0.00     0.002 A 
HETATM    9  C   UNL     1     -44.414 -54.383  13.178  1.00  0.00     0.032 A 
HETATM   10  C   UNL     1     -44.296 -53.032  13.532  1.00  0.00     0.062 A 
HETATM   11  N   UNL     1     -43.445 -52.018  13.147  1.00  0.00    -0.332 N 
ENDROOT
BRANCH  11  12
HETATM   12  C   UNL     1     -42.422 -52.113  12.116  1.00  0.00     0.167 C 
BRANCH  12  13
HETATM   13  C   UNL     1     -41.069 -52.629  12.638  1.00  0.00     0.169 C 
BRANCH  13  14
HETATM   14  O   UNL     1     -40.494 -53.566  11.727  1.00  0.00    -0.389 OA
HETATM   15  H   UNL     1     -40.447 -53.151  10.850  1.00  0.00     0.210 HD
ENDBRANCH  13  14
BRANCH  13  16
HETATM   16  C   UNL     1     -40.024 -51.554  12.894  1.00  0.00    -0.028 A 
HETATM   17  C   UNL     1     -39.937 -50.470  11.999  1.00  0.00     0.013 A 
HETATM   18  C   UNL     1     -39.005 -49.448  12.192  1.00  0.00     0.043 A 
HETATM   19  C   UNL     1     -38.158 -49.493  13.289  1.00  0.00     0.116 A 
HETATM   20  F   UNL     1     -37.262 -48.516  13.477  1.00  0.00    -0.206 F 
HETATM   21  C   UNL     1     -38.232 -50.539  14.201  1.00  0.00     0.043 A 
HETATM   22  C   UNL     1     -39.165 -51.564  14.009  1.00  0.00     0.013 A 
ENDBRANCH  13  16
ENDBRANCH  12  13
ENDBRANCH  11  12
TORSDOF 4
ENDMDL
MODEL 6
REMARK VINA RESULT:      -6.1      3.131      4.610
REMARK  4 active torsions:
REMARK  status: ('A' for Active; 'I' for Inactive)
REMARK    1  A    between atoms: N_11  and  C_12 
REMARK    2  A    between atoms: C_12  and  C_13 
REMARK    3  A    between atoms: C_13  and  O_14 
REMARK    4  A    between atoms: C_13  and  C_15 
ROOT
HETATM    1  C   UNL     1     -40.990 -50.102  15.118  1.00  0.00     0.089 C 
HETATM    2  C   UNL     1     -42.426 -50.450  14.975  1.00  0.00     0.080 A 
HETATM    3  N   UNL     1     -43.324 -50.342  15.933  1.00  0.00    -0.344 N 
ATOM      4  HN  UNL     1     -43.168 -50.016  16.887  1.00  0.00     0.167 HD
HETATM    5  C   UNL     1     -44.509 -50.758  15.387  1.00  0.00     0.060 A 
HETATM    6  C   UNL     1     -45.781 -50.833  15.976  1.00  0.00     0.032 A 
HETATM    7  C   UNL     1     -46.855 -51.296  15.209  1.00  0.00     0.002 A 
HETATM    8  C   UNL     1     -46.667 -51.678  13.881  1.00  0.00     0.002 A 
HETATM    9  C   UNL     1     -45.405 -51.605  13.274  1.00  0.00     0.032 A 
HETATM   10  C   UNL     1     -44.342 -51.137  14.058  1.00  0.00     0.062 A 
HETATM   11  N   UNL     1     -43.001 -50.922  13.814  1.00  0.00    -0.332 N 
ENDROOT
BRANCH  11  12
HETATM   12  C   UNL     1     -42.337 -51.075  12.528  1.00  0.00     0.167 C 
BRANCH  12  13
HETATM   13  C   UNL     1     -42.076 -52.541  12.141  1.00  0.00     0.169 C 
BRANCH  13  14
HETATM   14  O   UNL     1     -41.204 -52.624  11.013  1.00  0.00    -0.389 OA
HETATM   15  H   UNL     1     -40.348 -52.236  11.259  1.00  0.00     0.210 HD
ENDBRANCH  13  14
BRANCH  13  16
HETATM   16  C   UNL     1     -41.471 -53.402  13.240  1.00  0.00    -0.028 A 
HETATM   17  C   UNL     1     -40.076 -53.367  13.432  1.00  0.00     0.013 A 
HETATM   18  C   UNL     1     -39.468 -54.126  14.435  1.00  0.00     0.043 A 
HETATM   19  C   UNL     1     -40.249 -54.918  15.262  1.00  0.00     0.116 A 
HETATM   20  F   UNL     1     -39.670 -55.649  16.223  1.00  0.00    -0.206 F 
HETATM   21  C   UNL     1     -41.630 -54.958  15.110  1.00  0.00     0.043 A 
HETATM   22  C   UNL     1     -42.241 -54.198  14.107  1.00  0.00     0.013 A 
ENDBRANCH  13  16
ENDBRANCH  12  13
ENDBRANCH  11  12
TORSDOF 4
ENDMDL
MODEL 7
REMARK VINA RESULT:      -6.0      3.916      6.033
REMARK  4 active torsions:
REMARK  status: ('A' for Active; 'I' for Inactive)
REMARK    1  A    between atoms: N_11  and  C_12 
REMARK    2  A    between atoms: C_12  and  C_13 
REMARK    3  A    between atoms: C_13  and  O_14 
REMARK    4  A    between atoms: C_13  and  C_15 
ROOT
HETATM    1  C   UNL     1     -45.675 -55.170  14.320  1.00  0.00     0.089 C 
HETATM    2  C   UNL     1     -44.291 -54.649  14.183  1.00  0.00     0.080 A 
HETATM    3  N   UNL     1     -43.251 -55.095  14.857  1.00  0.00    -0.344 N 
ATOM      4  HN  UNL     1     -43.244 -55.839  15.555  1.00  0.00     0.167 HD
HETATM    5  C   UNL     1     -42.181 -54.354  14.430  1.00  0.00     0.060 A 
HETATM    6  C   UNL     1     -40.835 -54.430  14.823  1.00  0.00     0.032 A 
HETATM    7  C   UNL     1     -39.910 -53.557  14.239  1.00  0.00     0.002 A 
HETATM    8  C   UNL     1     -40.318 -52.626  13.283  1.00  0.00     0.002 A 
HETATM    9  C   UNL     1     -41.656 -52.540  12.875  1.00  0.00     0.032 A 
HETATM   10  C   UNL     1     -42.567 -53.424  13.469  1.00  0.00     0.062 A 
HETATM   11  N   UNL     1     -43.921 -53.638  13.321  1.00  0.00    -0.332 N 
ENDROOT
BRANCH  11  12
HETATM   12  C   UNL     1     -44.785 -52.978  12.353  1.00  0.00     0.167 C 
BRANCH  12  13
HETATM   13  C   UNL     1     -45.150 -51.534  12.739  1.00  0.00     0.169 C 
BRANCH  13  14
HETATM   14  O   UNL     1     -46.202 -51.035  11.911  1.00  0.00    -0.389 OA
HETATM   15  H   UNL     1     -45.885 -50.233  11.465  1.00  0.00     0.210 HD
ENDBRANCH  13  14
BRANCH  13  16
HETATM   16  C   UNL     1     -45.588 -51.343  14.183  1.00  0.00    -0.028 A 
HETATM   17  C   UNL     1     -44.663 -50.812  15.103  1.00  0.00     0.013 A 
HETATM   18  C   UNL     1     -45.014 -50.603  16.439  1.00  0.00     0.043 A 
HETATM   19  C   UNL     1     -46.297 -50.912  16.865  1.00  0.00     0.116 A 
HETATM   20  F   UNL     1     -46.637 -50.715  18.145  1.00  0.00    -0.206 F 
HETATM   21  C   UNL     1     -47.237 -51.419  15.977  1.00  0.00     0.043 A 
HETATM   22  C   UNL     1     -46.888 -51.629  14.639  1.00  0.00     0.013 A 
ENDBRANCH  13  16
ENDBRANCH  12  13
ENDBRANCH  11  12
TORSDOF 4
ENDMDL
MODEL 8
REMARK VINA RESULT:      -5.7      3.284      6.079
REMARK  4 active torsions:
REMARK  status: ('A' for Active; 'I' for Inactive)
REMARK    1  A    between atoms: N_11  and  C_12 
REMARK    2  A    between atoms: C_12  and  C_13 
REMARK    3  A    between atoms: C_13  and  O_14 
REMARK    4  A    between atoms: C_13  and  C_15 
ROOT
HETATM    1  C   UNL     1     -41.679 -54.495  14.472  1.00  0.00     0.089 C 
HETATM    2  C   UNL     1     -42.969 -53.763  14.552  1.00  0.00     0.080 A 
HETATM    3  N   UNL     1     -43.755 -53.741  15.608  1.00  0.00    -0.344 N 
ATOM      4  HN  UNL     1     -43.600 -54.213  16.499  1.00  0.00     0.167 HD
HETATM    5  C   UNL     1     -44.824 -52.956  15.265  1.00  0.00     0.060 A 
HETATM    6  C   UNL     1     -45.946 -52.599  16.030  1.00  0.00     0.032 A 
HETATM    7  C   UNL     1     -46.921 -51.776  15.457  1.00  0.00     0.002 A 
HETATM    8  C   UNL     1     -46.781 -51.316  14.147  1.00  0.00     0.002 A 
HETATM    9  C   UNL     1     -45.666 -51.657  13.371  1.00  0.00     0.032 A 
HETATM   10  C   UNL     1     -44.699 -52.481  13.963  1.00  0.00     0.062 A 
HETATM   11  N   UNL     1     -43.499 -53.004  13.529  1.00  0.00    -0.332 N 
ENDROOT
BRANCH  11  12
HETATM   12  C   UNL     1     -42.861 -52.721  12.252  1.00  0.00     0.167 C 
BRANCH  12  13
HETATM   13  C   UNL     1     -41.356 -52.420  12.370  1.00  0.00     0.169 C 
BRANCH  13  14
HETATM   14  O   UNL     1     -40.605 -53.204  11.442  1.00  0.00    -0.389 OA
HETATM   15  H   UNL     1     -40.132 -53.893  11.936  1.00  0.00     0.210 HD
ENDBRANCH  13  14
BRANCH  13  16
HETATM   16  C   UNL     1     -40.970 -50.966  12.145  1.00  0.00    -0.028 A 
HETATM   17  C   UNL     1     -41.994 -50.007  12.019  1.00  0.00     0.013 A 
HETATM   18  C   UNL     1     -41.698 -48.656  11.824  1.00  0.00     0.043 A 
HETATM   19  C   UNL     1     -40.374 -48.248  11.766  1.00  0.00     0.116 A 
HETATM   20  F   UNL     1     -40.085 -46.954  11.578  1.00  0.00    -0.206 F 
HETATM   21  C   UNL     1     -39.341 -49.167  11.906  1.00  0.00     0.043 A 
HETATM   22  C   UNL     1     -39.636 -50.521  12.101  1.00  0.00     0.013 A 
ENDBRANCH  13  16
ENDBRANCH  12  13
ENDBRANCH  11  12
TORSDOF 4
ENDMDL
MODEL 9
REMARK VINA RESULT:      -5.6      2.721      3.847
REMARK  4 active torsions:
REMARK  status: ('A' for Active; 'I' for Inactive)
REMARK    1  A    between atoms: N_11  and  C_12 
REMARK    2  A    between atoms: C_12  and  C_13 
REMARK    3  A    between atoms: C_13  and  O_14 
REMARK    4  A    between atoms: C_13  and  C_15 
ROOT
HETATM    1  C   UNL     1     -39.125 -48.390  15.034  1.00  0.00     0.089 C 
HETATM    2  C   UNL     1     -39.414 -47.346  14.019  1.00  0.00     0.080 A 
HETATM    3  N   UNL     1     -39.700 -46.089  14.293  1.00  0.00    -0.344 N 
ATOM      4  HN  UNL     1     -39.766 -45.663  15.217  1.00  0.00     0.167 HD
HETATM    5  C   UNL     1     -39.890 -45.474  13.084  1.00  0.00     0.060 A 
HETATM    6  C   UNL     1     -40.208 -44.134  12.811  1.00  0.00     0.032 A 
HETATM    7  C   UNL     1     -40.355 -43.733  11.478  1.00  0.00     0.002 A 
HETATM    8  C   UNL     1     -40.189 -44.649  10.439  1.00  0.00     0.002 A 
HETATM    9  C   UNL     1     -39.867 -45.989  10.693  1.00  0.00     0.032 A 
HETATM   10  C   UNL     1     -39.721 -46.371  12.034  1.00  0.00     0.062 A 
HETATM   11  N   UNL     1     -39.409 -47.561  12.656  1.00  0.00    -0.332 N 
ENDROOT
BRANCH  11  12
HETATM   12  C   UNL     1     -39.041 -48.800  11.985  1.00  0.00     0.167 C 
BRANCH  12  13
HETATM   13  C   UNL     1     -40.240 -49.714  11.680  1.00  0.00     0.169 C 
BRANCH  13  14
HETATM   14  O   UNL     1     -40.348 -49.963  10.278  1.00  0.00    -0.389 OA
HETATM   15  H   UNL     1     -40.932 -50.728  10.147  1.00  0.00     0.210 HD
ENDBRANCH  13  14
BRANCH  13  16
HETATM   16  C   UNL     1     -40.215 -51.066  12.375  1.00  0.00    -0.028 A 
HETATM   17  C   UNL     1     -41.182 -52.027  12.019  1.00  0.00     0.013 A 
HETATM   18  C   UNL     1     -41.197 -53.290  12.615  1.00  0.00     0.043 A 
HETATM   19  C   UNL     1     -40.239 -53.610  13.565  1.00  0.00     0.116 A 
HETATM   20  F   UNL     1     -40.252 -54.819  14.140  1.00  0.00    -0.206 F 
HETATM   21  C   UNL     1     -39.260 -52.691  13.923  1.00  0.00     0.043 A 
HETATM   22  C   UNL     1     -39.243 -51.425  13.327  1.00  0.00     0.013 A 
ENDBRANCH  13  16
ENDBRANCH  12  13
ENDBRANCH  11  12
TORSDOF 4
ENDMDL
