MODEL 1
REMARK VINA RESULT:      -6.7      0.000      0.000
REMARK  7 active torsions:
REMARK  status: ('A' for Active; 'I' for Inactive)
REMARK    1  A    between atoms: N_2  and  C_14 
REMARK    2  A    between atoms: C_6  and  N_15 
REMARK    3  A    between atoms: N_8  and  C_18 
REMARK    4  A    between atoms: C_14  and  C_17 
REMARK    5  A    between atoms: N_15  and  C_20 
REMARK    6  A    between atoms: C_17  and  O_24 
REMARK    7  A    between atoms: C_18  and  C_20 
ROOT
HETATM    1  C   UNL     1     -41.433 -49.849  13.865  1.00  0.00     0.122 A 
HETATM    2  N   UNL     1     -42.551 -48.629  12.424  1.00  0.00    -0.324 N 
HETATM    3  C   UNL     1     -41.983 -49.861  12.588  1.00  0.00     0.140 A 
HETATM    4  N   UNL     1     -41.659 -48.622  14.460  1.00  0.00    -0.346 N 
ATOM      5  HN  UNL     1     -41.346 -48.315  15.381  1.00  0.00     0.167 HD
HETATM    6  C   UNL     1     -40.743 -51.020  14.287  1.00  0.00     0.135 A 
HETATM    7  C   UNL     1     -42.363 -47.933  13.587  1.00  0.00     0.185 A 
HETATM    8  N   UNL     1     -41.946 -50.853  11.686  1.00  0.00    -0.336 N 
ATOM      9  HN  UNL     1     -42.354 -50.804  10.752  1.00  0.00     0.168 HD
HETATM   10  N   UNL     1     -40.723 -52.056  13.395  1.00  0.00    -0.337 N 
ATOM     11  HN  UNL     1     -40.270 -52.935  13.646  1.00  0.00     0.168 HD
HETATM   12  C   UNL     1     -41.301 -51.920  12.183  1.00  0.00     0.183 A 
ENDROOT
BRANCH   6  13
HETATM   13  N   UNL     1     -40.015 -51.109  15.477  1.00  0.00    -0.368 N 
HETATM   14  C   UNL     1     -40.779 -51.405  16.685  1.00  0.00     0.151 C 
BRANCH  13  15
HETATM   15  C   UNL     1     -38.618 -51.611  15.453  1.00  0.00     0.143 C 
BRANCH  15  16
HETATM   16  C   UNL     1     -37.632 -50.517  15.003  1.00  0.00     0.145 C 
BRANCH  16  17
HETATM   17  N   UNL     1     -37.604 -50.074  13.618  1.00  0.00    -0.351 N 
HETATM   18  C   UNL     1     -37.346 -50.811  12.476  1.00  0.00     0.219 C 
HETATM   19  O   UNL     1     -36.926 -51.953  12.418  1.00  0.00    -0.273 OA
HETATM   20  C   UNL     1     -37.646 -49.925  11.282  1.00  0.00     0.104 C 
HETATM   21  C   UNL     1     -38.533 -48.841  11.890  1.00  0.00     0.029 C 
HETATM   22  C   UNL     1     -38.039 -48.733  13.310  1.00  0.00     0.126 C 
ENDBRANCH  16  17
ENDBRANCH  15  16
ENDBRANCH  13  15
ENDBRANCH   6  13
BRANCH   2  23
HETATM   23  C   UNL     1     -43.336 -48.195  11.283  1.00  0.00     0.169 C 
BRANCH  23  24
HETATM   24  C   UNL     1     -42.531 -47.666  10.069  1.00  0.00     0.078 C 
HETATM   25  C   UNL     1     -41.756 -46.399  10.482  1.00  0.00     0.066 C 
HETATM   26  C   UNL     1     -42.651 -45.173  10.545  1.00  0.00     0.170 C 
HETATM   27  O   UNL     1     -43.270 -44.960   9.280  1.00  0.00    -0.391 OA
HETATM   28  C   UNL     1     -44.130 -46.039   8.906  1.00  0.00     0.170 C 
HETATM   29  C   UNL     1     -43.364 -47.354   8.812  1.00  0.00     0.066 C 
BRANCH  24  30
HETATM   30  O   UNL     1     -41.530 -48.648   9.740  1.00  0.00    -0.388 OA
HETATM   31  H   UNL     1     -41.871 -49.223   9.032  1.00  0.00     0.210 HD
ENDBRANCH  24  30
ENDBRANCH  23  24
ENDBRANCH   2  23
TORSDOF 7
ENDMDL
MODEL 2
REMARK VINA RESULT:      -6.4      2.936      4.730
REMARK  7 active torsions:
REMARK  status: ('A' for Active; 'I' for Inactive)
REMARK    1  A    between atoms: N_2  and  C_14 
REMARK    2  A    between atoms: C_6  and  N_15 
REMARK    3  A    between atoms: N_8  and  C_18 
REMARK    4  A    between atoms: C_14  and  C_17 
REMARK    5  A    between atoms: N_15  and  C_20 
REMARK    6  A    between atoms: C_17  and  O_24 
REMARK    7  A    between atoms: C_18  and  C_20 
ROOT
HETATM    1  C   UNL     1     -41.100 -51.483  13.832  1.00  0.00     0.122 A 
HETATM    2  N   UNL     1     -40.431 -49.606  12.912  1.00  0.00    -0.324 N 
HETATM    3  C   UNL     1     -40.830 -50.879  12.610  1.00  0.00     0.140 A 
HETATM    4  N   UNL     1     -40.858 -50.590  14.860  1.00  0.00    -0.346 N 
ATOM      5  HN  UNL     1     -40.941 -50.764  15.861  1.00  0.00     0.167 HD
HETATM    6  C   UNL     1     -41.514 -52.845  13.807  1.00  0.00     0.135 A 
HETATM    7  C   UNL     1     -40.499 -49.469  14.273  1.00  0.00     0.185 A 
HETATM    8  N   UNL     1     -40.912 -51.423  11.387  1.00  0.00    -0.336 N 
ATOM      9  HN  UNL     1     -40.684 -50.937  10.519  1.00  0.00     0.168 HD
HETATM   10  N   UNL     1     -41.636 -53.409  12.567  1.00  0.00    -0.337 N 
ATOM     11  HN  UNL     1     -41.956 -54.374  12.477  1.00  0.00     0.168 HD
HETATM   12  C   UNL     1     -41.334 -52.695  11.463  1.00  0.00     0.183 A 
ENDROOT
BRANCH   6  13
HETATM   13  N   UNL     1     -41.680 -53.630  14.951  1.00  0.00    -0.368 N 
HETATM   14  C   UNL     1     -40.461 -54.137  15.574  1.00  0.00     0.151 C 
BRANCH  13  15
HETATM   15  C   UNL     1     -42.817 -53.368  15.869  1.00  0.00     0.143 C 
BRANCH  15  16
HETATM   16  C   UNL     1     -44.162 -53.756  15.228  1.00  0.00     0.145 C 
BRANCH  16  17
HETATM   17  N   UNL     1     -44.933 -52.776  14.480  1.00  0.00    -0.351 N 
HETATM   18  C   UNL     1     -45.244 -52.762  13.132  1.00  0.00     0.219 C 
HETATM   19  O   UNL     1     -44.791 -53.488  12.265  1.00  0.00    -0.273 OA
HETATM   20  C   UNL     1     -46.237 -51.639  12.904  1.00  0.00     0.104 C 
HETATM   21  C   UNL     1     -46.780 -51.388  14.309  1.00  0.00     0.029 C 
HETATM   22  C   UNL     1     -45.618 -51.734  15.205  1.00  0.00     0.126 C 
ENDBRANCH  16  17
ENDBRANCH  15  16
ENDBRANCH  13  15
ENDBRANCH   6  13
BRANCH   2  23
HETATM   23  C   UNL     1     -40.133 -48.555  11.959  1.00  0.00     0.169 C 
BRANCH  23  24
HETATM   24  C   UNL     1     -41.339 -48.015  11.148  1.00  0.00     0.078 C 
HETATM   25  C   UNL     1     -41.073 -46.550  10.748  1.00  0.00     0.066 C 
HETATM   26  C   UNL     1     -41.297 -45.589  11.903  1.00  0.00     0.170 C 
HETATM   27  O   UNL     1     -42.630 -45.715  12.385  1.00  0.00    -0.391 OA
HETATM   28  C   UNL     1     -42.898 -47.014  12.916  1.00  0.00     0.170 C 
HETATM   29  C   UNL     1     -42.702 -48.097  11.861  1.00  0.00     0.066 C 
BRANCH  24  30
HETATM   30  O   UNL     1     -41.408 -48.752   9.912  1.00  0.00    -0.388 OA
HETATM   31  H   UNL     1     -40.794 -48.353   9.271  1.00  0.00     0.210 HD
ENDBRANCH  24  30
ENDBRANCH  23  24
ENDBRANCH   2  23
TORSDOF 7
ENDMDL
MODEL 3
REMARK VINA RESULT:      -6.4      2.985      4.942
REMARK  7 active torsions:
REMARK  status: ('A' for Active; 'I' for Inactive)
REMARK    1  A    between atoms: N_2  and  C_14 
REMARK    2  A    between atoms: C_6  and  N_15 
REMARK    3  A    between atoms: N_8  and  C_18 
REMARK    4  A    between atoms: C_14  and  C_17 
REMARK    5  A    between atoms: N_15  and  C_20 
REMARK    6  A    between atoms: C_17  and  O_24 
REMARK    7  A    between atoms: C_18  and  C_20 
ROOT
HETATM    1  C   UNL     1     -41.583 -49.915  11.961  1.00  0.00     0.122 A 
HETATM    2  N   UNL     1     -41.776 -47.857  11.224  1.00  0.00    -0.324 N 
HETATM    3  C   UNL     1     -40.857 -48.843  11.455  1.00  0.00     0.140 A 
HETATM    4  N   UNL     1     -42.921 -49.578  12.044  1.00  0.00    -0.346 N 
ATOM      5  HN  UNL     1     -43.682 -50.153  12.405  1.00  0.00     0.167 HD
HETATM    6  C   UNL     1     -40.852 -51.083  12.320  1.00  0.00     0.135 A 
HETATM    7  C   UNL     1     -43.005 -48.357  11.559  1.00  0.00     0.185 A 
HETATM    8  N   UNL     1     -39.533 -48.767  11.255  1.00  0.00    -0.336 N 
ATOM      9  HN  UNL     1     -39.047 -47.945  10.895  1.00  0.00     0.168 HD
HETATM   10  N   UNL     1     -39.504 -51.038  12.093  1.00  0.00    -0.337 N 
ATOM     11  HN  UNL     1     -38.926 -51.853  12.301  1.00  0.00     0.168 HD
HETATM   12  C   UNL     1     -38.936 -49.920  11.595  1.00  0.00     0.183 A 
ENDROOT
BRANCH   6  13
HETATM   13  N   UNL     1     -41.414 -52.183  12.974  1.00  0.00    -0.368 N 
HETATM   14  C   UNL     1     -40.951 -53.500  12.546  1.00  0.00     0.151 C 
BRANCH  13  15
HETATM   15  C   UNL     1     -41.818 -52.069  14.398  1.00  0.00     0.143 C 
BRANCH  15  16
HETATM   16  C   UNL     1     -43.183 -52.734  14.653  1.00  0.00     0.145 C 
BRANCH  16  17
HETATM   17  N   UNL     1     -44.356 -52.324  13.898  1.00  0.00    -0.351 N 
HETATM   18  C   UNL     1     -44.975 -52.966  12.841  1.00  0.00     0.219 C 
HETATM   19  O   UNL     1     -44.560 -53.928  12.220  1.00  0.00    -0.273 OA
HETATM   20  C   UNL     1     -46.270 -52.230  12.554  1.00  0.00     0.104 C 
HETATM   21  C   UNL     1     -46.504 -51.456  13.849  1.00  0.00     0.029 C 
HETATM   22  C   UNL     1     -45.110 -51.182  14.356  1.00  0.00     0.126 C 
ENDBRANCH  16  17
ENDBRANCH  15  16
ENDBRANCH  13  15
ENDBRANCH   6  13
BRANCH   2  23
HETATM   23  C   UNL     1     -41.514 -46.574  10.601  1.00  0.00     0.169 C 
BRANCH  23  24
HETATM   24  C   UNL     1     -41.767 -45.327  11.487  1.00  0.00     0.078 C 
HETATM   25  C   UNL     1     -40.811 -44.195  11.061  1.00  0.00     0.066 C 
HETATM   26  C   UNL     1     -39.402 -44.403  11.590  1.00  0.00     0.170 C 
HETATM   27  O   UNL     1     -39.427 -44.495  13.011  1.00  0.00    -0.391 OA
HETATM   28  C   UNL     1     -40.175 -45.622  13.471  1.00  0.00     0.170 C 
HETATM   29  C   UNL     1     -41.624 -45.556  13.003  1.00  0.00     0.066 C 
BRANCH  24  30
HETATM   30  O   UNL     1     -43.095 -44.845  11.205  1.00  0.00    -0.388 OA
HETATM   31  H   UNL     1     -43.612 -44.841  12.031  1.00  0.00     0.210 HD
ENDBRANCH  24  30
ENDBRANCH  23  24
ENDBRANCH   2  23
TORSDOF 7
ENDMDL
MODEL 4
REMARK VINA RESULT:      -6.3      3.227      7.181
REMARK  7 active torsions:
REMARK  status: ('A' for Active; 'I' for Inactive)
REMARK    1  A    between atoms: N_2  and  C_14 
REMARK    2  A    between atoms: C_6  and  N_15 
REMARK    3  A    between atoms: N_8  and  C_18 
REMARK    4  A    between atoms: C_14  and  C_17 
REMARK    5  A    between atoms: N_15  and  C_20 
REMARK    6  A    between atoms: C_17  and  O_24 
REMARK    7  A    between atoms: C_18  and  C_20 
ROOT
HETATM    1  C   UNL     1     -42.182 -49.309  12.103  1.00  0.00     0.122 A 
HETATM    2  N   UNL     1     -42.724 -51.066  13.302  1.00  0.00    -0.324 N 
HETATM    3  C   UNL     1     -41.686 -50.505  12.611  1.00  0.00     0.140 A 
HETATM    4  N   UNL     1     -43.504 -49.155  12.475  1.00  0.00    -0.346 N 
ATOM      5  HN  UNL     1     -44.131 -48.391  12.224  1.00  0.00     0.167 HD
HETATM    6  C   UNL     1     -41.300 -48.527  11.305  1.00  0.00     0.135 A 
HETATM    7  C   UNL     1     -43.783 -50.201  13.223  1.00  0.00     0.185 A 
HETATM    8  N   UNL     1     -40.462 -51.025  12.444  1.00  0.00    -0.336 N 
ATOM      9  HN  UNL     1     -40.154 -51.920  12.826  1.00  0.00     0.168 HD
HETATM   10  N   UNL     1     -40.035 -49.023  11.150  1.00  0.00    -0.337 N 
ATOM     11  HN  UNL     1     -39.345 -48.497  10.614  1.00  0.00     0.168 HD
HETATM   12  C   UNL     1     -39.697 -50.207  11.703  1.00  0.00     0.183 A 
ENDROOT
BRANCH   6  13
HETATM   13  N   UNL     1     -41.691 -47.381  10.607  1.00  0.00    -0.368 N 
HETATM   14  C   UNL     1     -40.843 -46.203  10.765  1.00  0.00     0.151 C 
BRANCH  13  15
HETATM   15  C   UNL     1     -42.383 -47.511   9.301  1.00  0.00     0.143 C 
BRANCH  15  16
HETATM   16  C   UNL     1     -43.756 -46.813   9.317  1.00  0.00     0.145 C 
BRANCH  16  17
HETATM   17  N   UNL     1     -44.921 -47.466   8.743  1.00  0.00    -0.351 N 
HETATM   18  C   UNL     1     -44.986 -48.352   7.683  1.00  0.00     0.219 C 
HETATM   19  O   UNL     1     -44.092 -48.636   6.907  1.00  0.00    -0.273 OA
HETATM   20  C   UNL     1     -46.402 -48.894   7.625  1.00  0.00     0.104 C 
HETATM   21  C   UNL     1     -46.930 -48.587   9.024  1.00  0.00     0.029 C 
HETATM   22  C   UNL     1     -46.192 -47.333   9.415  1.00  0.00     0.126 C 
ENDBRANCH  16  17
ENDBRANCH  15  16
ENDBRANCH  13  15
ENDBRANCH   6  13
BRANCH   2  23
HETATM   23  C   UNL     1     -42.667 -52.279  14.095  1.00  0.00     0.169 C 
BRANCH  23  24
HETATM   24  C   UNL     1     -42.861 -53.606  13.317  1.00  0.00     0.078 C 
HETATM   25  C   UNL     1     -43.927 -53.406  12.222  1.00  0.00     0.066 C 
HETATM   26  C   UNL     1     -45.338 -53.418  12.785  1.00  0.00     0.170 C 
HETATM   27  O   UNL     1     -45.578 -54.646  13.462  1.00  0.00    -0.391 OA
HETATM   28  C   UNL     1     -44.719 -54.824  14.590  1.00  0.00     0.170 C 
HETATM   29  C   UNL     1     -43.251 -54.822  14.177  1.00  0.00     0.066 C 
BRANCH  24  30
HETATM   30  O   UNL     1     -41.633 -53.895  12.621  1.00  0.00    -0.388 OA
HETATM   31  H   UNL     1     -40.899 -53.900  13.261  1.00  0.00     0.210 HD
ENDBRANCH  24  30
ENDBRANCH  23  24
ENDBRANCH   2  23
TORSDOF 7
ENDMDL
MODEL 5
REMARK VINA RESULT:      -6.2      3.557      5.322
REMARK  7 active torsions:
REMARK  status: ('A' for Active; 'I' for Inactive)
REMARK    1  A    between atoms: N_2  and  C_14 
REMARK    2  A    between atoms: C_6  and  N_15 
REMARK    3  A    between atoms: N_8  and  C_18 
REMARK    4  A    between atoms: C_14  and  C_17 
REMARK    5  A    between atoms: N_15  and  C_20 
REMARK    6  A    between atoms: C_17  and  O_24 
REMARK    7  A    between atoms: C_18  and  C_20 
ROOT
HETATM    1  C   UNL     1     -42.302 -51.191  12.918  1.00  0.00     0.122 A 
HETATM    2  N   UNL     1     -42.111 -49.010  12.766  1.00  0.00    -0.324 N 
HETATM    3  C   UNL     1     -41.374 -50.160  12.831  1.00  0.00     0.140 A 
HETATM    4  N   UNL     1     -43.583 -50.670  12.915  1.00  0.00    -0.346 N 
ATOM      5  HN  UNL     1     -44.459 -51.185  12.997  1.00  0.00     0.167 HD
HETATM    6  C   UNL     1     -41.793 -52.515  13.030  1.00  0.00     0.135 A 
HETATM    7  C   UNL     1     -43.432 -49.369  12.783  1.00  0.00     0.185 A 
HETATM    8  N   UNL     1     -40.036 -50.254  12.838  1.00  0.00    -0.336 N 
ATOM      9  HN  UNL     1     -39.398 -49.459  12.788  1.00  0.00     0.168 HD
HETATM   10  N   UNL     1     -40.431 -52.637  13.004  1.00  0.00    -0.337 N 
ATOM     11  HN  UNL     1     -40.002 -53.561  13.051  1.00  0.00     0.168 HD
HETATM   12  C   UNL     1     -39.653 -51.538  12.918  1.00  0.00     0.183 A 
ENDROOT
BRANCH   6  13
HETATM   13  N   UNL     1     -42.590 -53.638  13.271  1.00  0.00    -0.368 N 
HETATM   14  C   UNL     1     -42.590 -54.153  14.638  1.00  0.00     0.151 C 
BRANCH  13  15
HETATM   15  C   UNL     1     -43.845 -53.833  12.504  1.00  0.00     0.143 C 
BRANCH  15  16
HETATM   16  C   UNL     1     -44.958 -54.432  13.384  1.00  0.00     0.145 C 
BRANCH  16  17
HETATM   17  N   UNL     1     -45.928 -53.568  14.037  1.00  0.00    -0.351 N 
HETATM   18  C   UNL     1     -46.334 -53.563  15.360  1.00  0.00     0.219 C 
HETATM   19  O   UNL     1     -46.079 -54.396  16.210  1.00  0.00    -0.273 OA
HETATM   20  C   UNL     1     -47.201 -52.336  15.567  1.00  0.00     0.104 C 
HETATM   21  C   UNL     1     -46.818 -51.456  14.379  1.00  0.00     0.029 C 
HETATM   22  C   UNL     1     -46.465 -52.449  13.301  1.00  0.00     0.126 C 
ENDBRANCH  16  17
ENDBRANCH  15  16
ENDBRANCH  13  15
ENDBRANCH   6  13
BRANCH   2  23
HETATM   23  C   UNL     1     -41.590 -47.671  12.567  1.00  0.00     0.169 C 
BRANCH  23  24
HETATM   24  C   UNL     1     -41.070 -47.352  11.142  1.00  0.00     0.078 C 
HETATM   25  C   UNL     1     -40.882 -45.829  10.994  1.00  0.00     0.066 C 
HETATM   26  C   UNL     1     -42.200 -45.106  10.778  1.00  0.00     0.170 C 
HETATM   27  O   UNL     1     -42.849 -45.619   9.619  1.00  0.00    -0.391 OA
HETATM   28  C   UNL     1     -43.191 -47.000   9.753  1.00  0.00     0.170 C 
HETATM   29  C   UNL     1     -41.954 -47.860   9.988  1.00  0.00     0.066 C 
BRANCH  24  30
HETATM   30  O   UNL     1     -39.753 -47.923  11.013  1.00  0.00    -0.388 OA
HETATM   31  H   UNL     1     -39.270 -47.797  11.849  1.00  0.00     0.210 HD
ENDBRANCH  24  30
ENDBRANCH  23  24
ENDBRANCH   2  23
TORSDOF 7
ENDMDL
MODEL 6
REMARK VINA RESULT:      -6.2      3.655      5.604
REMARK  7 active torsions:
REMARK  status: ('A' for Active; 'I' for Inactive)
REMARK    1  A    between atoms: N_2  and  C_14 
REMARK    2  A    between atoms: C_6  and  N_15 
REMARK    3  A    between atoms: N_8  and  C_18 
REMARK    4  A    between atoms: C_14  and  C_17 
REMARK    5  A    between atoms: N_15  and  C_20 
REMARK    6  A    between atoms: C_17  and  O_24 
REMARK    7  A    between atoms: C_18  and  C_20 
ROOT
HETATM    1  C   UNL     1     -41.606 -50.775  12.353  1.00  0.00     0.122 A 
HETATM    2  N   UNL     1     -40.737 -48.830  11.825  1.00  0.00    -0.324 N 
HETATM    3  C   UNL     1     -41.620 -49.425  12.683  1.00  0.00     0.140 A 
HETATM    4  N   UNL     1     -40.733 -50.992  11.303  1.00  0.00    -0.346 N 
ATOM      5  HN  UNL     1     -40.541 -51.875  10.832  1.00  0.00     0.167 HD
HETATM    6  C   UNL     1     -42.473 -51.633  13.087  1.00  0.00     0.135 A 
HETATM    7  C   UNL     1     -40.203 -49.816  11.040  1.00  0.00     0.185 A 
HETATM    8  N   UNL     1     -42.357 -48.815  13.623  1.00  0.00    -0.336 N 
ATOM      9  HN  UNL     1     -42.341 -47.813  13.813  1.00  0.00     0.168 HD
HETATM   10  N   UNL     1     -43.210 -51.036  14.073  1.00  0.00    -0.337 N 
ATOM     11  HN  UNL     1     -43.830 -51.599  14.656  1.00  0.00     0.168 HD
HETATM   12  C   UNL     1     -43.120 -49.705  14.277  1.00  0.00     0.183 A 
ENDROOT
BRANCH   6  13
HETATM   13  N   UNL     1     -42.682 -52.980  12.778  1.00  0.00    -0.368 N 
HETATM   14  C   UNL     1     -41.956 -53.952  13.590  1.00  0.00     0.151 C 
BRANCH  13  15
HETATM   15  C   UNL     1     -43.998 -53.423  12.257  1.00  0.00     0.143 C 
BRANCH  15  16
HETATM   16  C   UNL     1     -44.833 -54.120  13.348  1.00  0.00     0.145 C 
BRANCH  16  17
HETATM   17  N   UNL     1     -45.836 -53.378  14.094  1.00  0.00    -0.351 N 
HETATM   18  C   UNL     1     -46.227 -53.531  15.413  1.00  0.00     0.219 C 
HETATM   19  O   UNL     1     -45.921 -54.435  16.170  1.00  0.00    -0.273 OA
HETATM   20  C   UNL     1     -47.152 -52.378  15.753  1.00  0.00     0.104 C 
HETATM   21  C   UNL     1     -46.826 -51.361  14.661  1.00  0.00     0.029 C 
HETATM   22  C   UNL     1     -46.437 -52.217  13.484  1.00  0.00     0.126 C 
ENDBRANCH  16  17
ENDBRANCH  15  16
ENDBRANCH  13  15
ENDBRANCH   6  13
BRANCH   2  23
HETATM   23  C   UNL     1     -40.333 -47.437  11.844  1.00  0.00     0.169 C 
BRANCH  23  24
HETATM   24  C   UNL     1     -41.204 -46.468  11.005  1.00  0.00     0.078 C 
HETATM   25  C   UNL     1     -40.310 -45.362  10.408  1.00  0.00     0.066 C 
HETATM   26  C   UNL     1     -39.948 -44.301  11.434  1.00  0.00     0.170 C 
HETATM   27  O   UNL     1     -41.133 -43.719  11.967  1.00  0.00    -0.391 OA
HETATM   28  C   UNL     1     -41.938 -44.668  12.670  1.00  0.00     0.170 C 
HETATM   29  C   UNL     1     -42.373 -45.811  11.761  1.00  0.00     0.066 C 
BRANCH  24  30
HETATM   30  O   UNL     1     -41.723 -47.201   9.878  1.00  0.00    -0.388 OA
HETATM   31  H   UNL     1     -41.533 -46.704   9.062  1.00  0.00     0.210 HD
ENDBRANCH  24  30
ENDBRANCH  23  24
ENDBRANCH   2  23
TORSDOF 7
ENDMDL
MODEL 7
REMARK VINA RESULT:      -6.1      2.832      4.778
REMARK  7 active torsions:
REMARK  status: ('A' for Active; 'I' for Inactive)
REMARK    1  A    between atoms: N_2  and  C_14 
REMARK    2  A    between atoms: C_6  and  N_15 
REMARK    3  A    between atoms: N_8  and  C_18 
REMARK    4  A    between atoms: C_14  and  C_17 
REMARK    5  A    between atoms: N_15  and  C_20 
REMARK    6  A    between atoms: C_17  and  O_24 
REMARK    7  A    between atoms: C_18  and  C_20 
ROOT
HETATM    1  C   UNL     1     -40.657 -49.407  12.756  1.00  0.00     0.122 A 
HETATM    2  N   UNL     1     -40.482 -47.221  12.674  1.00  0.00    -0.324 N 
HETATM    3  C   UNL     1     -39.850 -48.374  12.297  1.00  0.00     0.140 A 
HETATM    4  N   UNL     1     -41.758 -48.887  13.411  1.00  0.00    -0.346 N 
ATOM      5  HN  UNL     1     -42.503 -49.406  13.875  1.00  0.00     0.167 HD
HETATM    6  C   UNL     1     -40.209 -50.737  12.519  1.00  0.00     0.135 A 
HETATM    7  C   UNL     1     -41.642 -47.580  13.308  1.00  0.00     0.185 A 
HETATM    8  N   UNL     1     -38.682 -48.469  11.645  1.00  0.00    -0.336 N 
ATOM      9  HN  UNL     1     -38.118 -47.674  11.343  1.00  0.00     0.168 HD
HETATM   10  N   UNL     1     -39.036 -50.858  11.826  1.00  0.00    -0.337 N 
ATOM     11  HN  UNL     1     -38.673 -51.783  11.597  1.00  0.00     0.168 HD
HETATM   12  C   UNL     1     -38.356 -49.756  11.444  1.00  0.00     0.183 A 
ENDROOT
BRANCH   6  13
HETATM   13  N   UNL     1     -40.829 -51.875  13.043  1.00  0.00    -0.368 N 
HETATM   14  C   UNL     1     -40.546 -52.183  14.442  1.00  0.00     0.151 C 
BRANCH  13  15
HETATM   15  C   UNL     1     -42.167 -52.281  12.548  1.00  0.00     0.143 C 
BRANCH  15  16
HETATM   16  C   UNL     1     -43.113 -52.649  13.707  1.00  0.00     0.145 C 
BRANCH  16  17
HETATM   17  N   UNL     1     -44.432 -52.046  13.801  1.00  0.00    -0.351 N 
HETATM   18  C   UNL     1     -45.570 -52.327  13.066  1.00  0.00     0.219 C 
HETATM   19  O   UNL     1     -45.648 -53.027  12.072  1.00  0.00    -0.273 OA
HETATM   20  C   UNL     1     -46.722 -51.569  13.697  1.00  0.00     0.104 C 
HETATM   21  C   UNL     1     -46.187 -51.261  15.094  1.00  0.00     0.029 C 
HETATM   22  C   UNL     1     -44.700 -51.131  14.885  1.00  0.00     0.126 C 
ENDBRANCH  16  17
ENDBRANCH  15  16
ENDBRANCH  13  15
ENDBRANCH   6  13
BRANCH   2  23
HETATM   23  C   UNL     1     -40.074 -45.872  12.334  1.00  0.00     0.169 C 
BRANCH  23  24
HETATM   24  C   UNL     1     -40.324 -45.437  10.868  1.00  0.00     0.078 C 
HETATM   25  C   UNL     1     -40.204 -43.904  10.760  1.00  0.00     0.066 C 
HETATM   26  C   UNL     1     -41.440 -43.193  11.283  1.00  0.00     0.170 C 
HETATM   27  O   UNL     1     -42.590 -43.631  10.565  1.00  0.00    -0.391 OA
HETATM   28  C   UNL     1     -42.848 -45.024  10.748  1.00  0.00     0.170 C 
HETATM   29  C   UNL     1     -41.675 -45.874  10.273  1.00  0.00     0.066 C 
BRANCH  24  30
HETATM   30  O   UNL     1     -39.258 -45.971  10.059  1.00  0.00    -0.388 OA
HETATM   31  H   UNL     1     -38.452 -46.039  10.603  1.00  0.00     0.210 HD
ENDBRANCH  24  30
ENDBRANCH  23  24
ENDBRANCH   2  23
TORSDOF 7
ENDMDL
MODEL 8
REMARK VINA RESULT:      -6.0      3.363      6.795
REMARK  7 active torsions:
REMARK  status: ('A' for Active; 'I' for Inactive)
REMARK    1  A    between atoms: N_2  and  C_14 
REMARK    2  A    between atoms: C_6  and  N_15 
REMARK    3  A    between atoms: N_8  and  C_18 
REMARK    4  A    between atoms: C_14  and  C_17 
REMARK    5  A    between atoms: N_15  and  C_20 
REMARK    6  A    between atoms: C_17  and  O_24 
REMARK    7  A    between atoms: C_18  and  C_20 
ROOT
HETATM    1  C   UNL     1     -42.226 -49.279  11.889  1.00  0.00     0.122 A 
HETATM    2  N   UNL     1     -42.639 -50.991  13.199  1.00  0.00    -0.324 N 
HETATM    3  C   UNL     1     -41.666 -50.439  12.412  1.00  0.00     0.140 A 
HETATM    4  N   UNL     1     -43.523 -49.137  12.346  1.00  0.00    -0.346 N 
ATOM      5  HN  UNL     1     -44.185 -48.399  12.106  1.00  0.00     0.167 HD
HETATM    6  C   UNL     1     -41.422 -48.515  10.997  1.00  0.00     0.135 A 
HETATM    7  C   UNL     1     -43.722 -50.154  13.157  1.00  0.00     0.185 A 
HETATM    8  N   UNL     1     -40.443 -50.940  12.182  1.00  0.00    -0.336 N 
ATOM      9  HN  UNL     1     -40.087 -51.809  12.581  1.00  0.00     0.168 HD
HETATM   10  N   UNL     1     -40.159 -48.990  10.774  1.00  0.00    -0.337 N 
ATOM     11  HN  UNL     1     -39.521 -48.474  10.168  1.00  0.00     0.168 HD
HETATM   12  C   UNL     1     -39.753 -50.139  11.354  1.00  0.00     0.183 A 
ENDROOT
BRANCH   6  13
HETATM   13  N   UNL     1     -41.889 -47.411  10.278  1.00  0.00    -0.368 N 
HETATM   14  C   UNL     1     -42.936 -47.671   9.295  1.00  0.00     0.151 C 
BRANCH  13  15
HETATM   15  C   UNL     1     -41.917 -46.072  10.917  1.00  0.00     0.143 C 
BRANCH  15  16
HETATM   16  C   UNL     1     -40.604 -45.302  10.678  1.00  0.00     0.145 C 
BRANCH  16  17
HETATM   17  N   UNL     1     -40.347 -44.050  11.370  1.00  0.00    -0.351 N 
HETATM   18  C   UNL     1     -40.994 -42.835  11.236  1.00  0.00     0.219 C 
HETATM   19  O   UNL     1     -41.807 -42.526  10.384  1.00  0.00    -0.273 OA
HETATM   20  C   UNL     1     -40.480 -41.919  12.330  1.00  0.00     0.104 C 
HETATM   21  C   UNL     1     -39.877 -42.904  13.329  1.00  0.00     0.029 C 
HETATM   22  C   UNL     1     -39.404 -44.043  12.463  1.00  0.00     0.126 C 
ENDBRANCH  16  17
ENDBRANCH  15  16
ENDBRANCH  13  15
ENDBRANCH   6  13
BRANCH   2  23
HETATM   23  C   UNL     1     -42.496 -52.165  14.038  1.00  0.00     0.169 C 
BRANCH  23  24
HETATM   24  C   UNL     1     -42.710 -53.530  13.335  1.00  0.00     0.078 C 
HETATM   25  C   UNL     1     -43.928 -53.435  12.394  1.00  0.00     0.066 C 
HETATM   26  C   UNL     1     -45.244 -53.509  13.148  1.00  0.00     0.170 C 
HETATM   27  O   UNL     1     -45.310 -54.722  13.890  1.00  0.00    -0.391 OA
HETATM   28  C   UNL     1     -44.294 -54.805  14.891  1.00  0.00     0.170 C 
HETATM   29  C   UNL     1     -42.901 -54.733  14.277  1.00  0.00     0.066 C 
BRANCH  24  30
HETATM   30  O   UNL     1     -41.575 -53.772  12.483  1.00  0.00    -0.388 OA
HETATM   31  H   UNL     1     -40.795 -53.324  12.858  1.00  0.00     0.210 HD
ENDBRANCH  24  30
ENDBRANCH  23  24
ENDBRANCH   2  23
TORSDOF 7
ENDMDL
MODEL 9
REMARK VINA RESULT:      -6.0      2.939      5.067
REMARK  7 active torsions:
REMARK  status: ('A' for Active; 'I' for Inactive)
REMARK    1  A    between atoms: N_2  and  C_14 
REMARK    2  A    between atoms: C_6  and  N_15 
REMARK    3  A    between atoms: N_8  and  C_18 
REMARK    4  A    between atoms: C_14  and  C_17 
REMARK    5  A    between atoms: N_15  and  C_20 
REMARK    6  A    between atoms: C_17  and  O_24 
REMARK    7  A    between atoms: C_18  and  C_20 
ROOT
HETATM    1  C   UNL     1     -40.662 -50.976  12.709  1.00  0.00     0.122 A 
HETATM    2  N   UNL     1     -40.332 -48.903  12.069  1.00  0.00    -0.324 N 
HETATM    3  C   UNL     1     -40.506 -49.679  13.182  1.00  0.00     0.140 A 
HETATM    4  N   UNL     1     -40.593 -50.983  11.328  1.00  0.00    -0.346 N 
ATOM      5  HN  UNL     1     -40.703 -51.785  10.708  1.00  0.00     0.167 HD
HETATM    6  C   UNL     1     -40.893 -51.996  13.674  1.00  0.00     0.135 A 
HETATM    7  C   UNL     1     -40.356 -49.735  10.983  1.00  0.00     0.185 A 
HETATM    8  N   UNL     1     -40.543 -49.256  14.454  1.00  0.00    -0.336 N 
ATOM      9  HN  UNL     1     -40.438 -48.284  14.747  1.00  0.00     0.168 HD
HETATM   10  N   UNL     1     -40.901 -51.592  14.981  1.00  0.00    -0.337 N 
ATOM     11  HN  UNL     1     -41.032 -52.278  15.724  1.00  0.00     0.168 HD
HETATM   12  C   UNL     1     -40.737 -50.289  15.289  1.00  0.00     0.183 A 
ENDROOT
BRANCH   6  13
HETATM   13  N   UNL     1     -41.214 -53.318  13.350  1.00  0.00    -0.368 N 
HETATM   14  C   UNL     1     -40.152 -54.305  13.520  1.00  0.00     0.151 C 
BRANCH  13  15
HETATM   15  C   UNL     1     -42.598 -53.812  13.552  1.00  0.00     0.143 C 
BRANCH  15  16
HETATM   16  C   UNL     1     -43.596 -53.096  12.624  1.00  0.00     0.145 C 
BRANCH  16  17
HETATM   17  N   UNL     1     -44.684 -52.307  13.179  1.00  0.00    -0.351 N 
HETATM   18  C   UNL     1     -45.993 -52.205  12.742  1.00  0.00     0.219 C 
HETATM   19  O   UNL     1     -46.455 -52.630  11.699  1.00  0.00    -0.273 OA
HETATM   20  C   UNL     1     -46.764 -51.421  13.788  1.00  0.00     0.104 C 
HETATM   21  C   UNL     1     -45.869 -51.544  15.019  1.00  0.00     0.029 C 
HETATM   22  C   UNL     1     -44.480 -51.635  14.440  1.00  0.00     0.126 C 
ENDBRANCH  16  17
ENDBRANCH  15  16
ENDBRANCH  13  15
ENDBRANCH   6  13
BRANCH   2  23
HETATM   23  C   UNL     1     -40.030 -47.484  12.055  1.00  0.00     0.169 C 
BRANCH  23  24
HETATM   24  C   UNL     1     -41.124 -46.565  11.454  1.00  0.00     0.078 C 
HETATM   25  C   UNL     1     -40.896 -45.118  11.933  1.00  0.00     0.066 C 
HETATM   26  C   UNL     1     -41.367 -44.905  13.361  1.00  0.00     0.170 C 
HETATM   27  O   UNL     1     -42.749 -45.229  13.468  1.00  0.00    -0.391 OA
HETATM   28  C   UNL     1     -43.010 -46.605  13.184  1.00  0.00     0.170 C 
HETATM   29  C   UNL     1     -42.574 -46.973  11.771  1.00  0.00     0.066 C 
BRANCH  24  30
HETATM   30  O   UNL     1     -40.943 -46.537  10.025  1.00  0.00    -0.388 OA
HETATM   31  H   UNL     1     -40.066 -46.902   9.809  1.00  0.00     0.210 HD
ENDBRANCH  24  30
ENDBRANCH  23  24
ENDBRANCH   2  23
TORSDOF 7
ENDMDL
