MODEL 1
REMARK VINA RESULT:      -5.9      0.000      0.000
REMARK  2 active torsions:
REMARK  status: ('A' for Active; 'I' for Inactive)
REMARK    1  A    between atoms: C_8  and  N_11 
REMARK    2  A    between atoms: C_16  and  C_17 
REMARK       I    between atoms: C_17  and  N_19 
ROOT
HETATM    1  N   UNL     1     -42.936 -52.545  13.105  1.00  0.00    -0.200 N 
HETATM    2  C   UNL     1     -42.533 -53.940  12.923  1.00  0.00     0.168 C 
HETATM    3  C   UNL     1     -41.055 -54.080  13.320  1.00  0.00     0.188 C 
HETATM    4  O   UNL     1     -40.218 -53.179  12.574  1.00  0.00    -0.387 OA
HETATM    5  C   UNL     1     -40.627 -51.813  12.811  1.00  0.00     0.203 C 
HETATM    6  C   UNL     1     -42.087 -51.584  12.366  1.00  0.00     0.217 C 
ENDROOT
BRANCH   1   7
HETATM    7  C   UNL     1     -44.256 -52.311  13.399  1.00  0.00     0.681 A 
HETATM    8  N   UNL     1     -45.134 -52.302  12.391  1.00  0.00    -0.196 N 
HETATM    9  C   UNL     1     -46.372 -51.817  12.622  1.00  0.00     0.024 A 
ATOM     10  HN  UNL     1     -44.876 -52.655  11.470  1.00  0.00     0.184 HD
HETATM   11  C   UNL     1     -46.776 -51.396  13.870  1.00  0.00     0.050 A 
HETATM   12  C   UNL     1     -47.269 -51.671  11.432  1.00  0.00     0.068 C 
HETATM   13  C   UNL     1     -45.841 -51.497  14.874  1.00  0.00     0.024 A 
HETATM   14  C   UNL     1     -46.154 -51.071  16.276  1.00  0.00     0.068 C 
HETATM   15  N   UNL     1     -44.589 -51.944  14.645  1.00  0.00    -0.196 N 
ATOM     16  HN  UNL     1     -43.909 -52.002  15.404  1.00  0.00     0.184 HD
ENDBRANCH   1   7
BRANCH   6  17
HETATM   17  C   UNL     1     -42.423 -50.093  12.511  1.00  0.00     0.241 C 
HETATM   18  O   UNL     1     -42.733 -49.544  13.565  1.00  0.00    -0.271 OA
HETATM   19  N   UNL     1     -42.262 -49.347  11.369  1.00  0.00    -0.368 N 
HETATM   20  H   UNL     1     -42.390 -49.802  10.475  1.00  0.00     0.159 HD
HETATM   21  H   UNL     1     -42.597 -48.395  11.440  1.00  0.00     0.159 HD
ENDBRANCH   6  17
TORSDOF 2
ENDMDL
MODEL 2
REMARK VINA RESULT:      -5.8      0.420      2.101
REMARK  2 active torsions:
REMARK  status: ('A' for Active; 'I' for Inactive)
REMARK    1  A    between atoms: C_8  and  N_11 
REMARK    2  A    between atoms: C_16  and  C_17 
REMARK       I    between atoms: C_17  and  N_19 
ROOT
HETATM    1  N   UNL     1     -42.787 -52.336  13.157  1.00  0.00    -0.200 N 
HETATM    2  C   UNL     1     -42.617 -53.785  13.044  1.00  0.00     0.168 C 
HETATM    3  C   UNL     1     -41.197 -54.151  13.505  1.00  0.00     0.188 C 
HETATM    4  O   UNL     1     -40.197 -53.434  12.759  1.00  0.00    -0.387 OA
HETATM    5  C   UNL     1     -40.380 -52.010  12.927  1.00  0.00     0.203 C 
HETATM    6  C   UNL     1     -41.766 -51.562  12.415  1.00  0.00     0.217 C 
ENDROOT
BRANCH   1   7
HETATM    7  C   UNL     1     -44.058 -51.873  13.388  1.00  0.00     0.681 A 
HETATM    8  N   UNL     1     -44.394 -51.552  14.642  1.00  0.00    -0.196 N 
HETATM    9  C   UNL     1     -45.699 -51.353  14.926  1.00  0.00     0.024 A 
ATOM     10  HN  UNL     1     -43.682 -51.459  15.366  1.00  0.00     0.184 HD
HETATM   11  C   UNL     1     -46.678 -51.404  13.958  1.00  0.00     0.050 A 
HETATM   12  C   UNL     1     -46.049 -51.161  16.369  1.00  0.00     0.068 C 
HETATM   13  C   UNL     1     -46.251 -51.672  12.678  1.00  0.00     0.024 A 
HETATM   14  C   UNL     1     -47.217 -51.756  11.536  1.00  0.00     0.068 C 
HETATM   15  N   UNL     1     -44.955 -51.911  12.391  1.00  0.00    -0.196 N 
ATOM     16  HN  UNL     1     -44.662 -52.117  11.435  1.00  0.00     0.184 HD
ENDBRANCH   1   7
BRANCH   6  17
HETATM   17  C   UNL     1     -41.853 -50.032  12.490  1.00  0.00     0.241 C 
HETATM   18  O   UNL     1     -41.565 -49.361  13.477  1.00  0.00    -0.271 OA
HETATM   19  N   UNL     1     -42.193 -49.411  11.313  1.00  0.00    -0.368 N 
HETATM   20  H   UNL     1     -42.777 -49.911  10.656  1.00  0.00     0.159 HD
HETATM   21  H   UNL     1     -42.363 -48.418  11.398  1.00  0.00     0.159 HD
ENDBRANCH   6  17
TORSDOF 2
ENDMDL
MODEL 3
REMARK VINA RESULT:      -5.8      1.671      2.920
REMARK  2 active torsions:
REMARK  status: ('A' for Active; 'I' for Inactive)
REMARK    1  A    between atoms: C_8  and  N_11 
REMARK    2  A    between atoms: C_16  and  C_17 
REMARK       I    between atoms: C_17  and  N_19 
ROOT
HETATM    1  N   UNL     1     -43.045 -52.772  13.245  1.00  0.00    -0.200 N 
HETATM    2  C   UNL     1     -42.223 -51.738  12.614  1.00  0.00     0.168 C 
HETATM    3  C   UNL     1     -41.098 -52.422  11.821  1.00  0.00     0.188 C 
HETATM    4  O   UNL     1     -40.315 -53.293  12.656  1.00  0.00    -0.387 OA
HETATM    5  C   UNL     1     -41.158 -54.319  13.229  1.00  0.00     0.203 C 
HETATM    6  C   UNL     1     -42.272 -53.701  14.100  1.00  0.00     0.217 C 
ENDROOT
BRANCH   1   7
HETATM    7  C   UNL     1     -44.365 -52.470  13.466  1.00  0.00     0.681 A 
HETATM    8  N   UNL     1     -45.190 -52.440  12.415  1.00  0.00    -0.196 N 
HETATM    9  C   UNL     1     -46.414 -51.892  12.575  1.00  0.00     0.024 A 
ATOM     10  HN  UNL     1     -44.903 -52.822  11.514  1.00  0.00     0.184 HD
HETATM   11  C   UNL     1     -46.859 -51.429  13.793  1.00  0.00     0.050 A 
HETATM   12  C   UNL     1     -47.241 -51.728  11.337  1.00  0.00     0.068 C 
HETATM   13  C   UNL     1     -45.982 -51.554  14.845  1.00  0.00     0.024 A 
HETATM   14  C   UNL     1     -46.344 -51.087  16.221  1.00  0.00     0.068 C 
HETATM   15  N   UNL     1     -44.742 -52.064  14.688  1.00  0.00    -0.196 N 
ATOM     16  HN  UNL     1     -44.106 -52.139  15.481  1.00  0.00     0.184 HD
ENDBRANCH   1   7
BRANCH   6  17
HETATM   17  C   UNL     1     -43.048 -54.830  14.791  1.00  0.00     0.241 C 
HETATM   18  O   UNL     1     -44.152 -55.238  14.441  1.00  0.00    -0.271 OA
HETATM   19  N   UNL     1     -42.376 -55.458  15.811  1.00  0.00    -0.368 N 
HETATM   20  H   UNL     1     -41.696 -54.926  16.338  1.00  0.00     0.159 HD
HETATM   21  H   UNL     1     -42.934 -56.118  16.336  1.00  0.00     0.159 HD
ENDBRANCH   6  17
TORSDOF 2
ENDMDL
MODEL 4
REMARK VINA RESULT:      -5.4      1.442      3.391
REMARK  2 active torsions:
REMARK  status: ('A' for Active; 'I' for Inactive)
REMARK    1  A    between atoms: C_8  and  N_11 
REMARK    2  A    between atoms: C_16  and  C_17 
REMARK       I    between atoms: C_17  and  N_19 
ROOT
HETATM    1  N   UNL     1     -42.673 -51.718  13.224  1.00  0.00    -0.200 N 
HETATM    2  C   UNL     1     -41.757 -50.584  13.102  1.00  0.00     0.168 C 
HETATM    3  C   UNL     1     -40.607 -50.978  12.161  1.00  0.00     0.188 C 
HETATM    4  O   UNL     1     -39.933 -52.165  12.615  1.00  0.00    -0.387 OA
HETATM    5  C   UNL     1     -40.866 -53.267  12.686  1.00  0.00     0.203 C 
HETATM    6  C   UNL     1     -42.013 -52.964  13.674  1.00  0.00     0.217 C 
ENDROOT
BRANCH   1   7
HETATM    7  C   UNL     1     -43.990 -51.431  13.479  1.00  0.00     0.681 A 
HETATM    8  N   UNL     1     -44.340 -51.142  14.737  1.00  0.00    -0.196 N 
HETATM    9  C   UNL     1     -45.653 -51.120  15.048  1.00  0.00     0.024 A 
ATOM     10  HN  UNL     1     -43.633 -50.941  15.443  1.00  0.00     0.184 HD
HETATM   11  C   UNL     1     -46.637 -51.319  14.105  1.00  0.00     0.050 A 
HETATM   12  C   UNL     1     -45.996 -50.957  16.497  1.00  0.00     0.068 C 
HETATM   13  C   UNL     1     -46.204 -51.544  12.818  1.00  0.00     0.024 A 
HETATM   14  C   UNL     1     -47.173 -51.777  11.700  1.00  0.00     0.068 C 
HETATM   15  N   UNL     1     -44.894 -51.607  12.504  1.00  0.00    -0.196 N 
ATOM     16  HN  UNL     1     -44.596 -51.784  11.544  1.00  0.00     0.184 HD
ENDBRANCH   1   7
BRANCH   6  17
HETATM   17  C   UNL     1     -42.892 -54.215  13.814  1.00  0.00     0.241 C 
HETATM   18  O   UNL     1     -43.756 -54.556  13.011  1.00  0.00    -0.271 OA
HETATM   19  N   UNL     1     -42.588 -55.022  14.881  1.00  0.00    -0.368 N 
HETATM   20  H   UNL     1     -42.192 -54.598  15.709  1.00  0.00     0.159 HD
HETATM   21  H   UNL     1     -43.244 -55.777  15.035  1.00  0.00     0.159 HD
ENDBRANCH   6  17
TORSDOF 2
ENDMDL
MODEL 5
REMARK VINA RESULT:      -5.4      2.083      5.200
REMARK  2 active torsions:
REMARK  status: ('A' for Active; 'I' for Inactive)
REMARK    1  A    between atoms: C_8  and  N_11 
REMARK    2  A    between atoms: C_16  and  C_17 
REMARK       I    between atoms: C_17  and  N_19 
ROOT
HETATM    1  N   UNL     1     -44.432 -51.352  14.109  1.00  0.00    -0.200 N 
HETATM    2  C   UNL     1     -44.310 -50.402  15.215  1.00  0.00     0.168 C 
HETATM    3  C   UNL     1     -45.245 -50.846  16.351  1.00  0.00     0.188 C 
HETATM    4  O   UNL     1     -46.605 -50.971  15.900  1.00  0.00    -0.387 OA
HETATM    5  C   UNL     1     -46.686 -51.945  14.834  1.00  0.00     0.203 C 
HETATM    6  C   UNL     1     -45.822 -51.522  13.627  1.00  0.00     0.217 C 
ENDROOT
BRANCH   1   7
HETATM    7  C   UNL     1     -43.333 -51.518  13.305  1.00  0.00     0.681 A 
HETATM    8  N   UNL     1     -42.712 -52.702  13.322  1.00  0.00    -0.196 N 
HETATM    9  C   UNL     1     -41.493 -52.796  12.751  1.00  0.00     0.024 A 
ATOM     10  HN  UNL     1     -43.149 -53.515  13.756  1.00  0.00     0.184 HD
HETATM   11  C   UNL     1     -40.904 -51.736  12.097  1.00  0.00     0.050 A 
HETATM   12  C   UNL     1     -40.763 -54.090  12.937  1.00  0.00     0.068 C 
HETATM   13  C   UNL     1     -41.630 -50.569  12.060  1.00  0.00     0.024 A 
HETATM   14  C   UNL     1     -41.101 -49.343  11.381  1.00  0.00     0.068 C 
HETATM   15  N   UNL     1     -42.832 -50.453  12.662  1.00  0.00    -0.196 N 
ATOM     16  HN  UNL     1     -43.349 -49.574  12.629  1.00  0.00     0.184 HD
ENDBRANCH   1   7
BRANCH   6  17
HETATM   17  C   UNL     1     -46.051 -52.514  12.479  1.00  0.00     0.241 C 
HETATM   18  O   UNL     1     -45.636 -53.669  12.458  1.00  0.00    -0.271 OA
HETATM   19  N   UNL     1     -46.862 -52.057  11.470  1.00  0.00    -0.368 N 
HETATM   20  H   UNL     1     -46.883 -51.064  11.280  1.00  0.00     0.159 HD
HETATM   21  H   UNL     1     -46.913 -52.668  10.665  1.00  0.00     0.159 HD
ENDBRANCH   6  17
TORSDOF 2
ENDMDL
MODEL 6
REMARK VINA RESULT:      -5.4      3.241      5.596
REMARK  2 active torsions:
REMARK  status: ('A' for Active; 'I' for Inactive)
REMARK    1  A    between atoms: C_8  and  N_11 
REMARK    2  A    between atoms: C_16  and  C_17 
REMARK       I    between atoms: C_17  and  N_19 
ROOT
HETATM    1  N   UNL     1     -40.265 -49.172  11.644  1.00  0.00    -0.200 N 
HETATM    2  C   UNL     1     -38.831 -48.918  11.782  1.00  0.00     0.168 C 
HETATM    3  C   UNL     1     -38.079 -50.251  11.637  1.00  0.00     0.188 C 
HETATM    4  O   UNL     1     -38.544 -51.228  12.585  1.00  0.00    -0.387 OA
HETATM    5  C   UNL     1     -39.956 -51.474  12.390  1.00  0.00     0.203 C 
HETATM    6  C   UNL     1     -40.779 -50.185  12.593  1.00  0.00     0.217 C 
ENDROOT
BRANCH   1   7
HETATM    7  C   UNL     1     -41.034 -48.150  11.146  1.00  0.00     0.681 A 
HETATM    8  N   UNL     1     -41.212 -47.066  11.908  1.00  0.00    -0.196 N 
HETATM    9  C   UNL     1     -42.168 -46.181  11.552  1.00  0.00     0.024 A 
ATOM     10  HN  UNL     1     -40.640 -46.911  12.738  1.00  0.00     0.184 HD
HETATM   11  C   UNL     1     -42.912 -46.325  10.402  1.00  0.00     0.050 A 
HETATM   12  C   UNL     1     -42.447 -45.072  12.518  1.00  0.00     0.068 C 
HETATM   13  C   UNL     1     -42.627 -47.428   9.631  1.00  0.00     0.024 A 
HETATM   14  C   UNL     1     -43.366 -47.701   8.357  1.00  0.00     0.068 C 
HETATM   15  N   UNL     1     -41.701 -48.340   9.998  1.00  0.00    -0.196 N 
ATOM     16  HN  UNL     1     -41.513 -49.155   9.415  1.00  0.00     0.184 HD
ENDBRANCH   1   7
BRANCH   6  17
HETATM   17  C   UNL     1     -42.272 -50.531  12.511  1.00  0.00     0.241 C 
HETATM   18  O   UNL     1     -43.187 -49.738  12.716  1.00  0.00    -0.271 OA
HETATM   19  N   UNL     1     -42.551 -51.806  12.085  1.00  0.00    -0.368 N 
HETATM   20  H   UNL     1     -41.881 -52.537  12.283  1.00  0.00     0.159 HD
HETATM   21  H   UNL     1     -43.527 -52.064  12.147  1.00  0.00     0.159 HD
ENDBRANCH   6  17
TORSDOF 2
ENDMDL
MODEL 7
REMARK VINA RESULT:      -5.3      3.643      5.734
REMARK  2 active torsions:
REMARK  status: ('A' for Active; 'I' for Inactive)
REMARK    1  A    between atoms: C_8  and  N_11 
REMARK    2  A    between atoms: C_16  and  C_17 
REMARK       I    between atoms: C_17  and  N_19 
ROOT
HETATM    1  N   UNL     1     -40.779 -49.923  12.082  1.00  0.00    -0.200 N 
HETATM    2  C   UNL     1     -41.941 -50.766  12.362  1.00  0.00     0.168 C 
HETATM    3  C   UNL     1     -41.682 -51.544  13.663  1.00  0.00     0.188 C 
HETATM    4  O   UNL     1     -40.468 -52.312  13.588  1.00  0.00    -0.387 OA
HETATM    5  C   UNL     1     -39.343 -51.436  13.346  1.00  0.00     0.203 C 
HETATM    6  C   UNL     1     -39.506 -50.675  12.014  1.00  0.00     0.217 C 
ENDROOT
BRANCH   1   7
HETATM    7  C   UNL     1     -41.004 -48.763  11.384  1.00  0.00     0.681 A 
HETATM    8  N   UNL     1     -40.350 -47.661  11.763  1.00  0.00    -0.196 N 
HETATM    9  C   UNL     1     -40.754 -46.472  11.268  1.00  0.00     0.024 A 
ATOM     10  HN  UNL     1     -39.565 -47.717  12.411  1.00  0.00     0.184 HD
HETATM   11  C   UNL     1     -41.766 -46.368  10.339  1.00  0.00     0.050 A 
HETATM   12  C   UNL     1     -40.106 -45.251  11.844  1.00  0.00     0.068 C 
HETATM   13  C   UNL     1     -42.347 -47.549   9.943  1.00  0.00     0.024 A 
HETATM   14  C   UNL     1     -43.460 -47.572   8.940  1.00  0.00     0.068 C 
HETATM   15  N   UNL     1     -41.979 -48.739  10.462  1.00  0.00    -0.196 N 
ATOM     16  HN  UNL     1     -42.431 -49.602  10.159  1.00  0.00     0.184 HD
ENDBRANCH   1   7
BRANCH   6  17
HETATM   17  C   UNL     1     -38.228 -49.871  11.741  1.00  0.00     0.241 C 
HETATM   18  O   UNL     1     -37.683 -49.126  12.551  1.00  0.00    -0.271 OA
HETATM   19  N   UNL     1     -37.642 -50.106  10.522  1.00  0.00    -0.368 N 
HETATM   20  H   UNL     1     -38.232 -50.379   9.748  1.00  0.00     0.159 HD
HETATM   21  H   UNL     1     -36.871 -49.489  10.302  1.00  0.00     0.159 HD
ENDBRANCH   6  17
TORSDOF 2
ENDMDL
MODEL 8
REMARK VINA RESULT:      -5.3      3.094      5.982
REMARK  2 active torsions:
REMARK  status: ('A' for Active; 'I' for Inactive)
REMARK    1  A    between atoms: C_8  and  N_11 
REMARK    2  A    between atoms: C_16  and  C_17 
REMARK       I    between atoms: C_17  and  N_19 
ROOT
HETATM    1  N   UNL     1     -40.958 -52.152  13.079  1.00  0.00    -0.200 N 
HETATM    2  C   UNL     1     -42.117 -51.872  12.231  1.00  0.00     0.168 C 
HETATM    3  C   UNL     1     -43.334 -52.619  12.799  1.00  0.00     0.188 C 
HETATM    4  O   UNL     1     -43.083 -54.031  12.915  1.00  0.00    -0.387 OA
HETATM    5  C   UNL     1     -41.955 -54.263  13.789  1.00  0.00     0.203 C 
HETATM    6  C   UNL     1     -40.677 -53.597  13.237  1.00  0.00     0.217 C 
ENDROOT
BRANCH   1   7
HETATM    7  C   UNL     1     -39.986 -51.186  13.145  1.00  0.00     0.681 A 
HETATM    8  N   UNL     1     -39.252 -50.953  12.052  1.00  0.00    -0.196 N 
HETATM    9  C   UNL     1     -38.133 -50.208  12.176  1.00  0.00     0.024 A 
ATOM     10  HN  UNL     1     -39.531 -51.329  11.146  1.00  0.00     0.184 HD
HETATM   11  C   UNL     1     -37.764 -49.629  13.370  1.00  0.00     0.050 A 
HETATM   12  C   UNL     1     -37.255 -50.111  10.967  1.00  0.00     0.068 C 
HETATM   13  C   UNL     1     -38.603 -49.854  14.437  1.00  0.00     0.024 A 
HETATM   14  C   UNL     1     -38.313 -49.282  15.790  1.00  0.00     0.068 C 
HETATM   15  N   UNL     1     -39.702 -50.630  14.333  1.00  0.00    -0.196 N 
ATOM     16  HN  UNL     1     -40.305 -50.791  15.140  1.00  0.00     0.184 HD
ENDBRANCH   1   7
BRANCH   6  17
HETATM   17  C   UNL     1     -39.488 -53.989  14.125  1.00  0.00     0.241 C 
HETATM   18  O   UNL     1     -39.249 -53.505  15.228  1.00  0.00    -0.271 OA
HETATM   19  N   UNL     1     -38.722 -55.022  13.648  1.00  0.00    -0.368 N 
HETATM   20  H   UNL     1     -38.659 -55.154  12.647  1.00  0.00     0.159 HD
HETATM   21  H   UNL     1     -37.876 -55.196  14.176  1.00  0.00     0.159 HD
ENDBRANCH   6  17
TORSDOF 2
ENDMDL
MODEL 9
REMARK VINA RESULT:      -5.3      2.417      4.425
REMARK  2 active torsions:
REMARK  status: ('A' for Active; 'I' for Inactive)
REMARK    1  A    between atoms: C_8  and  N_11 
REMARK    2  A    between atoms: C_16  and  C_17 
REMARK       I    between atoms: C_17  and  N_19 
ROOT
HETATM    1  N   UNL     1     -44.076 -51.673  13.149  1.00  0.00    -0.200 N 
HETATM    2  C   UNL     1     -45.536 -51.745  13.097  1.00  0.00     0.168 C 
HETATM    3  C   UNL     1     -45.981 -53.109  13.650  1.00  0.00     0.188 C 
HETATM    4  O   UNL     1     -45.364 -54.196  12.938  1.00  0.00    -0.387 OA
HETATM    5  C   UNL     1     -43.925 -54.106  13.046  1.00  0.00     0.203 C 
HETATM    6  C   UNL     1     -43.403 -52.785  12.440  1.00  0.00     0.217 C 
ENDROOT
BRANCH   1   7
HETATM    7  C   UNL     1     -43.518 -50.427  13.291  1.00  0.00     0.681 A 
HETATM    8  N   UNL     1     -43.252 -49.992  14.527  1.00  0.00    -0.196 N 
HETATM    9  C   UNL     1     -42.958 -48.686  14.698  1.00  0.00     0.024 A 
ATOM     10  HN  UNL     1     -43.271 -50.631  15.321  1.00  0.00     0.184 HD
HETATM   11  C   UNL     1     -42.856 -47.810  13.640  1.00  0.00     0.050 A 
HETATM   12  C   UNL     1     -42.831 -48.207  16.111  1.00  0.00     0.068 C 
HETATM   13  C   UNL     1     -43.075 -48.342  12.390  1.00  0.00     0.024 A 
HETATM   14  C   UNL     1     -42.997 -47.495  11.158  1.00  0.00     0.068 C 
HETATM   15  N   UNL     1     -43.409 -49.637  12.212  1.00  0.00    -0.196 N 
ATOM     16  HN  UNL     1     -43.576 -50.008  11.276  1.00  0.00     0.184 HD
ENDBRANCH   1   7
BRANCH   6  17
HETATM   17  C   UNL     1     -41.869 -52.803  12.456  1.00  0.00     0.241 C 
HETATM   18  O   UNL     1     -41.182 -53.102  13.429  1.00  0.00    -0.271 OA
HETATM   19  N   UNL     1     -41.272 -52.549  11.246  1.00  0.00    -0.368 N 
HETATM   20  H   UNL     1     -41.756 -51.955  10.586  1.00  0.00     0.159 HD
HETATM   21  H   UNL     1     -40.266 -52.446  11.289  1.00  0.00     0.159 HD
ENDBRANCH   6  17
TORSDOF 2
ENDMDL
