MODEL 1
REMARK VINA RESULT:      -5.5      0.000      0.000
REMARK  6 active torsions:
REMARK  status: ('A' for Active; 'I' for Inactive)
REMARK    1  A    between atoms: S_2  and  C_3 
REMARK    2  A    between atoms: C_6  and  N_7 
REMARK       I    between atoms: N_7  and  C_8 
REMARK    3  A    between atoms: C_8  and  C_10 
REMARK    4  A    between atoms: C_10  and  O_12 
REMARK    5  A    between atoms: O_12  and  C_13 
REMARK    6  A    between atoms: C_13  and  C_14 
ROOT
HETATM    1  N   UNL     1     -43.083 -52.887  13.650  1.00  0.00    -0.324 N 
HETATM    2  C   UNL     1     -44.108 -53.737  13.265  1.00  0.00     0.250 C 
HETATM    3  O   UNL     1     -44.783 -53.633  12.244  1.00  0.00    -0.270 OA
HETATM    4  H   UNL     1     -42.538 -53.170  14.457  1.00  0.00     0.169 HD
ENDROOT
BRANCH   1   5
HETATM    5  C   UNL     1     -42.724 -51.681  13.017  1.00  0.00     0.050 A 
HETATM    6  C   UNL     1     -43.361 -50.468  13.259  1.00  0.00     0.034 A 
HETATM    7  C   UNL     1     -42.925 -49.312  12.613  1.00  0.00     0.039 A 
HETATM    8  C   UNL     1     -41.858 -49.395  11.729  1.00  0.00     0.069 A 
HETATM    9  N   UNL     1     -41.214 -50.555  11.475  1.00  0.00    -0.358 N 
HETATM   10  C   UNL     1     -41.654 -51.662  12.125  1.00  0.00     0.118 A 
ATOM     11  HN  UNL     1     -40.432 -50.597  10.823  1.00  0.00     0.166 HD
BRANCH   8  12
HETATM   12  S   UNL     1     -41.317 -47.905  10.911  1.00  0.00    -0.117 SA
HETATM   13  C   UNL     1     -42.714 -47.621   9.797  1.00  0.00     0.097 C 
ENDBRANCH   8  12
ENDBRANCH   1   5
BRANCH   2  14
HETATM   14  C   UNL     1     -44.373 -54.876  14.262  1.00  0.00     0.209 C 
HETATM   15  C   UNL     1     -43.331 -54.865  15.374  1.00  0.00     0.050 C 
BRANCH  14  16
HETATM   16  O   UNL     1     -45.672 -54.773  14.851  1.00  0.00    -0.376 OA
BRANCH  16  17
HETATM   17  C   UNL     1     -45.775 -53.617  15.693  1.00  0.00     0.173 C 
BRANCH  17  18
HETATM   18  C   UNL     1     -46.933 -52.794  15.232  1.00  0.00     0.009 A 
HETATM   19  C   UNL     1     -46.691 -51.460  14.571  1.00  0.00     0.007 A 
HETATM   20  C   UNL     1     -47.307 -51.517  15.940  1.00  0.00     0.007 A 
ENDBRANCH  17  18
ENDBRANCH  16  17
ENDBRANCH  14  16
ENDBRANCH   2  14
TORSDOF 6
ENDMDL
MODEL 2
REMARK VINA RESULT:      -5.3      2.002      2.384
REMARK  6 active torsions:
REMARK  status: ('A' for Active; 'I' for Inactive)
REMARK    1  A    between atoms: S_2  and  C_3 
REMARK    2  A    between atoms: C_6  and  N_7 
REMARK       I    between atoms: N_7  and  C_8 
REMARK    3  A    between atoms: C_8  and  C_10 
REMARK    4  A    between atoms: C_10  and  O_12 
REMARK    5  A    between atoms: O_12  and  C_13 
REMARK    6  A    between atoms: C_13  and  C_14 
ROOT
HETATM    1  N   UNL     1     -43.306 -52.173  12.545  1.00  0.00    -0.324 N 
HETATM    2  C   UNL     1     -43.547 -53.350  13.234  1.00  0.00     0.250 C 
HETATM    3  O   UNL     1     -42.816 -53.845  14.089  1.00  0.00    -0.270 OA
HETATM    4  H   UNL     1     -44.059 -51.830  11.956  1.00  0.00     0.169 HD
ENDROOT
BRANCH   1   5
HETATM    5  C   UNL     1     -42.125 -51.406  12.598  1.00  0.00     0.050 A 
HETATM    6  C   UNL     1     -41.965 -50.300  13.426  1.00  0.00     0.034 A 
HETATM    7  C   UNL     1     -40.752 -49.613  13.441  1.00  0.00     0.039 A 
HETATM    8  C   UNL     1     -39.720 -50.046  12.619  1.00  0.00     0.069 A 
HETATM    9  N   UNL     1     -39.841 -51.119  11.808  1.00  0.00    -0.358 N 
HETATM   10  C   UNL     1     -41.029 -51.774  11.821  1.00  0.00     0.118 A 
ATOM     11  HN  UNL     1     -39.073 -51.424  11.211  1.00  0.00     0.166 HD
BRANCH   8  12
HETATM   12  S   UNL     1     -38.177 -49.151  12.651  1.00  0.00    -0.117 SA
HETATM   13  C   UNL     1     -37.334 -49.908  11.241  1.00  0.00     0.097 C 
ENDBRANCH   8  12
ENDBRANCH   1   5
BRANCH   2  14
HETATM   14  C   UNL     1     -44.854 -54.049  12.826  1.00  0.00     0.209 C 
HETATM   15  C   UNL     1     -45.247 -55.092  13.867  1.00  0.00     0.050 C 
BRANCH  14  16
HETATM   16  O   UNL     1     -45.929 -53.119  12.681  1.00  0.00    -0.376 OA
BRANCH  16  17
HETATM   17  C   UNL     1     -46.690 -53.004  13.891  1.00  0.00     0.173 C 
BRANCH  17  18
HETATM   18  C   UNL     1     -46.622 -51.590  14.364  1.00  0.00     0.009 A 
HETATM   19  C   UNL     1     -45.635 -51.203  15.437  1.00  0.00     0.007 A 
HETATM   20  C   UNL     1     -47.107 -51.209  15.740  1.00  0.00     0.007 A 
ENDBRANCH  17  18
ENDBRANCH  16  17
ENDBRANCH  14  16
ENDBRANCH   2  14
TORSDOF 6
ENDMDL
MODEL 3
REMARK VINA RESULT:      -5.0      4.577      6.566
REMARK  6 active torsions:
REMARK  status: ('A' for Active; 'I' for Inactive)
REMARK    1  A    between atoms: S_2  and  C_3 
REMARK    2  A    between atoms: C_6  and  N_7 
REMARK       I    between atoms: N_7  and  C_8 
REMARK    3  A    between atoms: C_8  and  C_10 
REMARK    4  A    between atoms: C_10  and  O_12 
REMARK    5  A    between atoms: O_12  and  C_13 
REMARK    6  A    between atoms: C_13  and  C_14 
ROOT
HETATM    1  N   UNL     1     -42.568 -49.886  12.028  1.00  0.00    -0.324 N 
HETATM    2  C   UNL     1     -42.123 -48.833  11.247  1.00  0.00     0.250 C 
HETATM    3  O   UNL     1     -40.996 -48.715  10.771  1.00  0.00    -0.270 OA
HETATM    4  H   UNL     1     -43.559 -49.903  12.247  1.00  0.00     0.169 HD
ENDROOT
BRANCH   1   5
HETATM    5  C   UNL     1     -41.777 -50.938  12.532  1.00  0.00     0.050 A 
HETATM    6  C   UNL     1     -41.113 -50.881  13.752  1.00  0.00     0.034 A 
HETATM    7  C   UNL     1     -40.374 -51.979  14.194  1.00  0.00     0.039 A 
HETATM    8  C   UNL     1     -40.309 -53.113  13.397  1.00  0.00     0.069 A 
HETATM    9  N   UNL     1     -40.946 -53.203  12.209  1.00  0.00    -0.358 N 
HETATM   10  C   UNL     1     -41.666 -52.124  11.810  1.00  0.00     0.118 A 
ATOM     11  HN  UNL     1     -40.888 -54.045  11.637  1.00  0.00     0.166 HD
BRANCH   8  12
HETATM   12  S   UNL     1     -39.356 -54.505  13.978  1.00  0.00    -0.117 SA
HETATM   13  C   UNL     1     -39.857 -54.538  15.716  1.00  0.00     0.097 C 
ENDBRANCH   8  12
ENDBRANCH   1   5
BRANCH   2  14
HETATM   14  C   UNL     1     -43.185 -47.747  11.010  1.00  0.00     0.209 C 
HETATM   15  C   UNL     1     -43.091 -46.668  12.083  1.00  0.00     0.050 C 
BRANCH  14  16
HETATM   16  O   UNL     1     -43.038 -47.132   9.728  1.00  0.00    -0.376 OA
BRANCH  16  17
HETATM   17  C   UNL     1     -44.029 -47.601   8.805  1.00  0.00     0.173 C 
BRANCH  17  18
HETATM   18  C   UNL     1     -45.344 -47.663   9.509  1.00  0.00     0.009 A 
HETATM   19  C   UNL     1     -46.518 -48.346   8.851  1.00  0.00     0.007 A 
HETATM   20  C   UNL     1     -46.521 -46.854   9.027  1.00  0.00     0.007 A 
ENDBRANCH  17  18
ENDBRANCH  16  17
ENDBRANCH  14  16
ENDBRANCH   2  14
TORSDOF 6
ENDMDL
MODEL 4
REMARK VINA RESULT:      -4.9      2.365      3.296
REMARK  6 active torsions:
REMARK  status: ('A' for Active; 'I' for Inactive)
REMARK    1  A    between atoms: S_2  and  C_3 
REMARK    2  A    between atoms: C_6  and  N_7 
REMARK       I    between atoms: N_7  and  C_8 
REMARK    3  A    between atoms: C_8  and  C_10 
REMARK    4  A    between atoms: C_10  and  O_12 
REMARK    5  A    between atoms: O_12  and  C_13 
REMARK    6  A    between atoms: C_13  and  C_14 
ROOT
HETATM    1  N   UNL     1     -42.413 -50.295  11.883  1.00  0.00    -0.324 N 
HETATM    2  C   UNL     1     -41.796 -51.157  12.775  1.00  0.00     0.250 C 
HETATM    3  O   UNL     1     -40.974 -50.839  13.631  1.00  0.00    -0.270 OA
HETATM    4  H   UNL     1     -43.159 -50.686  11.315  1.00  0.00     0.169 HD
ENDROOT
BRANCH   1   5
HETATM    5  C   UNL     1     -42.110 -48.931  11.703  1.00  0.00     0.050 A 
HETATM    6  C   UNL     1     -42.812 -47.902  12.321  1.00  0.00     0.034 A 
HETATM    7  C   UNL     1     -42.429 -46.577  12.114  1.00  0.00     0.039 A 
HETATM    8  C   UNL     1     -41.350 -46.308  11.283  1.00  0.00     0.069 A 
HETATM    9  N   UNL     1     -40.645 -47.284  10.672  1.00  0.00    -0.358 N 
HETATM   10  C   UNL     1     -41.033 -48.564  10.899  1.00  0.00     0.118 A 
ATOM     11  HN  UNL     1     -39.854 -47.068  10.065  1.00  0.00     0.166 HD
BRANCH   8  12
HETATM   12  S   UNL     1     -40.879 -44.606  11.028  1.00  0.00    -0.117 SA
HETATM   13  C   UNL     1     -39.461 -44.824   9.927  1.00  0.00     0.097 C 
ENDBRANCH   8  12
ENDBRANCH   1   5
BRANCH   2  14
HETATM   14  C   UNL     1     -42.217 -52.626  12.607  1.00  0.00     0.209 C 
HETATM   15  C   UNL     1     -41.989 -53.397  13.902  1.00  0.00     0.050 C 
BRANCH  14  16
HETATM   16  O   UNL     1     -43.594 -52.744  12.240  1.00  0.00    -0.376 OA
BRANCH  16  17
HETATM   17  C   UNL     1     -44.445 -52.746  13.393  1.00  0.00     0.173 C 
BRANCH  17  18
HETATM   18  C   UNL     1     -45.335 -51.549  13.331  1.00  0.00     0.009 A 
HETATM   19  C   UNL     1     -46.595 -51.503  14.159  1.00  0.00     0.007 A 
HETATM   20  C   UNL     1     -46.685 -51.620  12.663  1.00  0.00     0.007 A 
ENDBRANCH  17  18
ENDBRANCH  16  17
ENDBRANCH  14  16
ENDBRANCH   2  14
TORSDOF 6
ENDMDL
MODEL 5
REMARK VINA RESULT:      -4.9      2.530      3.898
REMARK  6 active torsions:
REMARK  status: ('A' for Active; 'I' for Inactive)
REMARK    1  A    between atoms: S_2  and  C_3 
REMARK    2  A    between atoms: C_6  and  N_7 
REMARK       I    between atoms: N_7  and  C_8 
REMARK    3  A    between atoms: C_8  and  C_10 
REMARK    4  A    between atoms: C_10  and  O_12 
REMARK    5  A    between atoms: O_12  and  C_13 
REMARK    6  A    between atoms: C_13  and  C_14 
ROOT
HETATM    1  N   UNL     1     -41.738 -50.332  11.911  1.00  0.00    -0.324 N 
HETATM    2  C   UNL     1     -40.969 -51.470  12.090  1.00  0.00     0.250 C 
HETATM    3  O   UNL     1     -39.742 -51.508  12.143  1.00  0.00    -0.270 OA
HETATM    4  H   UNL     1     -42.743 -50.443  12.009  1.00  0.00     0.169 HD
ENDROOT
BRANCH   1   5
HETATM    5  C   UNL     1     -41.255 -49.041  11.621  1.00  0.00     0.050 A 
HETATM    6  C   UNL     1     -40.298 -48.389  12.391  1.00  0.00     0.034 A 
HETATM    7  C   UNL     1     -39.850 -47.122  12.019  1.00  0.00     0.039 A 
HETATM    8  C   UNL     1     -40.377 -46.528  10.880  1.00  0.00     0.069 A 
HETATM    9  N   UNL     1     -41.303 -47.136  10.107  1.00  0.00    -0.358 N 
HETATM   10  C   UNL     1     -41.713 -48.372  10.488  1.00  0.00     0.118 A 
ATOM     11  HN  UNL     1     -41.678 -46.685   9.273  1.00  0.00     0.166 HD
BRANCH   8  12
HETATM   12  S   UNL     1     -39.793 -44.906  10.422  1.00  0.00    -0.117 SA
HETATM   13  C   UNL     1     -40.935 -43.871  11.368  1.00  0.00     0.097 C 
ENDBRANCH   8  12
ENDBRANCH   1   5
BRANCH   2  14
HETATM   14  C   UNL     1     -41.793 -52.762  12.208  1.00  0.00     0.209 C 
HETATM   15  C   UNL     1     -40.926 -53.901  12.731  1.00  0.00     0.050 C 
BRANCH  14  16
HETATM   16  O   UNL     1     -42.912 -52.598  13.084  1.00  0.00    -0.376 OA
BRANCH  16  17
HETATM   17  C   UNL     1     -44.123 -53.072  12.482  1.00  0.00     0.173 C 
BRANCH  17  18
HETATM   18  C   UNL     1     -44.412 -54.440  13.006  1.00  0.00     0.009 A 
HETATM   19  C   UNL     1     -45.593 -54.663  13.918  1.00  0.00     0.007 A 
HETATM   20  C   UNL     1     -44.196 -54.775  14.460  1.00  0.00     0.007 A 
ENDBRANCH  17  18
ENDBRANCH  16  17
ENDBRANCH  14  16
ENDBRANCH   2  14
TORSDOF 6
ENDMDL
MODEL 6
REMARK VINA RESULT:      -4.9      4.159      7.474
REMARK  6 active torsions:
REMARK  status: ('A' for Active; 'I' for Inactive)
REMARK    1  A    between atoms: S_2  and  C_3 
REMARK    2  A    between atoms: C_6  and  N_7 
REMARK       I    between atoms: N_7  and  C_8 
REMARK    3  A    between atoms: C_8  and  C_10 
REMARK    4  A    between atoms: C_10  and  O_12 
REMARK    5  A    between atoms: O_12  and  C_13 
REMARK    6  A    between atoms: C_13  and  C_14 
ROOT
HETATM    1  N   UNL     1     -41.085 -47.699  10.778  1.00  0.00    -0.324 N 
HETATM    2  C   UNL     1     -40.929 -46.521  11.489  1.00  0.00     0.250 C 
HETATM    3  O   UNL     1     -40.820 -46.426  12.710  1.00  0.00    -0.270 OA
HETATM    4  H   UNL     1     -41.041 -47.628   9.766  1.00  0.00     0.169 HD
ENDROOT
BRANCH   1   5
HETATM    5  C   UNL     1     -41.285 -48.981  11.328  1.00  0.00     0.050 A 
HETATM    6  C   UNL     1     -42.359 -49.303  12.151  1.00  0.00     0.034 A 
HETATM    7  C   UNL     1     -42.501 -50.604  12.631  1.00  0.00     0.039 A 
HETATM    8  C   UNL     1     -41.558 -51.560  12.281  1.00  0.00     0.069 A 
HETATM    9  N   UNL     1     -40.507 -51.282  11.480  1.00  0.00    -0.358 N 
HETATM   10  C   UNL     1     -40.399 -50.010  11.019  1.00  0.00     0.118 A 
ATOM     11  HN  UNL     1     -39.823 -51.996  11.232  1.00  0.00     0.166 HD
BRANCH   8  12
HETATM   12  S   UNL     1     -41.756 -53.218  12.908  1.00  0.00    -0.117 SA
HETATM   13  C   UNL     1     -43.545 -53.418  12.734  1.00  0.00     0.097 C 
ENDBRANCH   8  12
ENDBRANCH   1   5
BRANCH   2  14
HETATM   14  C   UNL     1     -40.916 -45.263  10.606  1.00  0.00     0.209 C 
HETATM   15  C   UNL     1     -39.515 -45.007  10.064  1.00  0.00     0.050 C 
BRANCH  14  16
HETATM   16  O   UNL     1     -41.820 -45.379   9.504  1.00  0.00    -0.376 OA
BRANCH  16  17
HETATM   17  C   UNL     1     -43.185 -45.306   9.936  1.00  0.00     0.173 C 
BRANCH  17  18
HETATM   18  C   UNL     1     -44.035 -46.041   8.953  1.00  0.00     0.009 A 
HETATM   19  C   UNL     1     -44.713 -47.327   9.358  1.00  0.00     0.007 A 
HETATM   20  C   UNL     1     -43.584 -47.354   8.366  1.00  0.00     0.007 A 
ENDBRANCH  17  18
ENDBRANCH  16  17
ENDBRANCH  14  16
ENDBRANCH   2  14
TORSDOF 6
ENDMDL
MODEL 7
REMARK VINA RESULT:      -4.9      4.802      5.940
REMARK  6 active torsions:
REMARK  status: ('A' for Active; 'I' for Inactive)
REMARK    1  A    between atoms: S_2  and  C_3 
REMARK    2  A    between atoms: C_6  and  N_7 
REMARK       I    between atoms: N_7  and  C_8 
REMARK    3  A    between atoms: C_8  and  C_10 
REMARK    4  A    between atoms: C_10  and  O_12 
REMARK    5  A    between atoms: O_12  and  C_13 
REMARK    6  A    between atoms: C_13  and  C_14 
ROOT
HETATM    1  N   UNL     1     -39.300 -49.411  12.586  1.00  0.00    -0.324 N 
HETATM    2  C   UNL     1     -38.145 -50.015  12.119  1.00  0.00     0.250 C 
HETATM    3  O   UNL     1     -37.657 -49.869  11.001  1.00  0.00    -0.270 OA
HETATM    4  H   UNL     1     -39.512 -49.534  13.571  1.00  0.00     0.169 HD
ENDROOT
BRANCH   1   5
HETATM    5  C   UNL     1     -40.195 -48.632  11.825  1.00  0.00     0.050 A 
HETATM    6  C   UNL     1     -40.015 -47.275  11.581  1.00  0.00     0.034 A 
HETATM    7  C   UNL     1     -40.933 -46.583  10.791  1.00  0.00     0.039 A 
HETATM    8  C   UNL     1     -42.021 -47.266  10.264  1.00  0.00     0.069 A 
HETATM    9  N   UNL     1     -42.221 -48.584  10.478  1.00  0.00    -0.358 N 
HETATM   10  C   UNL     1     -41.307 -49.234  11.241  1.00  0.00     0.118 A 
ATOM     11  HN  UNL     1     -43.026 -49.070  10.082  1.00  0.00     0.166 HD
BRANCH   8  12
HETATM   12  S   UNL     1     -43.184 -46.362   9.259  1.00  0.00    -0.117 SA
HETATM   13  C   UNL     1     -43.589 -47.618   8.023  1.00  0.00     0.097 C 
ENDBRANCH   8  12
ENDBRANCH   1   5
BRANCH   2  14
HETATM   14  C   UNL     1     -37.480 -50.950  13.143  1.00  0.00     0.209 C 
HETATM   15  C   UNL     1     -37.377 -50.266  14.501  1.00  0.00     0.050 C 
BRANCH  14  16
HETATM   16  O   UNL     1     -38.208 -52.170  13.298  1.00  0.00    -0.376 OA
BRANCH  16  17
HETATM   17  C   UNL     1     -38.808 -52.261  14.597  1.00  0.00     0.173 C 
BRANCH  17  18
HETATM   18  C   UNL     1     -40.067 -53.055  14.486  1.00  0.00     0.009 A 
HETATM   19  C   UNL     1     -40.110 -54.473  14.999  1.00  0.00     0.007 A 
HETATM   20  C   UNL     1     -40.174 -54.208  13.521  1.00  0.00     0.007 A 
ENDBRANCH  17  18
ENDBRANCH  16  17
ENDBRANCH  14  16
ENDBRANCH   2  14
TORSDOF 6
ENDMDL
MODEL 8
REMARK VINA RESULT:      -4.6      5.667      7.831
REMARK  6 active torsions:
REMARK  status: ('A' for Active; 'I' for Inactive)
REMARK    1  A    between atoms: S_2  and  C_3 
REMARK    2  A    between atoms: C_6  and  N_7 
REMARK       I    between atoms: N_7  and  C_8 
REMARK    3  A    between atoms: C_8  and  C_10 
REMARK    4  A    between atoms: C_10  and  O_12 
REMARK    5  A    between atoms: O_12  and  C_13 
REMARK    6  A    between atoms: C_13  and  C_14 
ROOT
HETATM    1  N   UNL     1     -39.950 -47.655  11.050  1.00  0.00    -0.324 N 
HETATM    2  C   UNL     1     -40.303 -46.446  11.626  1.00  0.00     0.250 C 
HETATM    3  O   UNL     1     -40.336 -46.205  12.830  1.00  0.00    -0.270 OA
HETATM    4  H   UNL     1     -39.854 -47.667  10.040  1.00  0.00     0.169 HD
ENDROOT
BRANCH   1   5
HETATM    5  C   UNL     1     -39.698 -48.860  11.737  1.00  0.00     0.050 A 
HETATM    6  C   UNL     1     -38.487 -49.152  12.354  1.00  0.00     0.034 A 
HETATM    7  C   UNL     1     -38.329 -50.356  13.040  1.00  0.00     0.039 A 
HETATM    8  C   UNL     1     -39.390 -51.249  13.091  1.00  0.00     0.069 A 
HETATM    9  N   UNL     1     -40.581 -50.993  12.508  1.00  0.00    -0.358 N 
HETATM   10  C   UNL     1     -40.710 -49.810  11.856  1.00  0.00     0.118 A 
ATOM     11  HN  UNL     1     -41.351 -51.660  12.556  1.00  0.00     0.166 HD
BRANCH   8  12
HETATM   12  S   UNL     1     -39.167 -52.784  13.972  1.00  0.00    -0.117 SA
HETATM   13  C   UNL     1     -38.880 -52.158  15.645  1.00  0.00     0.097 C 
ENDBRANCH   8  12
ENDBRANCH   1   5
BRANCH   2  14
HETATM   14  C   UNL     1     -40.692 -45.365  10.604  1.00  0.00     0.209 C 
HETATM   15  C   UNL     1     -39.453 -44.835   9.892  1.00  0.00     0.050 C 
BRANCH  14  16
HETATM   16  O   UNL     1     -41.605 -45.866   9.624  1.00  0.00    -0.376 OA
BRANCH  16  17
HETATM   17  C   UNL     1     -42.965 -45.724  10.054  1.00  0.00     0.173 C 
BRANCH  17  18
HETATM   18  C   UNL     1     -43.863 -46.151   8.940  1.00  0.00     0.009 A 
HETATM   19  C   UNL     1     -44.784 -47.331   9.126  1.00  0.00     0.007 A 
HETATM   20  C   UNL     1     -43.613 -47.435   8.190  1.00  0.00     0.007 A 
ENDBRANCH  17  18
ENDBRANCH  16  17
ENDBRANCH  14  16
ENDBRANCH   2  14
TORSDOF 6
ENDMDL
MODEL 9
REMARK VINA RESULT:      -4.6      4.327      6.373
REMARK  6 active torsions:
REMARK  status: ('A' for Active; 'I' for Inactive)
REMARK    1  A    between atoms: S_2  and  C_3 
REMARK    2  A    between atoms: C_6  and  N_7 
REMARK       I    between atoms: N_7  and  C_8 
REMARK    3  A    between atoms: C_8  and  C_10 
REMARK    4  A    between atoms: C_10  and  O_12 
REMARK    5  A    between atoms: O_12  and  C_13 
REMARK    6  A    between atoms: C_13  and  C_14 
ROOT
HETATM    1  N   UNL     1     -40.279 -48.277  11.041  1.00  0.00    -0.324 N 
HETATM    2  C   UNL     1     -39.618 -48.950  12.055  1.00  0.00     0.250 C 
HETATM    3  O   UNL     1     -39.518 -48.575  13.221  1.00  0.00    -0.270 OA
HETATM    4  H   UNL     1     -40.379 -48.770  10.159  1.00  0.00     0.169 HD
ENDROOT
BRANCH   1   5
HETATM    5  C   UNL     1     -40.833 -46.984  11.126  1.00  0.00     0.050 A 
HETATM    6  C   UNL     1     -40.079 -45.819  11.040  1.00  0.00     0.034 A 
HETATM    7  C   UNL     1     -40.709 -44.577  11.103  1.00  0.00     0.039 A 
HETATM    8  C   UNL     1     -42.087 -44.525  11.259  1.00  0.00     0.069 A 
HETATM    9  N   UNL     1     -42.849 -45.638  11.340  1.00  0.00    -0.358 N 
HETATM   10  C   UNL     1     -42.211 -46.833  11.265  1.00  0.00     0.118 A 
ATOM     11  HN  UNL     1     -43.861 -45.582  11.453  1.00  0.00     0.166 HD
BRANCH   8  12
HETATM   12  S   UNL     1     -42.873 -42.927  11.341  1.00  0.00    -0.117 SA
HETATM   13  C   UNL     1     -41.420 -41.850  11.321  1.00  0.00     0.097 C 
ENDBRANCH   8  12
ENDBRANCH   1   5
BRANCH   2  14
HETATM   14  C   UNL     1     -38.965 -50.265  11.601  1.00  0.00     0.209 C 
HETATM   15  C   UNL     1     -37.447 -50.133  11.599  1.00  0.00     0.050 C 
BRANCH  14  16
HETATM   16  O   UNL     1     -39.328 -51.357  12.450  1.00  0.00    -0.376 OA
BRANCH  16  17
HETATM   17  C   UNL     1     -40.721 -51.675  12.328  1.00  0.00     0.173 C 
BRANCH  17  18
HETATM   18  C   UNL     1     -40.873 -53.160  12.337  1.00  0.00     0.009 A 
HETATM   19  C   UNL     1     -41.946 -53.801  13.182  1.00  0.00     0.007 A 
HETATM   20  C   UNL     1     -40.499 -53.971  13.552  1.00  0.00     0.007 A 
ENDBRANCH  17  18
ENDBRANCH  16  17
ENDBRANCH  14  16
ENDBRANCH   2  14
TORSDOF 6
ENDMDL
