MODEL 1
REMARK VINA RESULT:      -6.0      0.000      0.000
REMARK  5 active torsions:
REMARK  status: ('A' for Active; 'I' for Inactive)
REMARK    1  A    between atoms: O_2  and  C_3 
REMARK    2  A    between atoms: C_3  and  C_4 
REMARK    3  A    between atoms: C_4  and  N_5 
REMARK    4  A    between atoms: C_8  and  C_13 
REMARK       I    between atoms: C_13  and  N_15 
REMARK    5  A    between atoms: N_15  and  C_16 
ROOT
HETATM    1  N   UNL     1     -42.758 -47.029   9.430  1.00  0.00    -0.255 N 
HETATM    2  N   UNL     1     -42.276 -48.288   9.790  1.00  0.00    -0.290 N 
ATOM      3  HN  UNL     1     -42.415 -49.107   9.198  1.00  0.00     0.187 HD
HETATM    4  C   UNL     1     -41.639 -48.360  10.923  1.00  0.00     0.116 A 
HETATM    5  C   UNL     1     -41.436 -47.237  11.859  1.00  0.00     0.042 A 
HETATM    6  C   UNL     1     -41.887 -46.043  11.481  1.00  0.00     0.078 A 
HETATM    7  C   UNL     1     -42.590 -45.877  10.196  1.00  0.00     0.262 A 
HETATM    8  O   UNL     1     -42.989 -44.758   9.887  1.00  0.00    -0.267 OA
ENDROOT
BRANCH   4   9
HETATM    9  C   UNL     1     -41.023 -49.683  11.368  1.00  0.00     0.275 C 
HETATM   10  O   UNL     1     -39.804 -49.779  11.304  1.00  0.00    -0.266 OA
HETATM   11  N   UNL     1     -41.924 -50.619  11.818  1.00  0.00    -0.302 N 
HETATM   12  H   UNL     1     -42.909 -50.400  11.754  1.00  0.00     0.171 HD
BRANCH  11  13
HETATM   13  C   UNL     1     -41.572 -51.828  12.330  1.00  0.00     0.142 C 
HETATM   14  N   UNL     1     -41.036 -52.803  11.687  1.00  0.00    -0.370 N 
HETATM   15  C   UNL     1     -40.875 -53.963  12.580  1.00  0.00     0.132 C 
ATOM     16  HN  UNL     1     -40.763 -52.777  10.704  1.00  0.00     0.161 HD
HETATM   17  C   UNL     1     -40.806 -53.496  14.025  1.00  0.00     0.102 C 
HETATM   18  S   UNL     1     -41.853 -52.019  14.031  1.00  0.00    -0.092 SA
ENDBRANCH  11  13
ENDBRANCH   4   9
BRANCH   1  19
HETATM   19  C   UNL     1     -43.535 -46.940   8.195  1.00  0.00     0.178 C 
BRANCH  19  20
HETATM   20  C   UNL     1     -44.723 -47.908   8.136  1.00  0.00     0.189 C 
BRANCH  20  21
HETATM   21  O   UNL     1     -45.468 -47.813   9.355  1.00  0.00    -0.394 OA
HETATM   22  C   UNL     1     -46.701 -47.128   9.159  1.00  0.00     0.201 C 
ENDBRANCH  20  21
ENDBRANCH  19  20
ENDBRANCH   1  19
TORSDOF 5
ENDMDL
MODEL 2
REMARK VINA RESULT:      -5.5      1.250      1.284
REMARK  5 active torsions:
REMARK  status: ('A' for Active; 'I' for Inactive)
REMARK    1  A    between atoms: O_2  and  C_3 
REMARK    2  A    between atoms: C_3  and  C_4 
REMARK    3  A    between atoms: C_4  and  N_5 
REMARK    4  A    between atoms: C_8  and  C_13 
REMARK       I    between atoms: C_13  and  N_15 
REMARK    5  A    between atoms: N_15  and  C_16 
ROOT
HETATM    1  N   UNL     1     -42.112 -46.794  10.062  1.00  0.00    -0.255 N 
HETATM    2  N   UNL     1     -42.190 -48.117  10.500  1.00  0.00    -0.290 N 
ATOM      3  HN  UNL     1     -42.978 -48.718  10.259  1.00  0.00     0.187 HD
HETATM    4  C   UNL     1     -41.201 -48.540  11.233  1.00  0.00     0.116 A 
HETATM    5  C   UNL     1     -40.050 -47.724  11.666  1.00  0.00     0.042 A 
HETATM    6  C   UNL     1     -39.990 -46.473  11.216  1.00  0.00     0.078 A 
HETATM    7  C   UNL     1     -41.057 -45.932  10.354  1.00  0.00     0.262 A 
HETATM    8  O   UNL     1     -40.961 -44.773   9.962  1.00  0.00    -0.267 OA
ENDROOT
BRANCH   4   9
HETATM    9  C   UNL     1     -41.170 -49.990  11.706  1.00  0.00     0.275 C 
HETATM   10  O   UNL     1     -40.082 -50.552  11.708  1.00  0.00    -0.266 OA
HETATM   11  N   UNL     1     -42.385 -50.497  12.101  1.00  0.00    -0.302 N 
HETATM   12  H   UNL     1     -43.204 -49.916  11.984  1.00  0.00     0.171 HD
BRANCH  11  13
HETATM   13  C   UNL     1     -42.556 -51.740  12.626  1.00  0.00     0.142 C 
HETATM   14  N   UNL     1     -42.048 -52.833  12.181  1.00  0.00    -0.370 N 
HETATM   15  C   UNL     1     -42.530 -53.971  12.984  1.00  0.00     0.132 C 
ATOM     16  HN  UNL     1     -41.407 -52.902  11.391  1.00  0.00     0.161 HD
HETATM   17  C   UNL     1     -42.937 -53.490  14.367  1.00  0.00     0.102 C 
HETATM   18  S   UNL     1     -43.528 -51.807  14.060  1.00  0.00    -0.092 SA
ENDBRANCH  11  13
ENDBRANCH   4   9
BRANCH   1  19
HETATM   19  C   UNL     1     -43.245 -46.278   9.295  1.00  0.00     0.178 C 
BRANCH  19  20
HETATM   20  C   UNL     1     -44.154 -47.369   8.717  1.00  0.00     0.189 C 
BRANCH  20  21
HETATM   21  O   UNL     1     -45.224 -47.623   9.634  1.00  0.00    -0.394 OA
HETATM   22  C   UNL     1     -46.476 -47.206   9.101  1.00  0.00     0.201 C 
ENDBRANCH  20  21
ENDBRANCH  19  20
ENDBRANCH   1  19
TORSDOF 5
ENDMDL
MODEL 3
REMARK VINA RESULT:      -5.4      4.699      6.550
REMARK  5 active torsions:
REMARK  status: ('A' for Active; 'I' for Inactive)
REMARK    1  A    between atoms: O_2  and  C_3 
REMARK    2  A    between atoms: C_3  and  C_4 
REMARK    3  A    between atoms: C_4  and  N_5 
REMARK    4  A    between atoms: C_8  and  C_13 
REMARK       I    between atoms: C_13  and  N_15 
REMARK    5  A    between atoms: N_15  and  C_16 
ROOT
HETATM    1  N   UNL     1     -44.625 -53.458  13.242  1.00  0.00    -0.255 N 
HETATM    2  N   UNL     1     -43.396 -52.907  12.875  1.00  0.00    -0.290 N 
ATOM      3  HN  UNL     1     -43.328 -52.139  12.207  1.00  0.00     0.187 HD
HETATM    4  C   UNL     1     -42.342 -53.427  13.433  1.00  0.00     0.116 A 
HETATM    5  C   UNL     1     -42.348 -54.567  14.371  1.00  0.00     0.042 A 
HETATM    6  C   UNL     1     -43.534 -55.059  14.720  1.00  0.00     0.078 A 
HETATM    7  C   UNL     1     -44.776 -54.500  14.154  1.00  0.00     0.262 A 
HETATM    8  O   UNL     1     -45.848 -54.984  14.504  1.00  0.00    -0.267 OA
ENDROOT
BRANCH   4   9
HETATM    9  C   UNL     1     -40.961 -52.848  13.140  1.00  0.00     0.275 C 
HETATM   10  O   UNL     1     -40.065 -53.645  12.889  1.00  0.00    -0.266 OA
HETATM   11  N   UNL     1     -40.889 -51.476  13.171  1.00  0.00    -0.302 N 
HETATM   12  H   UNL     1     -41.714 -50.962  13.451  1.00  0.00     0.171 HD
BRANCH  11  13
HETATM   13  C   UNL     1     -39.771 -50.766  12.862  1.00  0.00     0.142 C 
HETATM   14  N   UNL     1     -39.154 -50.767  11.735  1.00  0.00    -0.370 N 
HETATM   15  C   UNL     1     -37.949 -49.925  11.824  1.00  0.00     0.132 C 
ATOM     16  HN  UNL     1     -39.454 -51.275  10.902  1.00  0.00     0.161 HD
HETATM   17  C   UNL     1     -38.123 -48.890  12.924  1.00  0.00     0.102 C 
HETATM   18  S   UNL     1     -39.175 -49.741  14.126  1.00  0.00    -0.092 SA
ENDBRANCH  11  13
ENDBRANCH   4   9
BRANCH   1  19
HETATM   19  C   UNL     1     -45.816 -52.934  12.575  1.00  0.00     0.178 C 
BRANCH  19  20
HETATM   20  C   UNL     1     -46.225 -51.532  13.042  1.00  0.00     0.189 C 
BRANCH  20  21
HETATM   21  O   UNL     1     -45.678 -51.293  14.344  1.00  0.00    -0.394 OA
HETATM   22  C   UNL     1     -46.685 -51.343  15.349  1.00  0.00     0.201 C 
ENDBRANCH  20  21
ENDBRANCH  19  20
ENDBRANCH   1  19
TORSDOF 5
ENDMDL
MODEL 4
REMARK VINA RESULT:      -5.2      3.560      6.764
REMARK  5 active torsions:
REMARK  status: ('A' for Active; 'I' for Inactive)
REMARK    1  A    between atoms: O_2  and  C_3 
REMARK    2  A    between atoms: C_3  and  C_4 
REMARK    3  A    between atoms: C_4  and  N_5 
REMARK    4  A    between atoms: C_8  and  C_13 
REMARK       I    between atoms: C_13  and  N_15 
REMARK    5  A    between atoms: N_15  and  C_16 
ROOT
HETATM    1  N   UNL     1     -43.976 -53.762  14.092  1.00  0.00    -0.255 N 
HETATM    2  N   UNL     1     -43.591 -52.593  13.434  1.00  0.00    -0.290 N 
ATOM      3  HN  UNL     1     -44.273 -51.899  13.126  1.00  0.00     0.187 HD
HETATM    4  C   UNL     1     -42.315 -52.437  13.234  1.00  0.00     0.116 A 
HETATM    5  C   UNL     1     -41.270 -53.412  13.603  1.00  0.00     0.042 A 
HETATM    6  C   UNL     1     -41.662 -54.508  14.249  1.00  0.00     0.078 A 
HETATM    7  C   UNL     1     -43.089 -54.738  14.540  1.00  0.00     0.262 A 
HETATM    8  O   UNL     1     -43.406 -55.761  15.139  1.00  0.00    -0.267 OA
ENDROOT
BRANCH   4   9
HETATM    9  C   UNL     1     -41.796 -51.162  12.577  1.00  0.00     0.275 C 
HETATM   10  O   UNL     1     -40.622 -51.153  12.229  1.00  0.00    -0.266 OA
HETATM   11  N   UNL     1     -42.731 -50.165  12.430  1.00  0.00    -0.302 N 
HETATM   12  H   UNL     1     -43.650 -50.313  12.823  1.00  0.00     0.171 HD
BRANCH  11  13
HETATM   13  C   UNL     1     -42.490 -48.984  11.800  1.00  0.00     0.142 C 
HETATM   14  N   UNL     1     -42.138 -48.831  10.573  1.00  0.00    -0.370 N 
HETATM   15  C   UNL     1     -41.904 -47.404  10.294  1.00  0.00     0.132 C 
ATOM     16  HN  UNL     1     -42.036 -49.586   9.894  1.00  0.00     0.161 HD
HETATM   17  C   UNL     1     -42.696 -46.551  11.273  1.00  0.00     0.102 C 
HETATM   18  S   UNL     1     -42.730 -47.567  12.770  1.00  0.00    -0.092 SA
ENDBRANCH  11  13
ENDBRANCH   4   9
BRANCH   1  19
HETATM   19  C   UNL     1     -45.410 -53.988  14.266  1.00  0.00     0.178 C 
BRANCH  19  20
HETATM   20  C   UNL     1     -46.291 -52.876  13.684  1.00  0.00     0.189 C 
BRANCH  20  21
HETATM   21  O   UNL     1     -46.158 -52.870  12.258  1.00  0.00    -0.394 OA
HETATM   22  C   UNL     1     -46.874 -51.786  11.674  1.00  0.00     0.201 C 
ENDBRANCH  20  21
ENDBRANCH  19  20
ENDBRANCH   1  19
TORSDOF 5
ENDMDL
MODEL 5
REMARK VINA RESULT:      -5.2      1.772      3.439
REMARK  5 active torsions:
REMARK  status: ('A' for Active; 'I' for Inactive)
REMARK    1  A    between atoms: O_2  and  C_3 
REMARK    2  A    between atoms: C_3  and  C_4 
REMARK    3  A    between atoms: C_4  and  N_5 
REMARK    4  A    between atoms: C_8  and  C_13 
REMARK       I    between atoms: C_13  and  N_15 
REMARK    5  A    between atoms: N_15  and  C_16 
ROOT
HETATM    1  N   UNL     1     -42.473 -45.388  10.703  1.00  0.00    -0.255 N 
HETATM    2  N   UNL     1     -41.745 -46.447  11.249  1.00  0.00    -0.290 N 
ATOM      3  HN  UNL     1     -41.148 -46.324  12.066  1.00  0.00     0.187 HD
HETATM    4  C   UNL     1     -41.871 -47.599  10.657  1.00  0.00     0.116 A 
HETATM    5  C   UNL     1     -42.674 -47.851   9.444  1.00  0.00     0.042 A 
HETATM    6  C   UNL     1     -43.375 -46.830   8.957  1.00  0.00     0.078 A 
HETATM    7  C   UNL     1     -43.309 -45.501   9.594  1.00  0.00     0.262 A 
HETATM    8  O   UNL     1     -43.972 -44.588   9.112  1.00  0.00    -0.267 OA
ENDROOT
BRANCH   4   9
HETATM    9  C   UNL     1     -41.161 -48.826  11.220  1.00  0.00     0.275 C 
HETATM   10  O   UNL     1     -39.959 -48.727  11.430  1.00  0.00    -0.266 OA
HETATM   11  N   UNL     1     -41.974 -49.910  11.450  1.00  0.00    -0.302 N 
HETATM   12  H   UNL     1     -42.943 -49.847  11.168  1.00  0.00     0.171 HD
BRANCH  11  13
HETATM   13  C   UNL     1     -41.551 -51.070  12.020  1.00  0.00     0.142 C 
HETATM   14  N   UNL     1     -41.242 -52.155  11.404  1.00  0.00    -0.370 N 
HETATM   15  C   UNL     1     -40.903 -53.205  12.380  1.00  0.00     0.132 C 
ATOM     16  HN  UNL     1     -41.233 -52.272  10.390  1.00  0.00     0.161 HD
HETATM   17  C   UNL     1     -40.441 -52.569  13.681  1.00  0.00     0.102 C 
HETATM   18  S   UNL     1     -41.388 -51.028  13.746  1.00  0.00    -0.092 SA
ENDBRANCH  11  13
ENDBRANCH   4   9
BRANCH   1  19
HETATM   19  C   UNL     1     -42.292 -44.071  11.311  1.00  0.00     0.178 C 
BRANCH  19  20
HETATM   20  C   UNL     1     -41.924 -44.118  12.798  1.00  0.00     0.189 C 
BRANCH  20  21
HETATM   21  O   UNL     1     -40.499 -44.196  12.927  1.00  0.00    -0.394 OA
HETATM   22  C   UNL     1     -40.120 -44.820  14.149  1.00  0.00     0.201 C 
ENDBRANCH  20  21
ENDBRANCH  19  20
ENDBRANCH   1  19
TORSDOF 5
ENDMDL
MODEL 6
REMARK VINA RESULT:      -5.1      2.667      3.108
REMARK  5 active torsions:
REMARK  status: ('A' for Active; 'I' for Inactive)
REMARK    1  A    between atoms: O_2  and  C_3 
REMARK    2  A    between atoms: C_3  and  C_4 
REMARK    3  A    between atoms: C_4  and  N_5 
REMARK    4  A    between atoms: C_8  and  C_13 
REMARK       I    between atoms: C_13  and  N_15 
REMARK    5  A    between atoms: N_15  and  C_16 
ROOT
HETATM    1  N   UNL     1     -42.080 -48.193  11.116  1.00  0.00    -0.255 N 
HETATM    2  N   UNL     1     -42.676 -49.377  11.554  1.00  0.00    -0.290 N 
ATOM      3  HN  UNL     1     -43.659 -49.583  11.375  1.00  0.00     0.187 HD
HETATM    4  C   UNL     1     -41.908 -50.203  12.203  1.00  0.00     0.116 A 
HETATM    5  C   UNL     1     -40.493 -49.961  12.545  1.00  0.00     0.042 A 
HETATM    6  C   UNL     1     -39.943 -48.835  12.097  1.00  0.00     0.078 A 
HETATM    7  C   UNL     1     -40.742 -47.865  11.325  1.00  0.00     0.262 A 
HETATM    8  O   UNL     1     -40.196 -46.839  10.931  1.00  0.00    -0.267 OA
ENDROOT
BRANCH   4   9
HETATM    9  C   UNL     1     -42.457 -51.549  12.667  1.00  0.00     0.275 C 
HETATM   10  O   UNL     1     -41.641 -52.390  13.022  1.00  0.00    -0.266 OA
HETATM   11  N   UNL     1     -43.827 -51.652  12.651  1.00  0.00    -0.302 N 
HETATM   12  H   UNL     1     -44.359 -50.879  12.274  1.00  0.00     0.171 HD
BRANCH  11  13
HETATM   13  C   UNL     1     -44.513 -52.738  13.098  1.00  0.00     0.142 C 
HETATM   14  N   UNL     1     -44.135 -53.964  13.022  1.00  0.00    -0.370 N 
HETATM   15  C   UNL     1     -45.189 -54.846  13.553  1.00  0.00     0.132 C 
ATOM     16  HN  UNL     1     -43.239 -54.279  12.650  1.00  0.00     0.161 HD
HETATM   17  C   UNL     1     -46.061 -54.076  14.531  1.00  0.00     0.102 C 
HETATM   18  S   UNL     1     -46.022 -52.389  13.877  1.00  0.00    -0.092 SA
ENDBRANCH  11  13
ENDBRANCH   4   9
BRANCH   1  19
HETATM   19  C   UNL     1     -42.942 -47.222  10.444  1.00  0.00     0.178 C 
BRANCH  19  20
HETATM   20  C   UNL     1     -43.249 -47.568   8.983  1.00  0.00     0.189 C 
BRANCH  20  21
HETATM   21  O   UNL     1     -44.499 -46.975   8.613  1.00  0.00    -0.394 OA
HETATM   22  C   UNL     1     -45.589 -47.594   9.287  1.00  0.00     0.201 C 
ENDBRANCH  20  21
ENDBRANCH  19  20
ENDBRANCH   1  19
TORSDOF 5
ENDMDL
MODEL 7
REMARK VINA RESULT:      -5.0      4.619      7.685
REMARK  5 active torsions:
REMARK  status: ('A' for Active; 'I' for Inactive)
REMARK    1  A    between atoms: O_2  and  C_3 
REMARK    2  A    between atoms: C_3  and  C_4 
REMARK    3  A    between atoms: C_4  and  N_5 
REMARK    4  A    between atoms: C_8  and  C_13 
REMARK       I    between atoms: C_13  and  N_15 
REMARK    5  A    between atoms: N_15  and  C_16 
ROOT
HETATM    1  N   UNL     1     -42.636 -46.658  10.854  1.00  0.00    -0.255 N 
HETATM    2  N   UNL     1     -42.858 -45.294  11.052  1.00  0.00    -0.290 N 
ATOM      3  HN  UNL     1     -43.800 -44.904  11.102  1.00  0.00     0.187 HD
HETATM    4  C   UNL     1     -41.799 -44.548  11.171  1.00  0.00     0.116 A 
HETATM    5  C   UNL     1     -40.405 -45.024  11.063  1.00  0.00     0.042 A 
HETATM    6  C   UNL     1     -40.221 -46.331  10.896  1.00  0.00     0.078 A 
HETATM    7  C   UNL     1     -41.374 -47.244  10.787  1.00  0.00     0.262 A 
HETATM    8  O   UNL     1     -41.159 -48.443  10.633  1.00  0.00    -0.267 OA
ENDROOT
BRANCH   4   9
HETATM    9  C   UNL     1     -41.945 -43.056  11.451  1.00  0.00     0.275 C 
HETATM   10  O   UNL     1     -43.072 -42.642  11.689  1.00  0.00    -0.266 OA
HETATM   11  N   UNL     1     -40.769 -42.344  11.425  1.00  0.00    -0.302 N 
HETATM   12  H   UNL     1     -39.924 -42.830  11.156  1.00  0.00     0.171 HD
BRANCH  11  13
HETATM   13  C   UNL     1     -40.675 -41.021  11.725  1.00  0.00     0.142 C 
HETATM   14  N   UNL     1     -41.196 -40.050  11.064  1.00  0.00    -0.370 N 
HETATM   15  C   UNL     1     -40.803 -38.766  11.670  1.00  0.00     0.132 C 
ATOM     16  HN  UNL     1     -41.792 -40.153  10.243  1.00  0.00     0.161 HD
HETATM   17  C   UNL     1     -40.459 -38.971  13.136  1.00  0.00     0.102 C 
HETATM   18  S   UNL     1     -39.790 -40.653  13.170  1.00  0.00    -0.092 SA
ENDBRANCH  11  13
ENDBRANCH   4   9
BRANCH   1  19
HETATM   19  C   UNL     1     -43.812 -47.502  10.651  1.00  0.00     0.178 C 
BRANCH  19  20
HETATM   20  C   UNL     1     -44.596 -47.182   9.373  1.00  0.00     0.189 C 
BRANCH  20  21
HETATM   21  O   UNL     1     -43.676 -46.820   8.336  1.00  0.00    -0.394 OA
HETATM   22  C   UNL     1     -43.405 -47.920   7.474  1.00  0.00     0.201 C 
ENDBRANCH  20  21
ENDBRANCH  19  20
ENDBRANCH   1  19
TORSDOF 5
ENDMDL
MODEL 8
REMARK VINA RESULT:      -4.9      3.278      6.578
REMARK  5 active torsions:
REMARK  status: ('A' for Active; 'I' for Inactive)
REMARK    1  A    between atoms: O_2  and  C_3 
REMARK    2  A    between atoms: C_3  and  C_4 
REMARK    3  A    between atoms: C_4  and  N_5 
REMARK    4  A    between atoms: C_8  and  C_13 
REMARK       I    between atoms: C_13  and  N_15 
REMARK    5  A    between atoms: N_15  and  C_16 
ROOT
HETATM    1  N   UNL     1     -41.729 -52.199  12.358  1.00  0.00    -0.255 N 
HETATM    2  N   UNL     1     -41.950 -50.944  11.788  1.00  0.00    -0.290 N 
ATOM      3  HN  UNL     1     -42.839 -50.702  11.349  1.00  0.00     0.187 HD
HETATM    4  C   UNL     1     -40.961 -50.101  11.848  1.00  0.00     0.116 A 
HETATM    5  C   UNL     1     -39.631 -50.387  12.421  1.00  0.00     0.042 A 
HETATM    6  C   UNL     1     -39.454 -51.583  12.977  1.00  0.00     0.078 A 
HETATM    7  C   UNL     1     -40.540 -52.580  12.976  1.00  0.00     0.262 A 
HETATM    8  O   UNL     1     -40.334 -53.671  13.500  1.00  0.00    -0.267 OA
ENDROOT
BRANCH   4   9
HETATM    9  C   UNL     1     -41.132 -48.685  11.306  1.00  0.00     0.275 C 
HETATM   10  O   UNL     1     -42.195 -48.424  10.758  1.00  0.00    -0.266 OA
HETATM   11  N   UNL     1     -40.062 -47.850  11.522  1.00  0.00    -0.302 N 
HETATM   12  H   UNL     1     -39.231 -48.240  11.945  1.00  0.00     0.171 HD
BRANCH  11  13
HETATM   13  C   UNL     1     -40.048 -46.532  11.186  1.00  0.00     0.142 C 
HETATM   14  N   UNL     1     -39.613 -46.029  10.087  1.00  0.00    -0.370 N 
HETATM   15  C   UNL     1     -39.703 -44.559  10.139  1.00  0.00     0.132 C 
ATOM     16  HN  UNL     1     -39.258 -46.567   9.296  1.00  0.00     0.161 HD
HETATM   17  C   UNL     1     -40.779 -44.144  11.129  1.00  0.00     0.102 C 
HETATM   18  S   UNL     1     -40.728 -45.462  12.369  1.00  0.00    -0.092 SA
ENDBRANCH  11  13
ENDBRANCH   4   9
BRANCH   1  19
HETATM   19  C   UNL     1     -42.803 -53.183  12.241  1.00  0.00     0.178 C 
BRANCH  19  20
HETATM   20  C   UNL     1     -44.146 -52.710  12.810  1.00  0.00     0.189 C 
BRANCH  20  21
HETATM   21  O   UNL     1     -45.135 -53.721  12.583  1.00  0.00    -0.394 OA
HETATM   22  C   UNL     1     -45.583 -54.295  13.806  1.00  0.00     0.201 C 
ENDBRANCH  20  21
ENDBRANCH  19  20
ENDBRANCH   1  19
TORSDOF 5
ENDMDL
MODEL 9
REMARK VINA RESULT:      -4.9      5.257      7.978
REMARK  5 active torsions:
REMARK  status: ('A' for Active; 'I' for Inactive)
REMARK    1  A    between atoms: O_2  and  C_3 
REMARK    2  A    between atoms: C_3  and  C_4 
REMARK    3  A    between atoms: C_4  and  N_5 
REMARK    4  A    between atoms: C_8  and  C_13 
REMARK       I    between atoms: C_13  and  N_15 
REMARK    5  A    between atoms: N_15  and  C_16 
ROOT
HETATM    1  N   UNL     1     -43.887 -54.028  15.348  1.00  0.00    -0.255 N 
HETATM    2  N   UNL     1     -42.670 -53.496  14.919  1.00  0.00    -0.290 N 
ATOM      3  HN  UNL     1     -41.937 -53.232  15.577  1.00  0.00     0.187 HD
HETATM    4  C   UNL     1     -42.524 -53.356  13.634  1.00  0.00     0.116 A 
HETATM    5  C   UNL     1     -43.551 -53.667  12.620  1.00  0.00     0.042 A 
HETATM    6  C   UNL     1     -44.693 -54.194  13.054  1.00  0.00     0.078 A 
HETATM    7  C   UNL     1     -44.919 -54.413  14.495  1.00  0.00     0.262 A 
HETATM    8  O   UNL     1     -45.987 -54.901  14.852  1.00  0.00    -0.267 OA
ENDROOT
BRANCH   4   9
HETATM    9  C   UNL     1     -41.204 -52.840  13.069  1.00  0.00     0.275 C 
HETATM   10  O   UNL     1     -40.605 -53.574  12.293  1.00  0.00    -0.266 OA
HETATM   11  N   UNL     1     -40.847 -51.581  13.489  1.00  0.00    -0.302 N 
HETATM   12  H   UNL     1     -41.429 -51.127  14.180  1.00  0.00     0.171 HD
BRANCH  11  13
HETATM   13  C   UNL     1     -39.750 -50.912  13.042  1.00  0.00     0.142 C 
HETATM   14  N   UNL     1     -39.323 -50.871  11.831  1.00  0.00    -0.370 N 
HETATM   15  C   UNL     1     -38.068 -50.103  11.769  1.00  0.00     0.132 C 
ATOM     16  HN  UNL     1     -39.785 -51.306  11.031  1.00  0.00     0.161 HD
HETATM   17  C   UNL     1     -37.997 -49.135  12.940  1.00  0.00     0.102 C 
HETATM   18  S   UNL     1     -38.895 -50.007  14.248  1.00  0.00    -0.092 SA
ENDBRANCH  11  13
ENDBRANCH   4   9
BRANCH   1  19
HETATM   19  C   UNL     1     -44.098 -54.130  16.791  1.00  0.00     0.178 C 
BRANCH  19  20
HETATM   20  C   UNL     1     -43.036 -54.962  17.518  1.00  0.00     0.189 C 
BRANCH  20  21
HETATM   21  O   UNL     1     -42.699 -56.100  16.716  1.00  0.00    -0.394 OA
HETATM   22  C   UNL     1     -41.321 -56.433  16.837  1.00  0.00     0.201 C 
ENDBRANCH  20  21
ENDBRANCH  19  20
ENDBRANCH   1  19
TORSDOF 5
ENDMDL
