MODEL 1
REMARK VINA RESULT:      -5.8      0.000      0.000
REMARK  6 active torsions:
REMARK  status: ('A' for Active; 'I' for Inactive)
REMARK    1  A    between atoms: C_2  and  C_3 
REMARK       I    between atoms: C_2  and  N_19 
REMARK    2  A    between atoms: C_3  and  N_4 
REMARK    3  A    between atoms: C_7  and  C_8 
REMARK    4  A    between atoms: C_8  and  N_9 
REMARK    5  A    between atoms: N_13  and  C_14 
REMARK    6  A    between atoms: N_19  and  C_20 
ROOT
HETATM    1  C   UNL     1     -44.329 -46.895   9.189  1.00  0.00     0.216 C 
HETATM    2  C   UNL     1     -45.816 -47.194   9.096  1.00  0.00    -0.098 C 
HETATM    3  C   UNL     1     -47.092 -47.450   9.017  1.00  0.00     0.014 C 
ENDROOT
BRANCH   1   4
HETATM    4  N   UNL     1     -43.830 -47.262  10.497  1.00  0.00    -0.349 N 
HETATM    5  C   UNL     1     -42.725 -46.627  11.020  1.00  0.00     0.236 C 
HETATM    6  O   UNL     1     -42.155 -45.711  10.430  1.00  0.00    -0.272 OA
HETATM    7  H   UNL     1     -44.409 -47.835  11.104  1.00  0.00     0.163 HD
BRANCH   5   8
HETATM    8  C   UNL     1     -42.299 -47.093  12.411  1.00  0.00     0.239 C 
BRANCH   8   9
HETATM    9  N   UNL     1     -41.570 -48.355  12.336  1.00  0.00    -0.256 N 
HETATM   10  C   UNL     1     -42.293 -49.537  12.437  1.00  0.00     0.273 A 
HETATM   11  O   UNL     1     -43.504 -49.583  12.632  1.00  0.00    -0.266 OA
HETATM   12  C   UNL     1     -41.510 -50.788  12.336  1.00  0.00     0.110 A 
HETATM   13  C   UNL     1     -40.179 -50.715  12.299  1.00  0.00     0.123 A 
HETATM   14  N   UNL     1     -39.510 -49.510  12.298  1.00  0.00    -0.303 N 
HETATM   15  C   UNL     1     -40.181 -48.282  12.226  1.00  0.00     0.332 A 
HETATM   16  O   UNL     1     -39.599 -47.203  12.084  1.00  0.00    -0.246 OA
BRANCH  12  17
HETATM   17  C   UNL     1     -42.232 -52.126  12.325  1.00  0.00    -0.030 C 
BRANCH  17  18
HETATM   18  N   UNL     1     -42.830 -53.237  12.315  1.00  0.00    -0.365 N 
ATOM     19  HN2 UNL     1     -42.371 -52.327  12.306  1.00  0.00     0.165 HD
ATOM     20  HN1 UNL     1     -43.313 -54.135  12.308  1.00  0.00     0.165 HD
ENDBRANCH  17  18
ENDBRANCH  12  17
BRANCH  14  21
HETATM   21  C   UNL     1     -38.063 -49.557  12.274  1.00  0.00     0.094 A 
HETATM   22  C   UNL     1     -37.308 -49.928  11.016  1.00  0.00     0.028 A 
HETATM   23  C   UNL     1     -37.304 -50.858  12.185  1.00  0.00     0.028 A 
ENDBRANCH  14  21
ENDBRANCH   8   9
ENDBRANCH   5   8
ENDBRANCH   1   4
TORSDOF 6
ENDMDL
MODEL 2
REMARK VINA RESULT:      -5.8      4.789      8.267
REMARK  6 active torsions:
REMARK  status: ('A' for Active; 'I' for Inactive)
REMARK    1  A    between atoms: C_2  and  C_3 
REMARK       I    between atoms: C_2  and  N_19 
REMARK    2  A    between atoms: C_3  and  N_4 
REMARK    3  A    between atoms: C_7  and  C_8 
REMARK    4  A    between atoms: C_8  and  N_9 
REMARK    5  A    between atoms: N_13  and  C_14 
REMARK    6  A    between atoms: N_19  and  C_20 
ROOT
HETATM    1  C   UNL     1     -40.668 -53.592  13.658  1.00  0.00     0.216 C 
HETATM    2  C   UNL     1     -40.582 -52.321  12.828  1.00  0.00    -0.098 C 
HETATM    3  C   UNL     1     -40.508 -51.232  12.116  1.00  0.00     0.014 C 
ENDROOT
BRANCH   1   4
HETATM    4  N   UNL     1     -42.001 -54.147  13.578  1.00  0.00    -0.349 N 
HETATM    5  C   UNL     1     -42.608 -54.656  14.705  1.00  0.00     0.236 C 
HETATM    6  O   UNL     1     -42.073 -54.620  15.811  1.00  0.00    -0.272 OA
HETATM    7  H   UNL     1     -42.558 -53.977  12.745  1.00  0.00     0.163 HD
BRANCH   5   8
HETATM    8  C   UNL     1     -44.019 -55.206  14.497  1.00  0.00     0.239 C 
BRANCH   8   9
HETATM    9  N   UNL     1     -45.002 -54.128  14.504  1.00  0.00    -0.256 N 
HETATM   10  C   UNL     1     -45.316 -53.518  13.295  1.00  0.00     0.273 A 
HETATM   11  O   UNL     1     -44.781 -53.802  12.228  1.00  0.00    -0.266 OA
HETATM   12  C   UNL     1     -46.332 -52.444  13.353  1.00  0.00     0.110 A 
HETATM   13  C   UNL     1     -46.771 -52.036  14.545  1.00  0.00     0.123 A 
HETATM   14  N   UNL     1     -46.349 -52.616  15.721  1.00  0.00    -0.303 N 
HETATM   15  C   UNL     1     -45.517 -53.744  15.743  1.00  0.00     0.332 A 
HETATM   16  O   UNL     1     -45.243 -54.359  16.777  1.00  0.00    -0.246 OA
BRANCH  12  17
HETATM   17  C   UNL     1     -46.817 -51.800  12.065  1.00  0.00    -0.030 C 
BRANCH  17  18
HETATM   18  N   UNL     1     -47.218 -51.264  10.996  1.00  0.00    -0.365 N 
ATOM     19  HN2 UNL     1     -46.882 -51.721  11.843  1.00  0.00     0.165 HD
ATOM     20  HN1 UNL     1     -47.542 -50.831  10.131  1.00  0.00     0.165 HD
ENDBRANCH  17  18
ENDBRANCH  12  17
BRANCH  14  21
HETATM   21  C   UNL     1     -46.882 -52.074  16.953  1.00  0.00     0.094 A 
HETATM   22  C   UNL     1     -48.025 -51.083  16.948  1.00  0.00     0.028 A 
HETATM   23  C   UNL     1     -46.659 -50.639  17.361  1.00  0.00     0.028 A 
ENDBRANCH  14  21
ENDBRANCH   8   9
ENDBRANCH   5   8
ENDBRANCH   1   4
TORSDOF 6
ENDMDL
MODEL 3
REMARK VINA RESULT:      -5.7      4.910      7.024
REMARK  6 active torsions:
REMARK  status: ('A' for Active; 'I' for Inactive)
REMARK    1  A    between atoms: C_2  and  C_3 
REMARK       I    between atoms: C_2  and  N_19 
REMARK    2  A    between atoms: C_3  and  N_4 
REMARK    3  A    between atoms: C_7  and  C_8 
REMARK    4  A    between atoms: C_8  and  N_9 
REMARK    5  A    between atoms: N_13  and  C_14 
REMARK    6  A    between atoms: N_19  and  C_20 
ROOT
HETATM    1  C   UNL     1     -47.117 -52.130  15.245  1.00  0.00     0.216 C 
HETATM    2  C   UNL     1     -46.254 -51.194  16.076  1.00  0.00    -0.098 C 
HETATM    3  C   UNL     1     -45.515 -50.391  16.788  1.00  0.00     0.014 C 
ENDROOT
BRANCH   1   4
HETATM    4  N   UNL     1     -46.279 -53.010  14.460  1.00  0.00    -0.349 N 
HETATM    5  C   UNL     1     -45.794 -54.176  15.009  1.00  0.00     0.236 C 
HETATM    6  O   UNL     1     -46.081 -54.532  16.150  1.00  0.00    -0.272 OA
HETATM    7  H   UNL     1     -46.221 -52.871  13.455  1.00  0.00     0.163 HD
BRANCH   5   8
HETATM    8  C   UNL     1     -44.930 -55.028  14.080  1.00  0.00     0.239 C 
BRANCH   8   9
HETATM    9  N   UNL     1     -43.557 -54.536  14.051  1.00  0.00    -0.256 N 
HETATM   10  C   UNL     1     -43.203 -53.640  13.048  1.00  0.00     0.273 A 
HETATM   11  O   UNL     1     -43.964 -53.274  12.159  1.00  0.00    -0.266 OA
HETATM   12  C   UNL     1     -41.805 -53.157  13.074  1.00  0.00     0.110 A 
HETATM   13  C   UNL     1     -40.950 -53.699  13.943  1.00  0.00     0.123 A 
HETATM   14  N   UNL     1     -41.339 -54.657  14.853  1.00  0.00    -0.303 N 
HETATM   15  C   UNL     1     -42.676 -55.048  15.004  1.00  0.00     0.332 A 
HETATM   16  O   UNL     1     -43.062 -55.799  15.903  1.00  0.00    -0.246 OA
BRANCH  12  17
HETATM   17  C   UNL     1     -41.361 -52.093  12.084  1.00  0.00    -0.030 C 
BRANCH  17  18
HETATM   18  N   UNL     1     -40.993 -51.209  11.262  1.00  0.00    -0.365 N 
ATOM     19  HN2 UNL     1     -41.318 -51.907  11.930  1.00  0.00     0.165 HD
ATOM     20  HN1 UNL     1     -40.696 -50.495  10.597  1.00  0.00     0.165 HD
ENDBRANCH  17  18
ENDBRANCH  12  17
BRANCH  14  21
HETATM   21  C   UNL     1     -40.318 -55.186  15.733  1.00  0.00     0.094 A 
HETATM   22  C   UNL     1     -39.899 -54.447  16.986  1.00  0.00     0.028 A 
HETATM   23  C   UNL     1     -38.948 -54.561  15.839  1.00  0.00     0.028 A 
ENDBRANCH  14  21
ENDBRANCH   8   9
ENDBRANCH   5   8
ENDBRANCH   1   4
TORSDOF 6
ENDMDL
MODEL 4
REMARK VINA RESULT:      -5.6      3.313      6.314
REMARK  6 active torsions:
REMARK  status: ('A' for Active; 'I' for Inactive)
REMARK    1  A    between atoms: C_2  and  C_3 
REMARK       I    between atoms: C_2  and  N_19 
REMARK    2  A    between atoms: C_3  and  N_4 
REMARK    3  A    between atoms: C_7  and  C_8 
REMARK    4  A    between atoms: C_8  and  N_9 
REMARK    5  A    between atoms: N_13  and  C_14 
REMARK    6  A    between atoms: N_19  and  C_20 
ROOT
HETATM    1  C   UNL     1     -41.421 -54.330  14.827  1.00  0.00     0.216 C 
HETATM    2  C   UNL     1     -42.492 -53.971  13.810  1.00  0.00    -0.098 C 
HETATM    3  C   UNL     1     -43.410 -53.663  12.938  1.00  0.00     0.014 C 
ENDROOT
BRANCH   1   4
HETATM    4  N   UNL     1     -40.530 -53.208  15.026  1.00  0.00    -0.349 N 
HETATM    5  C   UNL     1     -39.313 -53.168  14.383  1.00  0.00     0.236 C 
HETATM    6  O   UNL     1     -38.959 -54.042  13.594  1.00  0.00    -0.272 OA
HETATM    7  H   UNL     1     -40.885 -52.368  15.474  1.00  0.00     0.163 HD
BRANCH   5   8
HETATM    8  C   UNL     1     -38.464 -51.929  14.664  1.00  0.00     0.239 C 
BRANCH   8   9
HETATM    9  N   UNL     1     -38.620 -50.940  13.602  1.00  0.00    -0.256 N 
HETATM   10  C   UNL     1     -37.761 -51.008  12.512  1.00  0.00     0.273 A 
HETATM   11  O   UNL     1     -36.850 -51.823  12.410  1.00  0.00    -0.266 OA
HETATM   12  C   UNL     1     -37.972 -49.996  11.454  1.00  0.00     0.110 A 
HETATM   13  C   UNL     1     -38.852 -49.016  11.666  1.00  0.00     0.123 A 
HETATM   14  N   UNL     1     -39.610 -48.946  12.814  1.00  0.00    -0.303 N 
HETATM   15  C   UNL     1     -39.589 -49.954  13.788  1.00  0.00     0.332 A 
HETATM   16  O   UNL     1     -40.359 -49.977  14.751  1.00  0.00    -0.246 OA
BRANCH  12  17
HETATM   17  C   UNL     1     -37.153 -50.064  10.176  1.00  0.00    -0.030 C 
BRANCH  17  18
HETATM   18  N   UNL     1     -36.472 -50.121   9.115  1.00  0.00    -0.365 N 
ATOM     19  HN2 UNL     1     -37.049 -50.071   9.954  1.00  0.00     0.165 HD
ATOM     20  HN1 UNL     1     -35.922 -50.167   8.258  1.00  0.00     0.165 HD
ENDBRANCH  17  18
ENDBRANCH  12  17
BRANCH  14  21
HETATM   21  C   UNL     1     -40.519 -47.825  12.939  1.00  0.00     0.094 A 
HETATM   22  C   UNL     1     -41.931 -47.894  12.401  1.00  0.00     0.028 A 
HETATM   23  C   UNL     1     -40.932 -46.991  11.752  1.00  0.00     0.028 A 
ENDBRANCH  14  21
ENDBRANCH   8   9
ENDBRANCH   5   8
ENDBRANCH   1   4
TORSDOF 6
ENDMDL
MODEL 5
REMARK VINA RESULT:      -5.5      3.518      5.342
REMARK  6 active torsions:
REMARK  status: ('A' for Active; 'I' for Inactive)
REMARK    1  A    between atoms: C_2  and  C_3 
REMARK       I    between atoms: C_2  and  N_19 
REMARK    2  A    between atoms: C_3  and  N_4 
REMARK    3  A    between atoms: C_7  and  C_8 
REMARK    4  A    between atoms: C_8  and  N_9 
REMARK    5  A    between atoms: N_13  and  C_14 
REMARK    6  A    between atoms: N_19  and  C_20 
ROOT
HETATM    1  C   UNL     1     -42.750 -48.940  12.422  1.00  0.00     0.216 C 
HETATM    2  C   UNL     1     -43.165 -48.176  11.176  1.00  0.00    -0.098 C 
HETATM    3  C   UNL     1     -43.522 -47.521  10.107  1.00  0.00     0.014 C 
ENDROOT
BRANCH   1   4
HETATM    4  N   UNL     1     -42.529 -50.333  12.100  1.00  0.00    -0.349 N 
HETATM    5  C   UNL     1     -41.294 -50.906  12.310  1.00  0.00     0.236 C 
HETATM    6  O   UNL     1     -40.360 -50.283  12.811  1.00  0.00    -0.272 OA
HETATM    7  H   UNL     1     -43.330 -50.930  11.914  1.00  0.00     0.163 HD
BRANCH   5   8
HETATM    8  C   UNL     1     -41.187 -52.385  11.941  1.00  0.00     0.239 C 
BRANCH   8   9
HETATM    9  N   UNL     1     -41.732 -53.225  13.001  1.00  0.00    -0.256 N 
HETATM   10  C   UNL     1     -43.081 -53.554  12.950  1.00  0.00     0.273 A 
HETATM   11  O   UNL     1     -43.852 -53.142  12.089  1.00  0.00    -0.266 OA
HETATM   12  C   UNL     1     -43.581 -54.424  14.037  1.00  0.00     0.110 A 
HETATM   13  C   UNL     1     -42.767 -54.717  15.053  1.00  0.00     0.123 A 
HETATM   14  N   UNL     1     -41.461 -54.281  15.098  1.00  0.00    -0.303 N 
HETATM   15  C   UNL     1     -40.865 -53.594  14.031  1.00  0.00     0.332 A 
HETATM   16  O   UNL     1     -39.663 -53.318  13.995  1.00  0.00    -0.246 OA
BRANCH  12  17
HETATM   17  C   UNL     1     -45.015 -54.923  14.000  1.00  0.00    -0.030 C 
BRANCH  17  18
HETATM   18  N   UNL     1     -46.207 -55.337  13.969  1.00  0.00    -0.365 N 
ATOM     19  HN2 UNL     1     -45.241 -55.010  13.963  1.00  0.00     0.165 HD
ATOM     20  HN1 UNL     1     -47.170 -55.671  13.944  1.00  0.00     0.165 HD
ENDBRANCH  17  18
ENDBRANCH  12  17
BRANCH  14  21
HETATM   21  C   UNL     1     -40.681 -54.647  16.261  1.00  0.00     0.094 A 
HETATM   22  C   UNL     1     -39.903 -55.944  16.310  1.00  0.00     0.028 A 
HETATM   23  C   UNL     1     -41.098 -55.761  17.189  1.00  0.00     0.028 A 
ENDBRANCH  14  21
ENDBRANCH   8   9
ENDBRANCH   5   8
ENDBRANCH   1   4
TORSDOF 6
ENDMDL
MODEL 6
REMARK VINA RESULT:      -5.4      5.460      7.447
REMARK  6 active torsions:
REMARK  status: ('A' for Active; 'I' for Inactive)
REMARK    1  A    between atoms: C_2  and  C_3 
REMARK       I    between atoms: C_2  and  N_19 
REMARK    2  A    between atoms: C_3  and  N_4 
REMARK    3  A    between atoms: C_7  and  C_8 
REMARK    4  A    between atoms: C_8  and  N_9 
REMARK    5  A    between atoms: N_13  and  C_14 
REMARK    6  A    between atoms: N_19  and  C_20 
ROOT
HETATM    1  C   UNL     1     -47.430 -50.992  16.898  1.00  0.00     0.216 C 
HETATM    2  C   UNL     1     -48.145 -51.267  18.211  1.00  0.00    -0.098 C 
HETATM    3  C   UNL     1     -48.758 -51.503  19.336  1.00  0.00     0.014 C 
ENDROOT
BRANCH   1   4
HETATM    4  N   UNL     1     -47.039 -52.237  16.275  1.00  0.00    -0.349 N 
HETATM    5  C   UNL     1     -46.810 -52.291  14.918  1.00  0.00     0.236 C 
HETATM    6  O   UNL     1     -46.882 -51.295  14.201  1.00  0.00    -0.272 OA
HETATM    7  H   UNL     1     -46.741 -53.011  16.862  1.00  0.00     0.163 HD
BRANCH   5   8
HETATM    8  C   UNL     1     -46.394 -53.658  14.378  1.00  0.00     0.239 C 
BRANCH   8   9
HETATM    9  N   UNL     1     -44.941 -53.793  14.368  1.00  0.00    -0.256 N 
HETATM   10  C   UNL     1     -44.253 -53.402  13.226  1.00  0.00     0.273 A 
HETATM   11  O   UNL     1     -44.799 -52.993  12.206  1.00  0.00    -0.266 OA
HETATM   12  C   UNL     1     -42.781 -53.541  13.274  1.00  0.00     0.110 A 
HETATM   13  C   UNL     1     -42.225 -54.148  14.323  1.00  0.00     0.123 A 
HETATM   14  N   UNL     1     -42.970 -54.603  15.388  1.00  0.00    -0.303 N 
HETATM   15  C   UNL     1     -44.347 -54.364  15.495  1.00  0.00     0.332 A 
HETATM   16  O   UNL     1     -45.004 -54.640  16.502  1.00  0.00    -0.246 OA
BRANCH  12  17
HETATM   17  C   UNL     1     -41.941 -53.035  12.112  1.00  0.00    -0.030 C 
BRANCH  17  18
HETATM   18  N   UNL     1     -41.245 -52.615  11.148  1.00  0.00    -0.365 N 
ATOM     19  HN2 UNL     1     -41.830 -52.932  11.920  1.00  0.00     0.165 HD
ATOM     20  HN1 UNL     1     -40.682 -52.277  10.368  1.00  0.00     0.165 HD
ENDBRANCH  17  18
ENDBRANCH  12  17
BRANCH  14  21
HETATM   21  C   UNL     1     -42.256 -55.263  16.461  1.00  0.00     0.094 A 
HETATM   22  C   UNL     1     -41.543 -54.471  17.535  1.00  0.00     0.028 A 
HETATM   23  C   UNL     1     -40.749 -55.260  16.543  1.00  0.00     0.028 A 
ENDBRANCH  14  21
ENDBRANCH   8   9
ENDBRANCH   5   8
ENDBRANCH   1   4
TORSDOF 6
ENDMDL
MODEL 7
REMARK VINA RESULT:      -5.4      2.639      5.638
REMARK  6 active torsions:
REMARK  status: ('A' for Active; 'I' for Inactive)
REMARK    1  A    between atoms: C_2  and  C_3 
REMARK       I    between atoms: C_2  and  N_19 
REMARK    2  A    between atoms: C_3  and  N_4 
REMARK    3  A    between atoms: C_7  and  C_8 
REMARK    4  A    between atoms: C_8  and  N_9 
REMARK    5  A    between atoms: N_13  and  C_14 
REMARK    6  A    between atoms: N_19  and  C_20 
ROOT
HETATM    1  C   UNL     1     -42.880 -43.178  14.159  1.00  0.00     0.216 C 
HETATM    2  C   UNL     1     -43.231 -44.457  14.902  1.00  0.00    -0.098 C 
HETATM    3  C   UNL     1     -43.532 -45.553  15.539  1.00  0.00     0.014 C 
ENDROOT
BRANCH   1   4
HETATM    4  N   UNL     1     -42.519 -43.481  12.792  1.00  0.00    -0.349 N 
HETATM    5  C   UNL     1     -41.232 -43.863  12.483  1.00  0.00     0.236 C 
HETATM    6  O   UNL     1     -40.366 -44.002  13.344  1.00  0.00    -0.272 OA
HETATM    7  H   UNL     1     -43.256 -43.609  12.103  1.00  0.00     0.163 HD
BRANCH   5   8
HETATM    8  C   UNL     1     -40.975 -44.167  11.008  1.00  0.00     0.239 C 
BRANCH   8   9
HETATM    9  N   UNL     1     -41.608 -45.422  10.618  1.00  0.00    -0.256 N 
HETATM   10  C   UNL     1     -40.930 -46.607  10.876  1.00  0.00     0.273 A 
HETATM   11  O   UNL     1     -39.809 -46.658  11.372  1.00  0.00    -0.266 OA
HETATM   12  C   UNL     1     -41.622 -47.852  10.479  1.00  0.00     0.110 A 
HETATM   13  C   UNL     1     -42.759 -47.765   9.787  1.00  0.00     0.123 A 
HETATM   14  N   UNL     1     -43.338 -46.554   9.475  1.00  0.00    -0.303 N 
HETATM   15  C   UNL     1     -42.834 -45.338   9.955  1.00  0.00     0.332 A 
HETATM   16  O   UNL     1     -43.414 -44.260   9.803  1.00  0.00    -0.246 OA
BRANCH  12  17
HETATM   17  C   UNL     1     -41.004 -49.197  10.823  1.00  0.00    -0.030 C 
BRANCH  17  18
HETATM   18  N   UNL     1     -40.492 -50.314  11.109  1.00  0.00    -0.365 N 
ATOM     19  HN2 UNL     1     -40.903 -49.419  10.847  1.00  0.00     0.165 HD
ATOM     20  HN1 UNL     1     -40.078 -51.217  11.341  1.00  0.00     0.165 HD
ENDBRANCH  17  18
ENDBRANCH  12  17
BRANCH  14  21
HETATM   21  C   UNL     1     -44.562 -46.586   8.703  1.00  0.00     0.094 A 
HETATM   22  C   UNL     1     -45.908 -46.772   9.370  1.00  0.00     0.028 A 
HETATM   23  C   UNL     1     -45.353 -47.856   8.503  1.00  0.00     0.028 A 
ENDBRANCH  14  21
ENDBRANCH   8   9
ENDBRANCH   5   8
ENDBRANCH   1   4
TORSDOF 6
ENDMDL
MODEL 8
REMARK VINA RESULT:      -5.3      4.245      6.795
REMARK  6 active torsions:
REMARK  status: ('A' for Active; 'I' for Inactive)
REMARK    1  A    between atoms: C_2  and  C_3 
REMARK       I    between atoms: C_2  and  N_19 
REMARK    2  A    between atoms: C_3  and  N_4 
REMARK    3  A    between atoms: C_7  and  C_8 
REMARK    4  A    between atoms: C_8  and  N_9 
REMARK    5  A    between atoms: N_13  and  C_14 
REMARK    6  A    between atoms: N_19  and  C_20 
ROOT
HETATM    1  C   UNL     1     -39.098 -50.432  12.685  1.00  0.00     0.216 C 
HETATM    2  C   UNL     1     -38.031 -50.098  11.655  1.00  0.00    -0.098 C 
HETATM    3  C   UNL     1     -37.116 -49.811  10.773  1.00  0.00     0.014 C 
ENDROOT
BRANCH   1   4
HETATM    4  N   UNL     1     -39.624 -51.758  12.442  1.00  0.00    -0.349 N 
HETATM    5  C   UNL     1     -40.966 -51.935  12.191  1.00  0.00     0.236 C 
HETATM    6  O   UNL     1     -41.750 -50.991  12.120  1.00  0.00    -0.272 OA
HETATM    7  H   UNL     1     -38.977 -52.520  12.257  1.00  0.00     0.163 HD
BRANCH   5   8
HETATM    8  C   UNL     1     -41.401 -53.378  11.940  1.00  0.00     0.239 C 
BRANCH   8   9
HETATM    9  N   UNL     1     -42.073 -53.929  13.111  1.00  0.00    -0.256 N 
HETATM   10  C   UNL     1     -43.463 -53.937  13.127  1.00  0.00     0.273 A 
HETATM   11  O   UNL     1     -44.159 -53.466  12.233  1.00  0.00    -0.266 OA
HETATM   12  C   UNL     1     -44.096 -54.523  14.328  1.00  0.00     0.110 A 
HETATM   13  C   UNL     1     -43.325 -54.870  15.360  1.00  0.00     0.123 A 
HETATM   14  N   UNL     1     -41.953 -54.750  15.323  1.00  0.00    -0.303 N 
HETATM   15  C   UNL     1     -41.266 -54.359  14.166  1.00  0.00     0.332 A 
HETATM   16  O   UNL     1     -40.036 -54.379  14.072  1.00  0.00    -0.246 OA
BRANCH  12  17
HETATM   17  C   UNL     1     -45.608 -54.674  14.382  1.00  0.00    -0.030 C 
BRANCH  17  18
HETATM   18  N   UNL     1     -46.862 -54.799  14.426  1.00  0.00    -0.365 N 
ATOM     19  HN2 UNL     1     -45.852 -54.674  14.369  1.00  0.00     0.165 HD
ATOM     20  HN1 UNL     1     -47.877 -54.899  14.463  1.00  0.00     0.165 HD
ENDBRANCH  17  18
ENDBRANCH  12  17
BRANCH  14  21
HETATM   21  C   UNL     1     -41.223 -55.141  16.511  1.00  0.00     0.094 A 
HETATM   22  C   UNL     1     -40.951 -56.596  16.824  1.00  0.00     0.028 A 
HETATM   23  C   UNL     1     -41.896 -55.816  17.681  1.00  0.00     0.028 A 
ENDBRANCH  14  21
ENDBRANCH   8   9
ENDBRANCH   5   8
ENDBRANCH   1   4
TORSDOF 6
ENDMDL
MODEL 9
REMARK VINA RESULT:      -5.3      4.598      6.908
REMARK  6 active torsions:
REMARK  status: ('A' for Active; 'I' for Inactive)
REMARK    1  A    between atoms: C_2  and  C_3 
REMARK       I    between atoms: C_2  and  N_19 
REMARK    2  A    between atoms: C_3  and  N_4 
REMARK    3  A    between atoms: C_7  and  C_8 
REMARK    4  A    between atoms: C_8  and  N_9 
REMARK    5  A    between atoms: N_13  and  C_14 
REMARK    6  A    between atoms: N_19  and  C_20 
ROOT
HETATM    1  C   UNL     1     -47.214 -52.122  15.441  1.00  0.00     0.216 C 
HETATM    2  C   UNL     1     -46.280 -51.173  16.173  1.00  0.00    -0.098 C 
HETATM    3  C   UNL     1     -45.479 -50.359  16.800  1.00  0.00     0.014 C 
ENDROOT
BRANCH   1   4
HETATM    4  N   UNL     1     -46.454 -53.006  14.584  1.00  0.00    -0.349 N 
HETATM    5  C   UNL     1     -45.960 -54.193  15.077  1.00  0.00     0.236 C 
HETATM    6  O   UNL     1     -46.178 -54.566  16.228  1.00  0.00    -0.272 OA
HETATM    7  H   UNL     1     -46.459 -52.847  13.580  1.00  0.00     0.163 HD
BRANCH   5   8
HETATM    8  C   UNL     1     -45.182 -55.045  14.076  1.00  0.00     0.239 C 
BRANCH   8   9
HETATM    9  N   UNL     1     -43.801 -54.587  13.966  1.00  0.00    -0.256 N 
HETATM   10  C   UNL     1     -42.884 -55.034  14.909  1.00  0.00     0.273 A 
HETATM   11  O   UNL     1     -43.176 -55.757  15.857  1.00  0.00    -0.266 OA
HETATM   12  C   UNL     1     -41.494 -54.556  14.743  1.00  0.00     0.110 A 
HETATM   13  C   UNL     1     -41.236 -53.636  13.812  1.00  0.00     0.123 A 
HETATM   14  N   UNL     1     -42.210 -53.156  12.965  1.00  0.00    -0.303 N 
HETATM   15  C   UNL     1     -43.511 -53.677  12.948  1.00  0.00     0.332 A 
HETATM   16  O   UNL     1     -44.355 -53.358  12.107  1.00  0.00    -0.246 OA
BRANCH  12  17
HETATM   17  C   UNL     1     -40.404 -55.082  15.662  1.00  0.00    -0.030 C 
BRANCH  17  18
HETATM   18  N   UNL     1     -39.500 -55.520  16.425  1.00  0.00    -0.365 N 
ATOM     19  HN2 UNL     1     -40.213 -55.141  15.803  1.00  0.00     0.165 HD
ATOM     20  HN1 UNL     1     -38.769 -55.875  17.041  1.00  0.00     0.165 HD
ENDBRANCH  17  18
ENDBRANCH  12  17
BRANCH  14  21
HETATM   21  C   UNL     1     -41.814 -52.145  12.007  1.00  0.00     0.094 A 
HETATM   22  C   UNL     1     -40.581 -51.295  12.225  1.00  0.00     0.028 A 
HETATM   23  C   UNL     1     -41.937 -50.670  12.299  1.00  0.00     0.028 A 
ENDBRANCH  14  21
ENDBRANCH   8   9
ENDBRANCH   5   8
ENDBRANCH   1   4
TORSDOF 6
ENDMDL
