MODEL 1
REMARK VINA RESULT:      -6.1      0.000      0.000
REMARK  5 active torsions:
REMARK  status: ('A' for Active; 'I' for Inactive)
REMARK    1  A    between atoms: O_1  and  C_2 
REMARK    2  A    between atoms: C_2  and  C_3 
REMARK    3  A    between atoms: C_9  and  N_10 
REMARK       I    between atoms: N_10  and  C_11 
REMARK    4  A    between atoms: C_11  and  C_13 
REMARK    5  A    between atoms: C_13  and  C_14 
ROOT
HETATM    1  N   UNL     1     -44.560 -53.285  14.170  1.00  0.00    -0.356 N 
HETATM    2  C   UNL     1     -43.778 -53.707  13.117  1.00  0.00     0.222 C 
HETATM    3  O   UNL     1     -44.211 -54.327  12.149  1.00  0.00    -0.273 OA
HETATM    4  H   UNL     1     -44.209 -52.522  14.746  1.00  0.00     0.162 HD
ENDROOT
BRANCH   1   5
HETATM    5  C   UNL     1     -45.998 -53.518  14.236  1.00  0.00     0.090 C 
HETATM    6  C   UNL     1     -46.805 -52.214  14.011  1.00  0.00     0.032 C 
HETATM    7  C   UNL     1     -46.608 -51.166  15.126  1.00  0.00     0.009 C 
HETATM    8  C   UNL     1     -47.380 -51.507  16.397  1.00  0.00     0.001 C 
HETATM    9  C   UNL     1     -46.675 -52.435  17.379  1.00  0.00     0.000 C 
HETATM   10  C   UNL     1     -45.865 -53.598  16.818  1.00  0.00     0.002 C 
HETATM   11  C   UNL     1     -46.405 -54.239  15.539  1.00  0.00     0.026 C 
BRANCH   6  12
HETATM   12  C   UNL     1     -46.508 -51.602  12.630  1.00  0.00     0.170 C 
BRANCH  12  13
HETATM   13  O   UNL     1     -46.548 -52.591  11.604  1.00  0.00    -0.400 OA
HETATM   14  H   UNL     1     -45.617 -52.775  11.372  1.00  0.00     0.209 HD
ENDBRANCH  12  13
ENDBRANCH   6  12
ENDBRANCH   1   5
BRANCH   2  15
HETATM   15  C   UNL     1     -42.310 -53.353  13.261  1.00  0.00     0.142 C 
BRANCH  15  16
HETATM   16  C   UNL     1     -41.984 -52.015  12.663  1.00  0.00    -0.034 A 
HETATM   17  C   UNL     1     -42.702 -50.867  13.008  1.00  0.00     0.010 A 
HETATM   18  C   UNL     1     -42.363 -49.646  12.438  1.00  0.00     0.018 A 
HETATM   19  C   UNL     1     -41.306 -49.611  11.545  1.00  0.00     0.087 A 
HETATM   20  N   UNL     1     -40.579 -50.694  11.195  1.00  0.00    -0.375 N 
HETATM   21  C   UNL     1     -40.933 -51.868  11.763  1.00  0.00     0.095 A 
ATOM     22  HN  UNL     1     -39.803 -50.630  10.536  1.00  0.00     0.164 HD
ENDBRANCH  15  16
ENDBRANCH   2  15
TORSDOF 5
ENDMDL
MODEL 2
REMARK VINA RESULT:      -5.9      2.988      4.762
REMARK  5 active torsions:
REMARK  status: ('A' for Active; 'I' for Inactive)
REMARK    1  A    between atoms: O_1  and  C_2 
REMARK    2  A    between atoms: C_2  and  C_3 
REMARK    3  A    between atoms: C_9  and  N_10 
REMARK       I    between atoms: N_10  and  C_11 
REMARK    4  A    between atoms: C_11  and  C_13 
REMARK    5  A    between atoms: C_13  and  C_14 
ROOT
HETATM    1  N   UNL     1     -43.332 -50.149  12.513  1.00  0.00    -0.356 N 
HETATM    2  C   UNL     1     -43.127 -48.790  12.606  1.00  0.00     0.222 C 
HETATM    3  O   UNL     1     -42.852 -48.210  13.653  1.00  0.00    -0.273 OA
HETATM    4  H   UNL     1     -43.230 -50.584  11.597  1.00  0.00     0.162 HD
ENDROOT
BRANCH   1   5
HETATM    5  C   UNL     1     -43.226 -51.050  13.656  1.00  0.00     0.090 C 
HETATM    6  C   UNL     1     -42.741 -52.460  13.235  1.00  0.00     0.032 C 
HETATM    7  C   UNL     1     -43.742 -53.215  12.336  1.00  0.00     0.009 C 
HETATM    8  C   UNL     1     -44.925 -53.778  13.117  1.00  0.00     0.001 C 
HETATM    9  C   UNL     1     -46.097 -52.828  13.335  1.00  0.00     0.000 C 
HETATM   10  C   UNL     1     -45.792 -51.367  13.643  1.00  0.00     0.002 C 
HETATM   11  C   UNL     1     -44.536 -51.102  14.471  1.00  0.00     0.026 C 
BRANCH   6  12
HETATM   12  C   UNL     1     -41.352 -52.402  12.573  1.00  0.00     0.170 C 
BRANCH  12  13
HETATM   13  O   UNL     1     -41.454 -52.429  11.151  1.00  0.00    -0.400 OA
HETATM   14  H   UNL     1     -41.551 -51.498  10.871  1.00  0.00     0.209 HD
ENDBRANCH  12  13
ENDBRANCH   6  12
ENDBRANCH   1   5
BRANCH   2  15
HETATM   15  C   UNL     1     -43.290 -48.053  11.290  1.00  0.00     0.142 C 
BRANCH  15  16
HETATM   16  C   UNL     1     -42.203 -47.042  11.064  1.00  0.00    -0.034 A 
HETATM   17  C   UNL     1     -42.457 -45.670  11.138  1.00  0.00     0.010 A 
HETATM   18  C   UNL     1     -41.421 -44.766  10.931  1.00  0.00     0.018 A 
HETATM   19  C   UNL     1     -40.158 -45.267  10.663  1.00  0.00     0.087 A 
HETATM   20  N   UNL     1     -39.870 -46.585  10.595  1.00  0.00    -0.375 N 
HETATM   21  C   UNL     1     -40.896 -47.440  10.799  1.00  0.00     0.095 A 
ATOM     22  HN  UNL     1     -38.926 -46.918  10.399  1.00  0.00     0.164 HD
ENDBRANCH  15  16
ENDBRANCH   2  15
TORSDOF 5
ENDMDL
MODEL 3
REMARK VINA RESULT:      -5.9      1.920      2.870
REMARK  5 active torsions:
REMARK  status: ('A' for Active; 'I' for Inactive)
REMARK    1  A    between atoms: O_1  and  C_2 
REMARK    2  A    between atoms: C_2  and  C_3 
REMARK    3  A    between atoms: C_9  and  N_10 
REMARK       I    between atoms: N_10  and  C_11 
REMARK    4  A    between atoms: C_11  and  C_13 
REMARK    5  A    between atoms: C_13  and  C_14 
ROOT
HETATM    1  N   UNL     1     -44.437 -53.063  14.002  1.00  0.00    -0.356 N 
HETATM    2  C   UNL     1     -43.617 -53.554  13.010  1.00  0.00     0.222 C 
HETATM    3  O   UNL     1     -43.976 -54.375  12.169  1.00  0.00    -0.273 OA
HETATM    4  H   UNL     1     -44.181 -52.178  14.436  1.00  0.00     0.162 HD
ENDROOT
BRANCH   1   5
HETATM    5  C   UNL     1     -45.834 -53.458  14.148  1.00  0.00     0.090 C 
HETATM    6  C   UNL     1     -46.795 -52.256  13.964  1.00  0.00     0.032 C 
HETATM    7  C   UNL     1     -46.659 -51.182  15.064  1.00  0.00     0.009 C 
HETATM    8  C   UNL     1     -47.317 -51.598  16.376  1.00  0.00     0.001 C 
HETATM    9  C   UNL     1     -46.459 -52.432  17.321  1.00  0.00     0.000 C 
HETATM   10  C   UNL     1     -45.554 -53.500  16.718  1.00  0.00     0.002 C 
HETATM   11  C   UNL     1     -46.085 -54.209  15.473  1.00  0.00     0.026 C 
BRANCH   6  12
HETATM   12  C   UNL     1     -46.645 -51.625  12.567  1.00  0.00     0.170 C 
BRANCH  12  13
HETATM   13  O   UNL     1     -46.498 -52.624  11.560  1.00  0.00    -0.400 OA
HETATM   14  H   UNL     1     -45.948 -52.222  10.860  1.00  0.00     0.209 HD
ENDBRANCH  12  13
ENDBRANCH   6  12
ENDBRANCH   1   5
BRANCH   2  15
HETATM   15  C   UNL     1     -42.205 -53.003  13.052  1.00  0.00     0.142 C 
BRANCH  15  16
HETATM   16  C   UNL     1     -41.304 -53.808  13.944  1.00  0.00    -0.034 A 
HETATM   17  C   UNL     1     -41.781 -54.408  15.112  1.00  0.00     0.010 A 
HETATM   18  C   UNL     1     -40.916 -55.152  15.906  1.00  0.00     0.018 A 
HETATM   19  C   UNL     1     -39.599 -55.278  15.499  1.00  0.00     0.087 A 
HETATM   20  N   UNL     1     -39.102 -54.724  14.372  1.00  0.00    -0.375 N 
HETATM   21  C   UNL     1     -39.965 -54.005  13.621  1.00  0.00     0.095 A 
ATOM     22  HN  UNL     1     -38.126 -54.842  14.101  1.00  0.00     0.164 HD
ENDBRANCH  15  16
ENDBRANCH   2  15
TORSDOF 5
ENDMDL
MODEL 4
REMARK VINA RESULT:      -5.8      1.525      1.748
REMARK  5 active torsions:
REMARK  status: ('A' for Active; 'I' for Inactive)
REMARK    1  A    between atoms: O_1  and  C_2 
REMARK    2  A    between atoms: C_2  and  C_3 
REMARK    3  A    between atoms: C_9  and  N_10 
REMARK       I    between atoms: N_10  and  C_11 
REMARK    4  A    between atoms: C_11  and  C_13 
REMARK    5  A    between atoms: C_13  and  C_14 
ROOT
HETATM    1  N   UNL     1     -44.126 -53.682  14.897  1.00  0.00    -0.356 N 
HETATM    2  C   UNL     1     -43.207 -54.693  15.075  1.00  0.00     0.222 C 
HETATM    3  O   UNL     1     -43.506 -55.880  15.177  1.00  0.00    -0.273 OA
HETATM    4  H   UNL     1     -43.794 -52.803  14.504  1.00  0.00     0.162 HD
ENDROOT
BRANCH   1   5
HETATM    5  C   UNL     1     -45.561 -53.921  14.793  1.00  0.00     0.090 C 
HETATM    6  C   UNL     1     -46.269 -52.821  13.964  1.00  0.00     0.032 C 
HETATM    7  C   UNL     1     -46.233 -51.428  14.626  1.00  0.00     0.009 C 
HETATM    8  C   UNL     1     -47.226 -51.298  15.777  1.00  0.00     0.001 C 
HETATM    9  C   UNL     1     -46.737 -51.772  17.141  1.00  0.00     0.000 C 
HETATM   10  C   UNL     1     -45.882 -53.033  17.201  1.00  0.00     0.002 C 
HETATM   11  C   UNL     1     -46.213 -54.120  16.178  1.00  0.00     0.026 C 
BRANCH   6  12
HETATM   12  C   UNL     1     -45.716 -52.754  12.528  1.00  0.00     0.170 C 
BRANCH  12  13
HETATM   13  O   UNL     1     -46.769 -52.680  11.570  1.00  0.00    -0.400 OA
HETATM   14  H   UNL     1     -46.337 -52.698  10.694  1.00  0.00     0.209 HD
ENDBRANCH  12  13
ENDBRANCH   6  12
ENDBRANCH   1   5
BRANCH   2  15
HETATM   15  C   UNL     1     -41.771 -54.211  15.155  1.00  0.00     0.142 C 
BRANCH  15  16
HETATM   16  C   UNL     1     -41.402 -53.322  14.002  1.00  0.00    -0.034 A 
HETATM   17  C   UNL     1     -41.217 -51.948  14.171  1.00  0.00     0.010 A 
HETATM   18  C   UNL     1     -40.867 -51.161  13.080  1.00  0.00     0.018 A 
HETATM   19  C   UNL     1     -40.706 -51.779  11.852  1.00  0.00     0.087 A 
HETATM   20  N   UNL     1     -40.864 -53.105  11.650  1.00  0.00    -0.375 N 
HETATM   21  C   UNL     1     -41.205 -53.844  12.727  1.00  0.00     0.095 A 
ATOM     22  HN  UNL     1     -40.732 -53.526  10.730  1.00  0.00     0.164 HD
ENDBRANCH  15  16
ENDBRANCH   2  15
TORSDOF 5
ENDMDL
MODEL 5
REMARK VINA RESULT:      -5.5      2.944      4.538
REMARK  5 active torsions:
REMARK  status: ('A' for Active; 'I' for Inactive)
REMARK    1  A    between atoms: O_1  and  C_2 
REMARK    2  A    between atoms: C_2  and  C_3 
REMARK    3  A    between atoms: C_9  and  N_10 
REMARK       I    between atoms: N_10  and  C_11 
REMARK    4  A    between atoms: C_11  and  C_13 
REMARK    5  A    between atoms: C_13  and  C_14 
ROOT
HETATM    1  N   UNL     1     -41.566 -51.432  14.170  1.00  0.00    -0.356 N 
HETATM    2  C   UNL     1     -40.668 -50.795  14.998  1.00  0.00     0.222 C 
HETATM    3  O   UNL     1     -40.403 -51.170  16.137  1.00  0.00    -0.273 OA
HETATM    4  H   UNL     1     -41.488 -51.266  13.167  1.00  0.00     0.162 HD
ENDROOT
BRANCH   1   5
HETATM    5  C   UNL     1     -42.289 -52.638  14.557  1.00  0.00     0.090 C 
HETATM    6  C   UNL     1     -42.406 -53.641  13.382  1.00  0.00     0.032 C 
HETATM    7  C   UNL     1     -43.270 -53.124  12.212  1.00  0.00     0.009 C 
HETATM    8  C   UNL     1     -44.765 -53.190  12.511  1.00  0.00     0.001 C 
HETATM    9  C   UNL     1     -45.353 -51.994  13.251  1.00  0.00     0.000 C 
HETATM   10  C   UNL     1     -44.527 -51.359  14.364  1.00  0.00     0.002 C 
HETATM   11  C   UNL     1     -43.660 -52.311  15.186  1.00  0.00     0.026 C 
BRANCH   6  12
HETATM   12  C   UNL     1     -41.020 -54.085  12.880  1.00  0.00     0.170 C 
BRANCH  12  13
HETATM   13  O   UNL     1     -40.616 -53.330  11.740  1.00  0.00    -0.400 OA
HETATM   14  H   UNL     1     -40.950 -52.423  11.886  1.00  0.00     0.209 HD
ENDBRANCH  12  13
ENDBRANCH   6  12
ENDBRANCH   1   5
BRANCH   2  15
HETATM   15  C   UNL     1     -40.036 -49.560  14.385  1.00  0.00     0.142 C 
BRANCH  15  16
HETATM   16  C   UNL     1     -39.075 -49.898  13.282  1.00  0.00    -0.034 A 
HETATM   17  C   UNL     1     -37.964 -50.716  13.508  1.00  0.00     0.010 A 
HETATM   18  C   UNL     1     -37.103 -51.012  12.457  1.00  0.00     0.018 A 
HETATM   19  C   UNL     1     -37.387 -50.485  11.209  1.00  0.00     0.087 A 
HETATM   20  N   UNL     1     -38.456 -49.702  10.948  1.00  0.00    -0.375 N 
HETATM   21  C   UNL     1     -39.274 -49.429  11.987  1.00  0.00     0.095 A 
ATOM     22  HN  UNL     1     -38.636 -49.335  10.013  1.00  0.00     0.164 HD
ENDBRANCH  15  16
ENDBRANCH   2  15
TORSDOF 5
ENDMDL
MODEL 6
REMARK VINA RESULT:      -5.3      1.777      2.269
REMARK  5 active torsions:
REMARK  status: ('A' for Active; 'I' for Inactive)
REMARK    1  A    between atoms: O_1  and  C_2 
REMARK    2  A    between atoms: C_2  and  C_3 
REMARK    3  A    between atoms: C_9  and  N_10 
REMARK       I    between atoms: N_10  and  C_11 
REMARK    4  A    between atoms: C_11  and  C_13 
REMARK    5  A    between atoms: C_13  and  C_14 
ROOT
HETATM    1  N   UNL     1     -43.974 -51.188  13.961  1.00  0.00    -0.356 N 
HETATM    2  C   UNL     1     -42.970 -51.226  13.019  1.00  0.00     0.222 C 
HETATM    3  O   UNL     1     -42.559 -52.261  12.499  1.00  0.00    -0.273 OA
HETATM    4  H   UNL     1     -44.469 -50.307  14.094  1.00  0.00     0.162 HD
ENDROOT
BRANCH   1   5
HETATM    5  C   UNL     1     -44.670 -52.381  14.432  1.00  0.00     0.090 C 
HETATM    6  C   UNL     1     -46.182 -52.335  14.098  1.00  0.00     0.032 C 
HETATM    7  C   UNL     1     -46.945 -51.218  14.839  1.00  0.00     0.009 C 
HETATM    8  C   UNL     1     -47.207 -51.556  16.304  1.00  0.00     0.001 C 
HETATM    9  C   UNL     1     -46.090 -51.208  17.281  1.00  0.00     0.000 C 
HETATM   10  C   UNL     1     -44.649 -51.441  16.841  1.00  0.00     0.002 C 
HETATM   11  C   UNL     1     -44.410 -52.645  15.931  1.00  0.00     0.026 C 
BRANCH   6  12
HETATM   12  C   UNL     1     -46.420 -52.241  12.580  1.00  0.00     0.170 C 
BRANCH  12  13
HETATM   13  O   UNL     1     -45.443 -52.985  11.855  1.00  0.00    -0.400 OA
HETATM   14  H   UNL     1     -45.705 -52.929  10.915  1.00  0.00     0.209 HD
ENDBRANCH  12  13
ENDBRANCH   6  12
ENDBRANCH   1   5
BRANCH   2  15
HETATM   15  C   UNL     1     -42.392 -49.866  12.681  1.00  0.00     0.142 C 
BRANCH  15  16
HETATM   16  C   UNL     1     -40.909 -49.916  12.452  1.00  0.00    -0.034 A 
HETATM   17  C   UNL     1     -40.014 -50.111  13.507  1.00  0.00     0.010 A 
HETATM   18  C   UNL     1     -38.649 -50.160  13.251  1.00  0.00     0.018 A 
HETATM   19  C   UNL     1     -38.222 -50.020  11.942  1.00  0.00     0.087 A 
HETATM   20  N   UNL     1     -39.055 -49.842  10.894  1.00  0.00    -0.375 N 
HETATM   21  C   UNL     1     -40.377 -49.797  11.172  1.00  0.00     0.095 A 
ATOM     22  HN  UNL     1     -38.705 -49.747   9.940  1.00  0.00     0.164 HD
ENDBRANCH  15  16
ENDBRANCH   2  15
TORSDOF 5
ENDMDL
MODEL 7
REMARK VINA RESULT:      -5.3      2.482      3.342
REMARK  5 active torsions:
REMARK  status: ('A' for Active; 'I' for Inactive)
REMARK    1  A    between atoms: O_1  and  C_2 
REMARK    2  A    between atoms: C_2  and  C_3 
REMARK    3  A    between atoms: C_9  and  N_10 
REMARK       I    between atoms: N_10  and  C_11 
REMARK    4  A    between atoms: C_11  and  C_13 
REMARK    5  A    between atoms: C_13  and  C_14 
ROOT
HETATM    1  N   UNL     1     -43.915 -53.919  15.368  1.00  0.00    -0.356 N 
HETATM    2  C   UNL     1     -43.040 -54.909  15.759  1.00  0.00     0.222 C 
HETATM    3  O   UNL     1     -43.193 -56.099  15.497  1.00  0.00    -0.273 OA
HETATM    4  H   UNL     1     -43.567 -52.962  15.336  1.00  0.00     0.162 HD
ENDROOT
BRANCH   1   5
HETATM    5  C   UNL     1     -45.114 -54.183  14.580  1.00  0.00     0.090 C 
HETATM    6  C   UNL     1     -45.137 -53.354  13.271  1.00  0.00     0.032 C 
HETATM    7  C   UNL     1     -45.247 -51.832  13.505  1.00  0.00     0.009 C 
HETATM    8  C   UNL     1     -46.658 -51.397  13.888  1.00  0.00     0.001 C 
HETATM    9  C   UNL     1     -47.004 -51.478  15.371  1.00  0.00     0.000 C 
HETATM   10  C   UNL     1     -46.488 -52.672  16.166  1.00  0.00     0.002 C 
HETATM   11  C   UNL     1     -46.402 -53.997  15.411  1.00  0.00     0.026 C 
BRANCH   6  12
HETATM   12  C   UNL     1     -43.927 -53.680  12.377  1.00  0.00     0.170 C 
BRANCH  12  13
HETATM   13  O   UNL     1     -42.773 -52.946  12.779  1.00  0.00    -0.400 OA
HETATM   14  H   UNL     1     -43.066 -52.020  12.883  1.00  0.00     0.209 HD
ENDBRANCH  12  13
ENDBRANCH   6  12
ENDBRANCH   1   5
BRANCH   2  15
HETATM   15  C   UNL     1     -41.863 -54.403  16.570  1.00  0.00     0.142 C 
BRANCH  15  16
HETATM   16  C   UNL     1     -40.814 -53.756  15.712  1.00  0.00    -0.034 A 
HETATM   17  C   UNL     1     -39.989 -54.513  14.876  1.00  0.00     0.010 A 
HETATM   18  C   UNL     1     -39.036 -53.875  14.090  1.00  0.00     0.018 A 
HETATM   19  C   UNL     1     -38.944 -52.496  14.162  1.00  0.00     0.087 A 
HETATM   20  N   UNL     1     -39.730 -51.729  14.948  1.00  0.00    -0.375 N 
HETATM   21  C   UNL     1     -40.646 -52.375  15.702  1.00  0.00     0.095 A 
ATOM     22  HN  UNL     1     -39.636 -50.713  14.972  1.00  0.00     0.164 HD
ENDBRANCH  15  16
ENDBRANCH   2  15
TORSDOF 5
ENDMDL
MODEL 8
REMARK VINA RESULT:      -5.2      3.687      5.086
REMARK  5 active torsions:
REMARK  status: ('A' for Active; 'I' for Inactive)
REMARK    1  A    between atoms: O_1  and  C_2 
REMARK    2  A    between atoms: C_2  and  C_3 
REMARK    3  A    between atoms: C_9  and  N_10 
REMARK       I    between atoms: N_10  and  C_11 
REMARK    4  A    between atoms: C_11  and  C_13 
REMARK    5  A    between atoms: C_13  and  C_14 
ROOT
HETATM    1  N   UNL     1     -40.083 -51.960  13.851  1.00  0.00    -0.356 N 
HETATM    2  C   UNL     1     -39.245 -51.052  13.242  1.00  0.00     0.222 C 
HETATM    3  O   UNL     1     -38.497 -51.331  12.308  1.00  0.00    -0.273 OA
HETATM    4  H   UNL     1     -40.879 -51.596  14.372  1.00  0.00     0.162 HD
ENDROOT
BRANCH   1   5
HETATM    5  C   UNL     1     -40.182 -53.355  13.435  1.00  0.00     0.090 C 
HETATM    6  C   UNL     1     -41.645 -53.760  13.123  1.00  0.00     0.032 C 
HETATM    7  C   UNL     1     -42.569 -53.737  14.359  1.00  0.00     0.009 C 
HETATM    8  C   UNL     1     -42.357 -54.940  15.274  1.00  0.00     0.001 C 
HETATM    9  C   UNL     1     -41.248 -54.804  16.311  1.00  0.00     0.000 C 
HETATM   10  C   UNL     1     -39.957 -54.106  15.899  1.00  0.00     0.002 C 
HETATM   11  C   UNL     1     -39.516 -54.308  14.450  1.00  0.00     0.026 C 
BRANCH   6  12
HETATM   12  C   UNL     1     -42.236 -52.905  11.987  1.00  0.00     0.170 C 
BRANCH  12  13
HETATM   13  O   UNL     1     -41.235 -52.535  11.042  1.00  0.00    -0.400 OA
HETATM   14  H   UNL     1     -41.300 -51.565  10.946  1.00  0.00     0.209 HD
ENDBRANCH  12  13
ENDBRANCH   6  12
ENDBRANCH   1   5
BRANCH   2  15
HETATM   15  C   UNL     1     -39.308 -49.660  13.841  1.00  0.00     0.142 C 
BRANCH  15  16
HETATM   16  C   UNL     1     -39.755 -48.629  12.845  1.00  0.00    -0.034 A 
HETATM   17  C   UNL     1     -39.424 -47.280  12.993  1.00  0.00     0.010 A 
HETATM   18  C   UNL     1     -39.850 -46.359  12.044  1.00  0.00     0.018 A 
HETATM   19  C   UNL     1     -40.590 -46.820  10.969  1.00  0.00     0.087 A 
HETATM   20  N   UNL     1     -40.921 -48.116  10.784  1.00  0.00    -0.375 N 
HETATM   21  C   UNL     1     -40.495 -48.990  11.722  1.00  0.00     0.095 A 
ATOM     22  HN  UNL     1     -41.465 -48.421   9.976  1.00  0.00     0.164 HD
ENDBRANCH  15  16
ENDBRANCH   2  15
TORSDOF 5
ENDMDL
MODEL 9
REMARK VINA RESULT:      -5.2      2.433      3.841
REMARK  5 active torsions:
REMARK  status: ('A' for Active; 'I' for Inactive)
REMARK    1  A    between atoms: O_1  and  C_2 
REMARK    2  A    between atoms: C_2  and  C_3 
REMARK    3  A    between atoms: C_9  and  N_10 
REMARK       I    between atoms: N_10  and  C_11 
REMARK    4  A    between atoms: C_11  and  C_13 
REMARK    5  A    between atoms: C_13  and  C_14 
ROOT
HETATM    1  N   UNL     1     -44.803 -52.759  14.678  1.00  0.00    -0.356 N 
HETATM    2  C   UNL     1     -44.838 -53.719  13.690  1.00  0.00     0.222 C 
HETATM    3  O   UNL     1     -45.291 -53.525  12.564  1.00  0.00    -0.273 OA
HETATM    4  H   UNL     1     -44.139 -52.887  15.440  1.00  0.00     0.162 HD
ENDROOT
BRANCH   1   5
HETATM    5  C   UNL     1     -45.288 -51.398  14.483  1.00  0.00     0.090 C 
HETATM    6  C   UNL     1     -44.535 -50.384  15.380  1.00  0.00     0.032 C 
HETATM    7  C   UNL     1     -44.784 -50.590  16.889  1.00  0.00     0.009 C 
HETATM    8  C   UNL     1     -46.150 -50.076  17.335  1.00  0.00     0.001 C 
HETATM    9  C   UNL     1     -47.313 -51.050  17.183  1.00  0.00     0.000 C 
HETATM   10  C   UNL     1     -47.359 -51.928  15.938  1.00  0.00     0.002 C 
HETATM   11  C   UNL     1     -46.819 -51.302  14.652  1.00  0.00     0.026 C 
BRANCH   6  12
HETATM   12  C   UNL     1     -43.026 -50.375  15.075  1.00  0.00     0.170 C 
BRANCH  12  13
HETATM   13  O   UNL     1     -42.761 -50.840  13.754  1.00  0.00    -0.400 OA
HETATM   14  H   UNL     1     -42.023 -50.295  13.419  1.00  0.00     0.209 HD
ENDBRANCH  12  13
ENDBRANCH   6  12
ENDBRANCH   1   5
BRANCH   2  15
HETATM   15  C   UNL     1     -44.280 -55.062  14.117  1.00  0.00     0.142 C 
BRANCH  15  16
HETATM   16  C   UNL     1     -42.878 -54.956  14.645  1.00  0.00    -0.034 A 
HETATM   17  C   UNL     1     -41.867 -54.332  13.910  1.00  0.00     0.010 A 
HETATM   18  C   UNL     1     -40.584 -54.247  14.438  1.00  0.00     0.018 A 
HETATM   19  C   UNL     1     -40.356 -54.784  15.694  1.00  0.00     0.087 A 
HETATM   20  N   UNL     1     -41.308 -55.383  16.441  1.00  0.00    -0.375 N 
HETATM   21  C   UNL     1     -42.545 -55.454  15.901  1.00  0.00     0.095 A 
ATOM     22  HN  UNL     1     -41.104 -55.764  17.365  1.00  0.00     0.164 HD
ENDBRANCH  15  16
ENDBRANCH   2  15
TORSDOF 5
ENDMDL
