MODEL 1
REMARK VINA RESULT:      -5.6      0.000      0.000
REMARK  5 active torsions:
REMARK  status: ('A' for Active; 'I' for Inactive)
REMARK    1  A    between atoms: C_2  and  N_3 
REMARK    2  A    between atoms: C_2  and  C_15 
REMARK       I    between atoms: N_3  and  C_4 
REMARK       I    between atoms: C_4  and  N_6 
REMARK    3  A    between atoms: N_6  and  C_7 
REMARK    4  A    between atoms: C_7  and  C_8 
REMARK    5  A    between atoms: C_8  and  N_9 
ROOT
HETATM    1  N   UNL     1     -42.003 -51.360  11.987  1.00  0.00    -0.336 N 
HETATM    2  C   UNL     1     -42.062 -50.021  12.259  1.00  0.00     0.316 C 
HETATM    3  O   UNL     1     -42.035 -49.558  13.392  1.00  0.00    -0.247 OA
HETATM    4  N   UNL     1     -42.209 -49.244  11.135  1.00  0.00    -0.342 N 
HETATM    5  H   UNL     1     -41.856 -51.678  11.040  1.00  0.00     0.164 HD
HETATM    6  H   UNL     1     -41.859 -49.635  10.274  1.00  0.00     0.164 HD
ENDROOT
BRANCH   1   7
HETATM    7  C   UNL     1     -41.790 -52.346  13.056  1.00  0.00     0.111 C 
HETATM    8  C   UNL     1     -40.872 -53.460  12.547  1.00  0.00     0.035 C 
BRANCH   7   9
HETATM    9  C   UNL     1     -43.142 -52.860  13.592  1.00  0.00     0.143 C 
HETATM   10  C   UNL     1     -43.049 -54.049  14.542  1.00  0.00     0.036 C 
HETATM   11  C   UNL     1     -44.279 -54.881  14.241  1.00  0.00     0.029 C 
HETATM   12  C   UNL     1     -44.993 -54.136  13.133  1.00  0.00     0.168 C 
HETATM   13  O   UNL     1     -44.011 -53.287  12.526  1.00  0.00    -0.384 OA
ENDBRANCH   7   9
ENDBRANCH   1   7
BRANCH   4  14
HETATM   14  C   UNL     1     -42.241 -47.794  11.299  1.00  0.00     0.144 C 
BRANCH  14  15
HETATM   15  C   UNL     1     -42.415 -47.025   9.992  1.00  0.00     0.149 C 
BRANCH  15  16
HETATM   16  N   UNL     1     -43.596 -47.442   9.262  1.00  0.00    -0.350 N 
HETATM   17  C   UNL     1     -44.880 -47.449   9.730  1.00  0.00     0.108 A 
HETATM   18  C   UNL     1     -45.642 -47.894   8.672  1.00  0.00     0.106 A 
HETATM   19  N   UNL     1     -44.853 -48.145   7.579  1.00  0.00    -0.361 N 
HETATM   20  C   UNL     1     -43.628 -47.861   7.963  1.00  0.00     0.182 A 
ATOM     21  HN  UNL     1     -45.152 -48.480   6.663  1.00  0.00     0.166 HD
ENDBRANCH  15  16
ENDBRANCH  14  15
ENDBRANCH   4  14
TORSDOF 5
ENDMDL
MODEL 2
REMARK VINA RESULT:      -5.5      1.529      1.847
REMARK  5 active torsions:
REMARK  status: ('A' for Active; 'I' for Inactive)
REMARK    1  A    between atoms: C_2  and  N_3 
REMARK    2  A    between atoms: C_2  and  C_15 
REMARK       I    between atoms: N_3  and  C_4 
REMARK       I    between atoms: C_4  and  N_6 
REMARK    3  A    between atoms: N_6  and  C_7 
REMARK    4  A    between atoms: C_7  and  C_8 
REMARK    5  A    between atoms: C_8  and  N_9 
ROOT
HETATM    1  N   UNL     1     -42.884 -50.945  12.478  1.00  0.00    -0.336 N 
HETATM    2  C   UNL     1     -42.815 -49.580  12.540  1.00  0.00     0.316 C 
HETATM    3  O   UNL     1     -42.939 -48.942  13.578  1.00  0.00    -0.247 OA
HETATM    4  N   UNL     1     -42.645 -48.987  11.312  1.00  0.00    -0.342 N 
HETATM    5  H   UNL     1     -42.606 -51.427  11.635  1.00  0.00     0.164 HD
HETATM    6  H   UNL     1     -42.195 -49.548  10.605  1.00  0.00     0.164 HD
ENDROOT
BRANCH   1   7
HETATM    7  C   UNL     1     -43.007 -51.758  13.695  1.00  0.00     0.111 C 
HETATM    8  C   UNL     1     -42.055 -52.954  13.608  1.00  0.00     0.035 C 
BRANCH   7   9
HETATM    9  C   UNL     1     -44.478 -52.158  13.929  1.00  0.00     0.143 C 
HETATM   10  C   UNL     1     -45.299 -52.370  12.661  1.00  0.00     0.036 C 
HETATM   11  C   UNL     1     -46.688 -51.878  13.012  1.00  0.00     0.029 C 
HETATM   12  C   UNL     1     -46.581 -51.402  14.446  1.00  0.00     0.168 C 
HETATM   13  O   UNL     1     -45.190 -51.159  14.684  1.00  0.00    -0.384 OA
ENDBRANCH   7   9
ENDBRANCH   1   7
BRANCH   4  14
HETATM   14  C   UNL     1     -42.515 -47.534  11.260  1.00  0.00     0.144 C 
BRANCH  14  15
HETATM   15  C   UNL     1     -42.598 -46.954   9.851  1.00  0.00     0.149 C 
BRANCH  15  16
HETATM   16  N   UNL     1     -43.753 -47.440   9.122  1.00  0.00    -0.350 N 
HETATM   17  C   UNL     1     -45.048 -47.441   9.559  1.00  0.00     0.108 A 
HETATM   18  C   UNL     1     -45.775 -47.969   8.516  1.00  0.00     0.106 A 
HETATM   19  N   UNL     1     -44.955 -48.277   7.461  1.00  0.00    -0.361 N 
HETATM   20  C   UNL     1     -43.745 -47.945   7.854  1.00  0.00     0.182 A 
ATOM     21  HN  UNL     1     -45.226 -48.678   6.563  1.00  0.00     0.166 HD
ENDBRANCH  15  16
ENDBRANCH  14  15
ENDBRANCH   4  14
TORSDOF 5
ENDMDL
MODEL 3
REMARK VINA RESULT:      -5.5      3.733      5.392
REMARK  5 active torsions:
REMARK  status: ('A' for Active; 'I' for Inactive)
REMARK    1  A    between atoms: C_2  and  N_3 
REMARK    2  A    between atoms: C_2  and  C_15 
REMARK       I    between atoms: N_3  and  C_4 
REMARK       I    between atoms: C_4  and  N_6 
REMARK    3  A    between atoms: N_6  and  C_7 
REMARK    4  A    between atoms: C_7  and  C_8 
REMARK    5  A    between atoms: C_8  and  N_9 
ROOT
HETATM    1  N   UNL     1     -44.773 -51.937  12.529  1.00  0.00    -0.336 N 
HETATM    2  C   UNL     1     -43.602 -52.642  12.489  1.00  0.00     0.316 C 
HETATM    3  O   UNL     1     -43.544 -53.864  12.552  1.00  0.00    -0.247 OA
HETATM    4  N   UNL     1     -42.487 -51.842  12.421  1.00  0.00    -0.342 N 
HETATM    5  H   UNL     1     -44.780 -50.953  12.301  1.00  0.00     0.164 HD
HETATM    6  H   UNL     1     -42.617 -50.930  12.010  1.00  0.00     0.164 HD
ENDROOT
BRANCH   1   7
HETATM    7  C   UNL     1     -46.074 -52.621  12.546  1.00  0.00     0.111 C 
HETATM    8  C   UNL     1     -47.018 -51.946  11.547  1.00  0.00     0.035 C 
BRANCH   7   9
HETATM    9  C   UNL     1     -46.635 -52.677  13.981  1.00  0.00     0.143 C 
HETATM   10  C   UNL     1     -46.825 -51.320  14.653  1.00  0.00     0.036 C 
HETATM   11  C   UNL     1     -46.503 -51.564  16.113  1.00  0.00     0.029 C 
HETATM   12  C   UNL     1     -46.135 -53.030  16.192  1.00  0.00     0.168 C 
HETATM   13  O   UNL     1     -45.776 -53.424  14.862  1.00  0.00    -0.384 OA
ENDBRANCH   7   9
ENDBRANCH   1   7
BRANCH   4  14
HETATM   14  C   UNL     1     -41.180 -52.486  12.329  1.00  0.00     0.144 C 
BRANCH  14  15
HETATM   15  C   UNL     1     -40.106 -51.835  13.195  1.00  0.00     0.149 C 
BRANCH  15  16
HETATM   16  N   UNL     1     -39.205 -51.002  12.424  1.00  0.00    -0.350 N 
HETATM   17  C   UNL     1     -37.843 -50.961  12.532  1.00  0.00     0.108 A 
HETATM   18  C   UNL     1     -37.438 -50.051  11.582  1.00  0.00     0.106 A 
HETATM   19  N   UNL     1     -38.517 -49.550  10.899  1.00  0.00    -0.361 N 
HETATM   20  C   UNL     1     -39.565 -50.143  11.425  1.00  0.00     0.182 A 
ATOM     21  HN  UNL     1     -38.507 -48.864  10.144  1.00  0.00     0.166 HD
ENDBRANCH  15  16
ENDBRANCH  14  15
ENDBRANCH   4  14
TORSDOF 5
ENDMDL
MODEL 4
REMARK VINA RESULT:      -5.4      2.754      3.508
REMARK  5 active torsions:
REMARK  status: ('A' for Active; 'I' for Inactive)
REMARK    1  A    between atoms: C_2  and  N_3 
REMARK    2  A    between atoms: C_2  and  C_15 
REMARK       I    between atoms: N_3  and  C_4 
REMARK       I    between atoms: C_4  and  N_6 
REMARK    3  A    between atoms: N_6  and  C_7 
REMARK    4  A    between atoms: C_7  and  C_8 
REMARK    5  A    between atoms: C_8  and  N_9 
ROOT
HETATM    1  N   UNL     1     -39.369 -49.146  11.420  1.00  0.00    -0.336 N 
HETATM    2  C   UNL     1     -39.680 -47.831  11.633  1.00  0.00     0.316 C 
HETATM    3  O   UNL     1     -39.402 -47.227  12.662  1.00  0.00    -0.247 OA
HETATM    4  N   UNL     1     -40.383 -47.264  10.598  1.00  0.00    -0.342 N 
HETATM    5  H   UNL     1     -39.464 -49.545  10.497  1.00  0.00     0.164 HD
HETATM    6  H   UNL     1     -40.246 -47.676   9.688  1.00  0.00     0.164 HD
ENDROOT
BRANCH   1   7
HETATM    7  C   UNL     1     -38.570 -49.907  12.390  1.00  0.00     0.111 C 
HETATM    8  C   UNL     1     -37.369 -50.537  11.680  1.00  0.00     0.035 C 
BRANCH   7   9
HETATM    9  C   UNL     1     -39.454 -50.932  13.130  1.00  0.00     0.143 C 
HETATM   10  C   UNL     1     -38.732 -51.765  14.184  1.00  0.00     0.036 C 
HETATM   11  C   UNL     1     -39.390 -53.128  14.117  1.00  0.00     0.029 C 
HETATM   12  C   UNL     1     -40.433 -53.004  13.027  1.00  0.00     0.168 C 
HETATM   13  O   UNL     1     -40.040 -51.884  12.223  1.00  0.00    -0.384 OA
ENDBRANCH   7   9
ENDBRANCH   1   7
BRANCH   4  14
HETATM   14  C   UNL     1     -40.733 -45.850  10.695  1.00  0.00     0.144 C 
BRANCH  14  15
HETATM   15  C   UNL     1     -42.184 -45.596  11.092  1.00  0.00     0.149 C 
BRANCH  15  16
HETATM   16  N   UNL     1     -43.117 -46.364  10.291  1.00  0.00    -0.350 N 
HETATM   17  C   UNL     1     -43.431 -46.148   8.979  1.00  0.00     0.108 A 
HETATM   18  C   UNL     1     -44.330 -47.141   8.660  1.00  0.00     0.106 A 
HETATM   19  N   UNL     1     -44.558 -47.953   9.741  1.00  0.00    -0.361 N 
HETATM   20  C   UNL     1     -43.813 -47.463  10.706  1.00  0.00     0.182 A 
ATOM     21  HN  UNL     1     -45.175 -48.765   9.786  1.00  0.00     0.166 HD
ENDBRANCH  15  16
ENDBRANCH  14  15
ENDBRANCH   4  14
TORSDOF 5
ENDMDL
MODEL 5
REMARK VINA RESULT:      -5.3      2.201      2.788
REMARK  5 active torsions:
REMARK  status: ('A' for Active; 'I' for Inactive)
REMARK    1  A    between atoms: C_2  and  N_3 
REMARK    2  A    between atoms: C_2  and  C_15 
REMARK       I    between atoms: N_3  and  C_4 
REMARK       I    between atoms: C_4  and  N_6 
REMARK    3  A    between atoms: N_6  and  C_7 
REMARK    4  A    between atoms: C_7  and  C_8 
REMARK    5  A    between atoms: C_8  and  N_9 
ROOT
HETATM    1  N   UNL     1     -44.109 -51.500  12.840  1.00  0.00    -0.336 N 
HETATM    2  C   UNL     1     -43.000 -50.702  12.899  1.00  0.00     0.316 C 
HETATM    3  O   UNL     1     -42.065 -50.897  13.666  1.00  0.00    -0.247 OA
HETATM    4  N   UNL     1     -43.059 -49.625  12.048  1.00  0.00    -0.342 N 
HETATM    5  H   UNL     1     -44.766 -51.398  12.080  1.00  0.00     0.164 HD
HETATM    6  H   UNL     1     -43.638 -49.734  11.230  1.00  0.00     0.164 HD
ENDROOT
BRANCH   1   7
HETATM    7  C   UNL     1     -44.205 -52.731  13.636  1.00  0.00     0.111 C 
HETATM    8  C   UNL     1     -43.979 -53.944  12.729  1.00  0.00     0.035 C 
BRANCH   7   9
HETATM    9  C   UNL     1     -45.544 -52.776  14.400  1.00  0.00     0.143 C 
HETATM   10  C   UNL     1     -46.438 -51.555  14.209  1.00  0.00     0.036 C 
HETATM   11  C   UNL     1     -47.121 -51.362  15.547  1.00  0.00     0.029 C 
HETATM   12  C   UNL     1     -46.572 -52.465  16.427  1.00  0.00     0.168 C 
HETATM   13  O   UNL     1     -45.344 -52.886  15.822  1.00  0.00    -0.384 OA
ENDBRANCH   7   9
ENDBRANCH   1   7
BRANCH   4  14
HETATM   14  C   UNL     1     -41.910 -48.726  11.993  1.00  0.00     0.144 C 
BRANCH  14  15
HETATM   15  C   UNL     1     -41.527 -48.294  10.581  1.00  0.00     0.149 C 
BRANCH  15  16
HETATM   16  N   UNL     1     -42.463 -47.338  10.023  1.00  0.00    -0.350 N 
HETATM   17  C   UNL     1     -43.358 -47.570   9.016  1.00  0.00     0.108 A 
HETATM   18  C   UNL     1     -44.035 -46.381   8.862  1.00  0.00     0.106 A 
HETATM   19  N   UNL     1     -43.579 -45.444   9.753  1.00  0.00    -0.361 N 
HETATM   20  C   UNL     1     -42.636 -46.050  10.440  1.00  0.00     0.182 A 
ATOM     21  HN  UNL     1     -43.902 -44.483   9.860  1.00  0.00     0.166 HD
ENDBRANCH  15  16
ENDBRANCH  14  15
ENDBRANCH   4  14
TORSDOF 5
ENDMDL
MODEL 6
REMARK VINA RESULT:      -5.2      2.492      3.735
REMARK  5 active torsions:
REMARK  status: ('A' for Active; 'I' for Inactive)
REMARK    1  A    between atoms: C_2  and  N_3 
REMARK    2  A    between atoms: C_2  and  C_15 
REMARK       I    between atoms: N_3  and  C_4 
REMARK       I    between atoms: C_4  and  N_6 
REMARK    3  A    between atoms: N_6  and  C_7 
REMARK    4  A    between atoms: C_7  and  C_8 
REMARK    5  A    between atoms: C_8  and  N_9 
ROOT
HETATM    1  N   UNL     1     -40.608 -50.001  10.961  1.00  0.00    -0.336 N 
HETATM    2  C   UNL     1     -41.620 -49.083  11.026  1.00  0.00     0.316 C 
HETATM    3  O   UNL     1     -42.314 -48.910  12.020  1.00  0.00    -0.247 OA
HETATM    4  N   UNL     1     -41.818 -48.407   9.846  1.00  0.00    -0.342 N 
HETATM    5  H   UNL     1     -39.960 -49.986  10.186  1.00  0.00     0.164 HD
HETATM    6  H   UNL     1     -41.018 -48.330   9.237  1.00  0.00     0.164 HD
ENDROOT
BRANCH   1   7
HETATM    7  C   UNL     1     -40.210 -50.782  12.140  1.00  0.00     0.111 C 
HETATM    8  C   UNL     1     -38.689 -50.719  12.305  1.00  0.00     0.035 C 
BRANCH   7   9
HETATM    9  C   UNL     1     -40.759 -52.220  12.045  1.00  0.00     0.143 C 
HETATM   10  C   UNL     1     -42.203 -52.391  12.507  1.00  0.00     0.036 C 
HETATM   11  C   UNL     1     -42.242 -53.760  13.155  1.00  0.00     0.029 C 
HETATM   12  C   UNL     1     -40.826 -54.285  13.042  1.00  0.00     0.168 C 
HETATM   13  O   UNL     1     -39.990 -53.139  12.843  1.00  0.00    -0.384 OA
ENDBRANCH   7   9
ENDBRANCH   1   7
BRANCH   4  14
HETATM   14  C   UNL     1     -42.845 -47.371   9.810  1.00  0.00     0.144 C 
BRANCH  14  15
HETATM   15  C   UNL     1     -42.294 -45.957   9.643  1.00  0.00     0.149 C 
BRANCH  15  16
HETATM   16  N   UNL     1     -41.452 -45.559  10.753  1.00  0.00    -0.350 N 
HETATM   17  C   UNL     1     -41.843 -45.400  12.053  1.00  0.00     0.108 A 
HETATM   18  C   UNL     1     -40.697 -45.046  12.729  1.00  0.00     0.106 A 
HETATM   19  N   UNL     1     -39.626 -44.997  11.874  1.00  0.00    -0.361 N 
HETATM   20  C   UNL     1     -40.110 -45.313  10.694  1.00  0.00     0.182 A 
ATOM     21  HN  UNL     1     -38.660 -44.765  12.105  1.00  0.00     0.166 HD
ENDBRANCH  15  16
ENDBRANCH  14  15
ENDBRANCH   4  14
TORSDOF 5
ENDMDL
MODEL 7
REMARK VINA RESULT:      -5.1      2.216      6.801
REMARK  5 active torsions:
REMARK  status: ('A' for Active; 'I' for Inactive)
REMARK    1  A    between atoms: C_2  and  N_3 
REMARK    2  A    between atoms: C_2  and  C_15 
REMARK       I    between atoms: N_3  and  C_4 
REMARK       I    between atoms: C_4  and  N_6 
REMARK    3  A    between atoms: N_6  and  C_7 
REMARK    4  A    between atoms: C_7  and  C_8 
REMARK    5  A    between atoms: C_8  and  N_9 
ROOT
HETATM    1  N   UNL     1     -43.258 -49.067  11.872  1.00  0.00    -0.336 N 
HETATM    2  C   UNL     1     -42.461 -50.099  12.285  1.00  0.00     0.316 C 
HETATM    3  O   UNL     1     -41.239 -50.035  12.331  1.00  0.00    -0.247 OA
HETATM    4  N   UNL     1     -43.164 -51.239  12.595  1.00  0.00    -0.342 N 
HETATM    5  H   UNL     1     -44.257 -49.111  12.014  1.00  0.00     0.164 HD
HETATM    6  H   UNL     1     -44.120 -51.107  12.885  1.00  0.00     0.164 HD
ENDROOT
BRANCH   1   7
HETATM    7  C   UNL     1     -42.693 -47.749  11.551  1.00  0.00     0.111 C 
HETATM    8  C   UNL     1     -42.933 -46.792  12.722  1.00  0.00     0.035 C 
BRANCH   7   9
HETATM    9  C   UNL     1     -43.254 -47.234  10.210  1.00  0.00     0.143 C 
HETATM   10  C   UNL     1     -44.756 -47.424  10.024  1.00  0.00     0.036 C 
HETATM   11  C   UNL     1     -44.929 -47.712   8.547  1.00  0.00     0.029 C 
HETATM   12  C   UNL     1     -43.526 -47.687   7.978  1.00  0.00     0.168 C 
HETATM   13  O   UNL     1     -42.642 -47.893   9.086  1.00  0.00    -0.384 OA
ENDBRANCH   7   9
ENDBRANCH   1   7
BRANCH   4  14
HETATM   14  C   UNL     1     -42.421 -52.394  13.089  1.00  0.00     0.144 C 
BRANCH  14  15
HETATM   15  C   UNL     1     -42.885 -52.892  14.455  1.00  0.00     0.149 C 
BRANCH  15  16
HETATM   16  N   UNL     1     -44.213 -53.471  14.408  1.00  0.00    -0.350 N 
HETATM   17  C   UNL     1     -45.280 -53.122  15.188  1.00  0.00     0.108 A 
HETATM   18  C   UNL     1     -46.313 -53.924  14.757  1.00  0.00     0.106 A 
HETATM   19  N   UNL     1     -45.900 -54.738  13.733  1.00  0.00    -0.361 N 
HETATM   20  C   UNL     1     -44.634 -54.441  13.544  1.00  0.00     0.182 A 
ATOM     21  HN  UNL     1     -46.458 -55.427  13.227  1.00  0.00     0.166 HD
ENDBRANCH  15  16
ENDBRANCH  14  15
ENDBRANCH   4  14
TORSDOF 5
ENDMDL
MODEL 8
REMARK VINA RESULT:      -5.1      2.731      4.143
REMARK  5 active torsions:
REMARK  status: ('A' for Active; 'I' for Inactive)
REMARK    1  A    between atoms: C_2  and  N_3 
REMARK    2  A    between atoms: C_2  and  C_15 
REMARK       I    between atoms: N_3  and  C_4 
REMARK       I    between atoms: C_4  and  N_6 
REMARK    3  A    between atoms: N_6  and  C_7 
REMARK    4  A    between atoms: C_7  and  C_8 
REMARK    5  A    between atoms: C_8  and  N_9 
ROOT
HETATM    1  N   UNL     1     -44.854 -51.235  13.038  1.00  0.00    -0.336 N 
HETATM    2  C   UNL     1     -43.523 -51.537  12.951  1.00  0.00     0.316 C 
HETATM    3  O   UNL     1     -43.095 -52.674  12.796  1.00  0.00    -0.247 OA
HETATM    4  N   UNL     1     -42.706 -50.444  13.107  1.00  0.00    -0.342 N 
HETATM    5  H   UNL     1     -45.159 -50.273  12.993  1.00  0.00     0.164 HD
HETATM    6  H   UNL     1     -43.104 -49.551  12.860  1.00  0.00     0.164 HD
ENDROOT
BRANCH   1   7
HETATM    7  C   UNL     1     -45.884 -52.265  12.841  1.00  0.00     0.111 C 
HETATM    8  C   UNL     1     -46.869 -51.801  11.765  1.00  0.00     0.035 C 
BRANCH   7   9
HETATM    9  C   UNL     1     -46.559 -52.616  14.183  1.00  0.00     0.143 C 
HETATM   10  C   UNL     1     -46.976 -51.417  15.029  1.00  0.00     0.036 C 
HETATM   11  C   UNL     1     -46.756 -51.860  16.461  1.00  0.00     0.029 C 
HETATM   12  C   UNL     1     -46.216 -53.270  16.355  1.00  0.00     0.168 C 
HETATM   13  O   UNL     1     -45.694 -53.399  15.027  1.00  0.00    -0.384 OA
ENDBRANCH   7   9
ENDBRANCH   1   7
BRANCH   4  14
HETATM   14  C   UNL     1     -41.264 -50.638  12.990  1.00  0.00     0.144 C 
BRANCH  14  15
HETATM   15  C   UNL     1     -40.711 -50.360  11.595  1.00  0.00     0.149 C 
BRANCH  15  16
HETATM   16  N   UNL     1     -40.668 -48.943  11.292  1.00  0.00    -0.350 N 
HETATM   17  C   UNL     1     -39.765 -48.037  11.773  1.00  0.00     0.108 A 
HETATM   18  C   UNL     1     -40.112 -46.841  11.184  1.00  0.00     0.106 A 
HETATM   19  N   UNL     1     -41.193 -47.005  10.356  1.00  0.00    -0.361 N 
HETATM   20  C   UNL     1     -41.503 -48.280  10.439  1.00  0.00     0.182 A 
ATOM     21  HN  UNL     1     -41.657 -46.290   9.796  1.00  0.00     0.166 HD
ENDBRANCH  15  16
ENDBRANCH  14  15
ENDBRANCH   4  14
TORSDOF 5
ENDMDL
MODEL 9
REMARK VINA RESULT:      -5.0      4.541      6.697
REMARK  5 active torsions:
REMARK  status: ('A' for Active; 'I' for Inactive)
REMARK    1  A    between atoms: C_2  and  N_3 
REMARK    2  A    between atoms: C_2  and  C_15 
REMARK       I    between atoms: N_3  and  C_4 
REMARK       I    between atoms: C_4  and  N_6 
REMARK    3  A    between atoms: N_6  and  C_7 
REMARK    4  A    between atoms: C_7  and  C_8 
REMARK    5  A    between atoms: C_8  and  N_9 
ROOT
HETATM    1  N   UNL     1     -39.915 -51.674  14.484  1.00  0.00    -0.336 N 
HETATM    2  C   UNL     1     -40.486 -52.705  13.789  1.00  0.00     0.316 C 
HETATM    3  O   UNL     1     -39.842 -53.567  13.205  1.00  0.00    -0.247 OA
HETATM    4  N   UNL     1     -41.859 -52.649  13.765  1.00  0.00    -0.342 N 
HETATM    5  H   UNL     1     -40.482 -51.094  15.086  1.00  0.00     0.164 HD
HETATM    6  H   UNL     1     -42.299 -52.169  14.534  1.00  0.00     0.164 HD
ENDROOT
BRANCH   1   7
HETATM    7  C   UNL     1     -38.459 -51.594  14.669  1.00  0.00     0.111 C 
HETATM    8  C   UNL     1     -38.149 -51.204  16.117  1.00  0.00     0.035 C 
BRANCH   7   9
HETATM    9  C   UNL     1     -37.836 -50.642  13.628  1.00  0.00     0.143 C 
HETATM   10  C   UNL     1     -38.708 -49.452  13.238  1.00  0.00     0.036 C 
HETATM   11  C   UNL     1     -38.415 -49.223  11.770  1.00  0.00     0.029 C 
HETATM   12  C   UNL     1     -37.412 -50.296  11.400  1.00  0.00     0.168 C 
HETATM   13  O   UNL     1     -37.539 -51.321  12.394  1.00  0.00    -0.384 OA
ENDBRANCH   7   9
ENDBRANCH   1   7
BRANCH   4  14
HETATM   14  C   UNL     1     -42.580 -53.723  13.087  1.00  0.00     0.144 C 
BRANCH  14  15
HETATM   15  C   UNL     1     -43.896 -53.281  12.452  1.00  0.00     0.149 C 
BRANCH  15  16
HETATM   16  N   UNL     1     -45.047 -53.670  13.242  1.00  0.00    -0.350 N 
HETATM   17  C   UNL     1     -45.211 -54.849  13.913  1.00  0.00     0.108 A 
HETATM   18  C   UNL     1     -46.437 -54.740  14.530  1.00  0.00     0.106 A 
HETATM   19  N   UNL     1     -47.011 -53.525  14.256  1.00  0.00    -0.361 N 
HETATM   20  C   UNL     1     -46.150 -52.902  13.482  1.00  0.00     0.182 A 
ATOM     21  HN  UNL     1     -47.913 -53.178  14.583  1.00  0.00     0.166 HD
ENDBRANCH  15  16
ENDBRANCH  14  15
ENDBRANCH   4  14
TORSDOF 5
ENDMDL
