MODEL 1
REMARK VINA RESULT:      -6.2      0.000      0.000
REMARK  6 active torsions:
REMARK  status: ('A' for Active; 'I' for Inactive)
REMARK    1  A    between atoms: C_2  and  C_3 
REMARK    2  A    between atoms: C_3  and  C_4 
REMARK    3  A    between atoms: C_4  and  N_5 
REMARK    4  A    between atoms: C_6  and  N_7 
REMARK    5  A    between atoms: C_8  and  N_9 
REMARK       I    between atoms: N_9  and  C_11 
REMARK    6  A    between atoms: C_11  and  C_13 
ROOT
HETATM    1  N   UNL     1     -45.101 -53.124  13.889  1.00  0.00    -0.288 N 
HETATM    2  C   UNL     1     -43.903 -52.415  13.656  1.00  0.00     0.117 C 
HETATM    3  C   UNL     1     -42.674 -52.895  14.064  1.00  0.00     0.144 C 
HETATM    4  C   UNL     1     -42.737 -54.334  14.588  1.00  0.00     0.279 C 
HETATM    5  O   UNL     1     -41.812 -54.946  15.110  1.00  0.00    -0.265 OA
HETATM    6  N   UNL     1     -43.907 -55.010  14.481  1.00  0.00    -0.273 N 
HETATM    7  C   UNL     1     -45.111 -54.451  14.256  1.00  0.00     0.330 C 
HETATM    8  O   UNL     1     -46.119 -55.149  14.380  1.00  0.00    -0.246 OA
HETATM    9  H   UNL     1     -43.916 -55.952  14.834  1.00  0.00     0.173 HD
ENDROOT
BRANCH   3  10
HETATM   10  N   UNL     1     -41.399 -52.188  14.029  1.00  0.00    -0.313 N 
HETATM   11  C   UNL     1     -40.805 -51.630  15.248  1.00  0.00     0.159 C 
HETATM   12  C   UNL     1     -40.687 -51.874  12.845  1.00  0.00     0.253 C 
HETATM   13  O   UNL     1     -41.153 -52.025  11.708  1.00  0.00    -0.270 OA
BRANCH  12  14
HETATM   14  C   UNL     1     -39.268 -51.200  12.916  1.00  0.00     0.213 C 
HETATM   15  C   UNL     1     -39.131 -50.154  11.801  1.00  0.00     0.044 C 
HETATM   16  C   UNL     1     -37.639 -49.970  11.613  1.00  0.00     0.029 C 
HETATM   17  C   UNL     1     -37.024 -50.950  12.582  1.00  0.00     0.168 C 
HETATM   18  O   UNL     1     -38.047 -51.922  12.831  1.00  0.00    -0.376 OA
ENDBRANCH  12  14
ENDBRANCH   3  10
BRANCH   2  19
HETATM   19  N   UNL     1     -44.071 -51.230  12.947  1.00  0.00    -0.286 NA
HETATM   20  H   UNL     1     -43.911 -50.456  13.594  1.00  0.00     0.125 HD
HETATM   21  H   UNL     1     -43.313 -51.088  12.281  1.00  0.00     0.125 HD
ENDBRANCH   2  19
BRANCH   1  22
HETATM   22  C   UNL     1     -46.411 -52.539  13.532  1.00  0.00     0.135 C 
BRANCH  22  23
HETATM   23  C   UNL     1     -46.926 -51.419  14.456  1.00  0.00     0.020 C 
BRANCH  23  24
HETATM   24  C   UNL     1     -46.712 -51.661  15.949  1.00  0.00    -0.003 C 
HETATM   25  C   UNL     1     -47.907 -51.140  16.745  1.00  0.00     0.005 C 
ENDBRANCH  23  24
ENDBRANCH  22  23
ENDBRANCH   1  22
TORSDOF 6
ENDMDL
MODEL 2
REMARK VINA RESULT:      -5.8      4.182      6.170
REMARK  6 active torsions:
REMARK  status: ('A' for Active; 'I' for Inactive)
REMARK    1  A    between atoms: C_2  and  C_3 
REMARK    2  A    between atoms: C_3  and  C_4 
REMARK    3  A    between atoms: C_4  and  N_5 
REMARK    4  A    between atoms: C_6  and  N_7 
REMARK    5  A    between atoms: C_8  and  N_9 
REMARK       I    between atoms: N_9  and  C_11 
REMARK    6  A    between atoms: C_11  and  C_13 
ROOT
HETATM    1  N   UNL     1     -42.195 -47.860  11.067  1.00  0.00    -0.288 N 
HETATM    2  C   UNL     1     -42.155 -49.099  11.742  1.00  0.00     0.117 C 
HETATM    3  C   UNL     1     -40.975 -49.784  11.950  1.00  0.00     0.144 C 
HETATM    4  C   UNL     1     -39.733 -48.971  11.566  1.00  0.00     0.279 C 
HETATM    5  O   UNL     1     -38.582 -49.389  11.549  1.00  0.00    -0.265 OA
HETATM    6  N   UNL     1     -39.897 -47.675  11.206  1.00  0.00    -0.273 N 
HETATM    7  C   UNL     1     -41.063 -47.110  10.839  1.00  0.00     0.330 C 
HETATM    8  O   UNL     1     -41.043 -45.982  10.343  1.00  0.00    -0.246 OA
HETATM    9  H   UNL     1     -39.063 -47.168  10.960  1.00  0.00     0.173 HD
ENDROOT
BRANCH   3  10
HETATM   10  N   UNL     1     -40.824 -51.134  12.481  1.00  0.00    -0.313 N 
HETATM   11  C   UNL     1     -41.361 -52.298  11.766  1.00  0.00     0.159 C 
HETATM   12  C   UNL     1     -40.274 -51.442  13.750  1.00  0.00     0.253 C 
HETATM   13  O   UNL     1     -40.011 -50.586  14.605  1.00  0.00    -0.270 OA
BRANCH  12  14
HETATM   14  C   UNL     1     -40.059 -52.935  14.192  1.00  0.00     0.213 C 
HETATM   15  C   UNL     1     -40.070 -53.033  15.723  1.00  0.00     0.044 C 
HETATM   16  C   UNL     1     -39.348 -54.326  16.043  1.00  0.00     0.029 C 
HETATM   17  C   UNL     1     -38.925 -54.852  14.692  1.00  0.00     0.168 C 
HETATM   18  O   UNL     1     -38.922 -53.708  13.829  1.00  0.00    -0.376 OA
ENDBRANCH  12  14
ENDBRANCH   3  10
BRANCH   2  19
HETATM   19  N   UNL     1     -43.391 -49.531  12.211  1.00  0.00    -0.286 NA
HETATM   20  H   UNL     1     -43.375 -49.470  13.231  1.00  0.00     0.125 HD
HETATM   21  H   UNL     1     -44.126 -48.861  11.987  1.00  0.00     0.125 HD
ENDBRANCH   2  19
BRANCH   1  22
HETATM   22  C   UNL     1     -43.483 -47.199  10.770  1.00  0.00     0.135 C 
BRANCH  22  23
HETATM   23  C   UNL     1     -44.082 -47.475   9.378  1.00  0.00     0.020 C 
BRANCH  23  24
HETATM   24  C   UNL     1     -45.534 -47.034   9.198  1.00  0.00    -0.003 C 
HETATM   25  C   UNL     1     -46.404 -48.230   8.818  1.00  0.00     0.005 C 
ENDBRANCH  23  24
ENDBRANCH  22  23
ENDBRANCH   1  22
TORSDOF 6
ENDMDL
MODEL 3
REMARK VINA RESULT:      -5.8      3.021      4.858
REMARK  6 active torsions:
REMARK  status: ('A' for Active; 'I' for Inactive)
REMARK    1  A    between atoms: C_2  and  C_3 
REMARK    2  A    between atoms: C_3  and  C_4 
REMARK    3  A    between atoms: C_4  and  N_5 
REMARK    4  A    between atoms: C_6  and  N_7 
REMARK    5  A    between atoms: C_8  and  N_9 
REMARK       I    between atoms: N_9  and  C_11 
REMARK    6  A    between atoms: C_11  and  C_13 
ROOT
HETATM    1  N   UNL     1     -40.675 -53.266  13.394  1.00  0.00    -0.288 N 
HETATM    2  C   UNL     1     -40.416 -52.120  12.611  1.00  0.00     0.117 C 
HETATM    3  C   UNL     1     -39.496 -51.164  12.991  1.00  0.00     0.144 C 
HETATM    4  C   UNL     1     -38.663 -51.583  14.208  1.00  0.00     0.279 C 
HETATM    5  O   UNL     1     -37.863 -50.874  14.806  1.00  0.00    -0.265 OA
HETATM    6  N   UNL     1     -38.809 -52.843  14.687  1.00  0.00    -0.273 N 
HETATM    7  C   UNL     1     -39.838 -53.667  14.412  1.00  0.00     0.330 C 
HETATM    8  O   UNL     1     -39.956 -54.704  15.066  1.00  0.00    -0.246 OA
HETATM    9  H   UNL     1     -38.249 -53.088  15.487  1.00  0.00     0.173 HD
ENDROOT
BRANCH   3  10
HETATM   10  N   UNL     1     -39.261 -49.871  12.359  1.00  0.00    -0.313 N 
HETATM   11  C   UNL     1     -38.074 -49.633  11.531  1.00  0.00     0.159 C 
HETATM   12  C   UNL     1     -40.058 -48.718  12.569  1.00  0.00     0.253 C 
HETATM   13  O   UNL     1     -40.940 -48.647  13.434  1.00  0.00    -0.270 OA
BRANCH  12  14
HETATM   14  C   UNL     1     -39.785 -47.396  11.763  1.00  0.00     0.213 C 
HETATM   15  C   UNL     1     -39.640 -46.215  12.731  1.00  0.00     0.044 C 
HETATM   16  C   UNL     1     -39.918 -44.982  11.897  1.00  0.00     0.029 C 
HETATM   17  C   UNL     1     -40.255 -45.532  10.532  1.00  0.00     0.168 C 
HETATM   18  O   UNL     1     -40.660 -46.887  10.764  1.00  0.00    -0.376 OA
ENDBRANCH  12  14
ENDBRANCH   3  10
BRANCH   2  19
HETATM   19  N   UNL     1     -41.131 -52.073  11.419  1.00  0.00    -0.286 NA
HETATM   20  H   UNL     1     -41.041 -52.984  10.967  1.00  0.00     0.125 HD
HETATM   21  H   UNL     1     -42.135 -52.039  11.592  1.00  0.00     0.125 HD
ENDBRANCH   2  19
BRANCH   1  22
HETATM   22  C   UNL     1     -41.738 -54.221  13.014  1.00  0.00     0.135 C 
BRANCH  22  23
HETATM   23  C   UNL     1     -43.048 -54.131  13.818  1.00  0.00     0.020 C 
BRANCH  23  24
HETATM   24  C   UNL     1     -44.327 -54.191  12.983  1.00  0.00    -0.003 C 
HETATM   25  C   UNL     1     -45.383 -55.031  13.696  1.00  0.00     0.005 C 
ENDBRANCH  23  24
ENDBRANCH  22  23
ENDBRANCH   1  22
TORSDOF 6
ENDMDL
MODEL 4
REMARK VINA RESULT:      -5.8      2.284      2.884
REMARK  6 active torsions:
REMARK  status: ('A' for Active; 'I' for Inactive)
REMARK    1  A    between atoms: C_2  and  C_3 
REMARK    2  A    between atoms: C_3  and  C_4 
REMARK    3  A    between atoms: C_4  and  N_5 
REMARK    4  A    between atoms: C_6  and  N_7 
REMARK    5  A    between atoms: C_8  and  N_9 
REMARK       I    between atoms: N_9  and  C_11 
REMARK    6  A    between atoms: C_11  and  C_13 
ROOT
HETATM    1  N   UNL     1     -44.010 -51.752  13.044  1.00  0.00    -0.288 N 
HETATM    2  C   UNL     1     -42.929 -50.844  13.020  1.00  0.00     0.117 C 
HETATM    3  C   UNL     1     -41.635 -51.250  12.763  1.00  0.00     0.144 C 
HETATM    4  C   UNL     1     -41.543 -52.712  12.312  1.00  0.00     0.279 C 
HETATM    5  O   UNL     1     -40.507 -53.342  12.133  1.00  0.00    -0.265 OA
HETATM    6  N   UNL     1     -42.694 -53.392  12.089  1.00  0.00    -0.273 N 
HETATM    7  C   UNL     1     -43.913 -53.025  12.528  1.00  0.00     0.330 C 
HETATM    8  O   UNL     1     -44.843 -53.828  12.433  1.00  0.00    -0.246 OA
HETATM    9  H   UNL     1     -42.601 -54.350  11.795  1.00  0.00     0.173 HD
ENDROOT
BRANCH   3  10
HETATM   10  N   UNL     1     -40.423 -50.445  12.871  1.00  0.00    -0.313 N 
HETATM   11  C   UNL     1     -39.812 -49.828  11.690  1.00  0.00     0.159 C 
HETATM   12  C   UNL     1     -39.672 -50.281  14.062  1.00  0.00     0.253 C 
HETATM   13  O   UNL     1     -39.876 -50.934  15.093  1.00  0.00    -0.270 OA
BRANCH  12  14
HETATM   14  C   UNL     1     -38.436 -49.310  14.103  1.00  0.00     0.213 C 
HETATM   15  C   UNL     1     -37.469 -49.743  15.212  1.00  0.00     0.044 C 
HETATM   16  C   UNL     1     -36.646 -48.510  15.526  1.00  0.00     0.029 C 
HETATM   17  C   UNL     1     -37.225 -47.446  14.624  1.00  0.00     0.168 C 
HETATM   18  O   UNL     1     -38.543 -47.906  14.301  1.00  0.00    -0.376 OA
ENDBRANCH  12  14
ENDBRANCH   3  10
BRANCH   2  19
HETATM   19  N   UNL     1     -43.294 -49.518  13.229  1.00  0.00    -0.286 NA
HETATM   20  H   UNL     1     -42.989 -49.257  14.168  1.00  0.00     0.125 HD
HETATM   21  H   UNL     1     -42.733 -48.887  12.659  1.00  0.00     0.125 HD
ENDBRANCH   2  19
BRANCH   1  22
HETATM   22  C   UNL     1     -45.367 -51.305  13.422  1.00  0.00     0.135 C 
BRANCH  22  23
HETATM   23  C   UNL     1     -45.719 -51.397  14.919  1.00  0.00     0.020 C 
BRANCH  23  24
HETATM   24  C   UNL     1     -47.204 -51.585  15.225  1.00  0.00    -0.003 C 
HETATM   25  C   UNL     1     -47.491 -51.228  16.681  1.00  0.00     0.005 C 
ENDBRANCH  23  24
ENDBRANCH  22  23
ENDBRANCH   1  22
TORSDOF 6
ENDMDL
MODEL 5
REMARK VINA RESULT:      -5.6      1.878      2.272
REMARK  6 active torsions:
REMARK  status: ('A' for Active; 'I' for Inactive)
REMARK    1  A    between atoms: C_2  and  C_3 
REMARK    2  A    between atoms: C_3  and  C_4 
REMARK    3  A    between atoms: C_4  and  N_5 
REMARK    4  A    between atoms: C_6  and  N_7 
REMARK    5  A    between atoms: C_8  and  N_9 
REMARK       I    between atoms: N_9  and  C_11 
REMARK    6  A    between atoms: C_11  and  C_13 
ROOT
HETATM    1  N   UNL     1     -44.520 -53.578  13.404  1.00  0.00    -0.288 N 
HETATM    2  C   UNL     1     -43.176 -53.154  13.320  1.00  0.00     0.117 C 
HETATM    3  C   UNL     1     -42.194 -53.661  14.147  1.00  0.00     0.144 C 
HETATM    4  C   UNL     1     -42.673 -54.849  14.990  1.00  0.00     0.279 C 
HETATM    5  O   UNL     1     -42.033 -55.401  15.877  1.00  0.00    -0.265 OA
HETATM    6  N   UNL     1     -43.911 -55.349  14.755  1.00  0.00    -0.273 N 
HETATM    7  C   UNL     1     -44.892 -54.717  14.084  1.00  0.00     0.330 C 
HETATM    8  O   UNL     1     -46.029 -55.190  14.114  1.00  0.00    -0.246 OA
HETATM    9  H   UNL     1     -44.196 -56.129  15.324  1.00  0.00     0.173 HD
ENDROOT
BRANCH   3  10
HETATM   10  N   UNL     1     -40.819 -53.190  14.269  1.00  0.00    -0.313 N 
HETATM   11  C   UNL     1     -39.698 -53.967  13.729  1.00  0.00     0.159 C 
HETATM   12  C   UNL     1     -40.425 -52.041  14.998  1.00  0.00     0.253 C 
HETATM   13  O   UNL     1     -41.188 -51.409  15.740  1.00  0.00    -0.270 OA
BRANCH  12  14
HETATM   14  C   UNL     1     -38.930 -51.556  14.986  1.00  0.00     0.213 C 
HETATM   15  C   UNL     1     -38.410 -51.431  16.424  1.00  0.00     0.044 C 
HETATM   16  C   UNL     1     -37.227 -50.488  16.337  1.00  0.00     0.029 C 
HETATM   17  C   UNL     1     -37.179 -50.095  14.880  1.00  0.00     0.168 C 
HETATM   18  O   UNL     1     -38.500 -50.343  14.382  1.00  0.00    -0.376 OA
ENDBRANCH  12  14
ENDBRANCH   3  10
BRANCH   2  19
HETATM   19  N   UNL     1     -42.934 -52.228  12.311  1.00  0.00    -0.286 NA
HETATM   20  H   UNL     1     -42.156 -51.638  12.612  1.00  0.00     0.125 HD
HETATM   21  H   UNL     1     -42.531 -52.677  11.489  1.00  0.00     0.125 HD
ENDBRANCH   2  19
BRANCH   1  22
HETATM   22  C   UNL     1     -45.569 -52.945  12.575  1.00  0.00     0.135 C 
BRANCH  22  23
HETATM   23  C   UNL     1     -46.098 -51.587  13.074  1.00  0.00     0.020 C 
BRANCH  23  24
HETATM   24  C   UNL     1     -46.768 -51.618  14.447  1.00  0.00    -0.003 C 
HETATM   25  C   UNL     1     -45.797 -51.129  15.519  1.00  0.00     0.005 C 
ENDBRANCH  23  24
ENDBRANCH  22  23
ENDBRANCH   1  22
TORSDOF 6
ENDMDL
MODEL 6
REMARK VINA RESULT:      -5.6      3.219      4.349
REMARK  6 active torsions:
REMARK  status: ('A' for Active; 'I' for Inactive)
REMARK    1  A    between atoms: C_2  and  C_3 
REMARK    2  A    between atoms: C_3  and  C_4 
REMARK    3  A    between atoms: C_4  and  N_5 
REMARK    4  A    between atoms: C_6  and  N_7 
REMARK    5  A    between atoms: C_8  and  N_9 
REMARK       I    between atoms: N_9  and  C_11 
REMARK    6  A    between atoms: C_11  and  C_13 
ROOT
HETATM    1  N   UNL     1     -42.761 -52.063  13.210  1.00  0.00    -0.288 N 
HETATM    2  C   UNL     1     -42.471 -50.702  12.973  1.00  0.00     0.117 C 
HETATM    3  C   UNL     1     -41.192 -50.262  12.697  1.00  0.00     0.144 C 
HETATM    4  C   UNL     1     -40.198 -51.408  12.474  1.00  0.00     0.279 C 
HETATM    5  O   UNL     1     -38.988 -51.286  12.326  1.00  0.00    -0.265 OA
HETATM    6  N   UNL     1     -40.673 -52.676  12.436  1.00  0.00    -0.273 N 
HETATM    7  C   UNL     1     -41.877 -53.070  12.892  1.00  0.00     0.330 C 
HETATM    8  O   UNL     1     -42.108 -54.277  12.985  1.00  0.00    -0.246 OA
HETATM    9  H   UNL     1     -39.996 -53.406  12.287  1.00  0.00     0.173 HD
ENDROOT
BRANCH   3  10
HETATM   10  N   UNL     1     -40.741 -48.878  12.599  1.00  0.00    -0.313 N 
HETATM   11  C   UNL     1     -40.011 -48.236  13.697  1.00  0.00     0.159 C 
HETATM   12  C   UNL     1     -41.052 -48.006  11.526  1.00  0.00     0.253 C 
HETATM   13  O   UNL     1     -41.871 -48.280  10.640  1.00  0.00    -0.270 OA
BRANCH  12  14
HETATM   14  C   UNL     1     -40.433 -46.563  11.460  1.00  0.00     0.213 C 
HETATM   15  C   UNL     1     -41.527 -45.514  11.703  1.00  0.00     0.044 C 
HETATM   16  C   UNL     1     -40.986 -44.231  11.107  1.00  0.00     0.029 C 
HETATM   17  C   UNL     1     -39.655 -44.634  10.518  1.00  0.00     0.168 C 
HETATM   18  O   UNL     1     -39.745 -46.051  10.326  1.00  0.00    -0.376 OA
ENDBRANCH  12  14
ENDBRANCH   3  10
BRANCH   2  19
HETATM   19  N   UNL     1     -43.585 -49.870  12.998  1.00  0.00    -0.286 NA
HETATM   20  H   UNL     1     -43.259 -48.922  13.195  1.00  0.00     0.125 HD
HETATM   21  H   UNL     1     -43.977 -49.751  12.064  1.00  0.00     0.125 HD
ENDBRANCH   2  19
BRANCH   1  22
HETATM   22  C   UNL     1     -44.121 -52.492  13.602  1.00  0.00     0.135 C 
BRANCH  22  23
HETATM   23  C   UNL     1     -45.083 -52.831  12.449  1.00  0.00     0.020 C 
BRANCH  23  24
HETATM   24  C   UNL     1     -46.413 -52.079  12.472  1.00  0.00    -0.003 C 
HETATM   25  C   UNL     1     -46.666 -51.499  13.862  1.00  0.00     0.005 C 
ENDBRANCH  23  24
ENDBRANCH  22  23
ENDBRANCH   1  22
TORSDOF 6
ENDMDL
MODEL 7
REMARK VINA RESULT:      -5.5      3.953      5.747
REMARK  6 active torsions:
REMARK  status: ('A' for Active; 'I' for Inactive)
REMARK    1  A    between atoms: C_2  and  C_3 
REMARK    2  A    between atoms: C_3  and  C_4 
REMARK    3  A    between atoms: C_4  and  N_5 
REMARK    4  A    between atoms: C_6  and  N_7 
REMARK    5  A    between atoms: C_8  and  N_9 
REMARK       I    between atoms: N_9  and  C_11 
REMARK    6  A    between atoms: C_11  and  C_13 
ROOT
HETATM    1  N   UNL     1     -41.745 -51.620  12.992  1.00  0.00    -0.288 N 
HETATM    2  C   UNL     1     -42.186 -50.388  12.463  1.00  0.00     0.117 C 
HETATM    3  C   UNL     1     -41.320 -49.494  11.866  1.00  0.00     0.144 C 
HETATM    4  C   UNL     1     -39.912 -50.067  11.661  1.00  0.00     0.279 C 
HETATM    5  O   UNL     1     -38.938 -49.443  11.258  1.00  0.00    -0.265 OA
HETATM    6  N   UNL     1     -39.701 -51.375  11.946  1.00  0.00    -0.273 N 
HETATM    7  C   UNL     1     -40.509 -52.150  12.693  1.00  0.00     0.330 C 
HETATM    8  O   UNL     1     -40.105 -53.260  13.044  1.00  0.00    -0.246 OA
HETATM    9  H   UNL     1     -38.767 -51.721  11.800  1.00  0.00     0.173 HD
ENDROOT
BRANCH   3  10
HETATM   10  N   UNL     1     -41.621 -48.134  11.434  1.00  0.00    -0.313 N 
HETATM   11  C   UNL     1     -42.204 -47.866  10.115  1.00  0.00     0.159 C 
HETATM   12  C   UNL     1     -41.285 -46.966  12.164  1.00  0.00     0.253 C 
HETATM   13  O   UNL     1     -40.558 -46.973  13.166  1.00  0.00    -0.270 OA
BRANCH  12  14
HETATM   14  C   UNL     1     -41.744 -45.548  11.664  1.00  0.00     0.213 C 
HETATM   15  C   UNL     1     -40.517 -44.695  11.316  1.00  0.00     0.044 C 
HETATM   16  C   UNL     1     -41.001 -43.261  11.375  1.00  0.00     0.029 C 
HETATM   17  C   UNL     1     -42.444 -43.380  11.802  1.00  0.00     0.168 C 
HETATM   18  O   UNL     1     -42.543 -44.661  12.436  1.00  0.00    -0.376 OA
ENDBRANCH  12  14
ENDBRANCH   3  10
BRANCH   2  19
HETATM   19  N   UNL     1     -43.559 -50.187  12.556  1.00  0.00    -0.286 NA
HETATM   20  H   UNL     1     -43.941 -50.929  13.145  1.00  0.00     0.125 HD
HETATM   21  H   UNL     1     -43.773 -49.363  13.117  1.00  0.00     0.125 HD
ENDBRANCH   2  19
BRANCH   1  22
HETATM   22  C   UNL     1     -42.676 -52.512  13.715  1.00  0.00     0.135 C 
BRANCH  22  23
HETATM   23  C   UNL     1     -43.353 -53.610  12.873  1.00  0.00     0.020 C 
BRANCH  23  24
HETATM   24  C   UNL     1     -44.871 -53.703  13.030  1.00  0.00    -0.003 C 
HETATM   25  C   UNL     1     -45.249 -55.003  13.737  1.00  0.00     0.005 C 
ENDBRANCH  23  24
ENDBRANCH  22  23
ENDBRANCH   1  22
TORSDOF 6
ENDMDL
MODEL 8
REMARK VINA RESULT:      -5.4      2.405      3.232
REMARK  6 active torsions:
REMARK  status: ('A' for Active; 'I' for Inactive)
REMARK    1  A    between atoms: C_2  and  C_3 
REMARK    2  A    between atoms: C_3  and  C_4 
REMARK    3  A    between atoms: C_4  and  N_5 
REMARK    4  A    between atoms: C_6  and  N_7 
REMARK    5  A    between atoms: C_8  and  N_9 
REMARK       I    between atoms: N_9  and  C_11 
REMARK    6  A    between atoms: C_11  and  C_13 
ROOT
HETATM    1  N   UNL     1     -43.993 -54.211  14.034  1.00  0.00    -0.288 N 
HETATM    2  C   UNL     1     -43.551 -53.217  13.133  1.00  0.00     0.117 C 
HETATM    3  C   UNL     1     -42.367 -52.533  13.319  1.00  0.00     0.144 C 
HETATM    4  C   UNL     1     -41.515 -53.105  14.458  1.00  0.00     0.279 C 
HETATM    5  O   UNL     1     -40.481 -52.613  14.895  1.00  0.00    -0.265 OA
HETATM    6  N   UNL     1     -41.922 -54.252  15.054  1.00  0.00    -0.273 N 
HETATM    7  C   UNL     1     -43.160 -54.776  14.974  1.00  0.00     0.330 C 
HETATM    8  O   UNL     1     -43.457 -55.709  15.721  1.00  0.00    -0.246 OA
HETATM    9  H   UNL     1     -41.341 -54.603  15.798  1.00  0.00     0.173 HD
ENDROOT
BRANCH   3  10
HETATM   10  N   UNL     1     -41.888 -51.384  12.559  1.00  0.00    -0.313 N 
HETATM   11  C   UNL     1     -40.659 -51.458  11.762  1.00  0.00     0.159 C 
HETATM   12  C   UNL     1     -42.468 -50.092  12.604  1.00  0.00     0.253 C 
HETATM   13  O   UNL     1     -43.343 -49.765  13.416  1.00  0.00    -0.270 OA
BRANCH  12  14
HETATM   14  C   UNL     1     -41.943 -48.943  11.669  1.00  0.00     0.213 C 
HETATM   15  C   UNL     1     -41.279 -47.846  12.513  1.00  0.00     0.044 C 
HETATM   16  C   UNL     1     -41.301 -46.607  11.641  1.00  0.00     0.029 C 
HETATM   17  C   UNL     1     -42.018 -47.054  10.390  1.00  0.00     0.168 C 
HETATM   18  O   UNL     1     -42.774 -48.206  10.782  1.00  0.00    -0.376 OA
ENDBRANCH  12  14
ENDBRANCH   3  10
BRANCH   2  19
HETATM   19  N   UNL     1     -44.386 -53.033  12.036  1.00  0.00    -0.286 NA
HETATM   20  H   UNL     1     -45.168 -53.684  12.128  1.00  0.00     0.125 HD
HETATM   21  H   UNL     1     -44.870 -52.137  12.088  1.00  0.00     0.125 HD
ENDBRANCH   2  19
BRANCH   1  22
HETATM   22  C   UNL     1     -45.313 -54.855  13.865  1.00  0.00     0.135 C 
BRANCH  22  23
HETATM   23  C   UNL     1     -46.444 -54.329  14.768  1.00  0.00     0.020 C 
BRANCH  23  24
HETATM   24  C   UNL     1     -47.012 -52.967  14.368  1.00  0.00    -0.003 C 
HETATM   25  C   UNL     1     -46.609 -51.907  15.390  1.00  0.00     0.005 C 
ENDBRANCH  23  24
ENDBRANCH  22  23
ENDBRANCH   1  22
TORSDOF 6
ENDMDL
MODEL 9
REMARK VINA RESULT:      -5.2      2.406      2.753
REMARK  6 active torsions:
REMARK  status: ('A' for Active; 'I' for Inactive)
REMARK    1  A    between atoms: C_2  and  C_3 
REMARK    2  A    between atoms: C_3  and  C_4 
REMARK    3  A    between atoms: C_4  and  N_5 
REMARK    4  A    between atoms: C_6  and  N_7 
REMARK    5  A    between atoms: C_8  and  N_9 
REMARK       I    between atoms: N_9  and  C_11 
REMARK    6  A    between atoms: C_11  and  C_13 
ROOT
HETATM    1  N   UNL     1     -43.904 -53.106  14.110  1.00  0.00    -0.288 N 
HETATM    2  C   UNL     1     -42.903 -52.214  14.553  1.00  0.00     0.117 C 
HETATM    3  C   UNL     1     -41.690 -52.092  13.907  1.00  0.00     0.144 C 
HETATM    4  C   UNL     1     -41.639 -52.853  12.577  1.00  0.00     0.279 C 
HETATM    5  O   UNL     1     -40.647 -52.996  11.872  1.00  0.00    -0.265 OA
HETATM    6  N   UNL     1     -42.777 -53.431  12.120  1.00  0.00    -0.273 N 
HETATM    7  C   UNL     1     -43.873 -53.685  12.860  1.00  0.00     0.330 C 
HETATM    8  O   UNL     1     -44.760 -54.393  12.381  1.00  0.00    -0.246 OA
HETATM    9  H   UNL     1     -42.712 -53.923  11.245  1.00  0.00     0.173 HD
ENDROOT
BRANCH   3  10
HETATM   10  N   UNL     1     -40.526 -51.337  14.357  1.00  0.00    -0.313 N 
HETATM   11  C   UNL     1     -39.411 -51.996  15.045  1.00  0.00     0.159 C 
HETATM   12  C   UNL     1     -40.408 -49.926  14.288  1.00  0.00     0.253 C 
HETATM   13  O   UNL     1     -41.347 -49.177  13.987  1.00  0.00    -0.270 OA
BRANCH  12  14
HETATM   14  C   UNL     1     -39.072 -49.211  14.704  1.00  0.00     0.213 C 
HETATM   15  C   UNL     1     -39.344 -48.215  15.839  1.00  0.00     0.044 C 
HETATM   16  C   UNL     1     -38.188 -47.238  15.796  1.00  0.00     0.029 C 
HETATM   17  C   UNL     1     -37.364 -47.699  14.617  1.00  0.00     0.168 C 
HETATM   18  O   UNL     1     -38.266 -48.461  13.805  1.00  0.00    -0.376 OA
ENDBRANCH  12  14
ENDBRANCH   3  10
BRANCH   2  19
HETATM   19  N   UNL     1     -43.271 -51.449  15.655  1.00  0.00    -0.286 NA
HETATM   20  H   UNL     1     -42.877 -50.515  15.530  1.00  0.00     0.125 HD
HETATM   21  H   UNL     1     -44.269 -51.243  15.644  1.00  0.00     0.125 HD
ENDBRANCH   2  19
BRANCH   1  22
HETATM   22  C   UNL     1     -45.153 -53.289  14.880  1.00  0.00     0.135 C 
BRANCH  22  23
HETATM   23  C   UNL     1     -46.411 -52.616  14.299  1.00  0.00     0.020 C 
BRANCH  23  24
HETATM   24  C   UNL     1     -46.777 -51.273  14.930  1.00  0.00    -0.003 C 
HETATM   25  C   UNL     1     -47.473 -51.494  16.271  1.00  0.00     0.005 C 
ENDBRANCH  23  24
ENDBRANCH  22  23
ENDBRANCH   1  22
TORSDOF 6
ENDMDL
