MODEL 1
REMARK VINA RESULT:      -6.1      0.000      0.000
REMARK  5 active torsions:
REMARK  status: ('A' for Active; 'I' for Inactive)
REMARK    1  A    between atoms: N_2  and  C_4 
REMARK    2  A    between atoms: N_7  and  C_10 
REMARK    3  A    between atoms: C_10  and  C_13 
REMARK    4  A    between atoms: C_13  and  N_14 
REMARK       I    between atoms: N_14  and  C_15 
REMARK       I    between atoms: C_15  and  N_17 
REMARK    5  A    between atoms: N_17  and  C_18 
ROOT
HETATM    1  C   UNL     1     -40.267 -49.107  11.643  1.00  0.00     0.154 C 
ENDROOT
BRANCH   1   2
HETATM    2  C   UNL     1     -40.885 -49.946  12.835  1.00  0.00     0.036 C 
HETATM    3  C   UNL     1     -41.084 -48.980  14.026  1.00  0.00     0.039 C 
HETATM    4  C   UNL     1     -39.828 -50.997  13.275  1.00  0.00     0.039 C 
BRANCH   2   5
HETATM    5  N   UNL     1     -42.131 -50.630  12.368  1.00  0.00    -0.403 N 
HETATM    6  C   UNL     1     -43.416 -50.245  12.960  1.00  0.00     0.119 C 
HETATM    7  C   UNL     1     -43.771 -51.008  14.238  1.00  0.00     0.055 C 
HETATM    8  C   UNL     1     -43.734 -52.547  14.075  1.00  0.00     0.225 C 
HETATM    9  C   UNL     1     -42.386 -52.904  13.405  1.00  0.00     0.055 C 
HETATM   10  C   UNL     1     -42.119 -52.082  12.144  1.00  0.00     0.119 C 
BRANCH   8  11
HETATM   11  N   UNL     1     -44.911 -53.116  13.357  1.00  0.00     0.084 N 
HETATM   12  C   UNL     1     -44.975 -54.581  13.503  1.00  0.00     0.309 C 
HETATM   13  C   UNL     1     -46.185 -52.575  13.854  1.00  0.00     0.309 C 
ENDBRANCH   8  11
ENDBRANCH   2   5
ENDBRANCH   1   2
BRANCH   1  14
HETATM   14  N   UNL     1     -41.157 -48.963  10.495  1.00  0.00    -0.341 N 
HETATM   15  C   UNL     1     -42.124 -47.988  10.436  1.00  0.00     0.320 C 
HETATM   16  O   UNL     1     -42.205 -47.069  11.239  1.00  0.00    -0.247 OA
HETATM   17  N   UNL     1     -43.033 -48.268   9.438  1.00  0.00    -0.308 N 
HETATM   18  H   UNL     1     -43.138 -49.257   9.264  1.00  0.00     0.170 HD
HETATM   19  H   UNL     1     -40.847 -49.336   9.608  1.00  0.00     0.164 HD
BRANCH  17  20
HETATM   20  C   UNL     1     -44.169 -47.464   9.225  1.00  0.00     0.051 A 
HETATM   21  C   UNL     1     -45.431 -48.054   9.269  1.00  0.00     0.032 A 
HETATM   22  C   UNL     1     -46.563 -47.255   9.117  1.00  0.00     0.019 A 
HETATM   23  C   UNL     1     -46.388 -45.903   8.872  1.00  0.00     0.088 A 
HETATM   24  N   UNL     1     -45.182 -45.306   8.780  1.00  0.00    -0.373 N 
HETATM   25  C   UNL     1     -44.098 -46.095   8.978  1.00  0.00     0.117 A 
ATOM     26  HN  UNL     1     -45.090 -44.311   8.572  1.00  0.00     0.164 HD
ENDBRANCH  17  20
ENDBRANCH   1  14
TORSDOF 5
ENDMDL
MODEL 2
REMARK VINA RESULT:      -6.0      3.560      5.628
REMARK  5 active torsions:
REMARK  status: ('A' for Active; 'I' for Inactive)
REMARK    1  A    between atoms: N_2  and  C_4 
REMARK    2  A    between atoms: N_7  and  C_10 
REMARK    3  A    between atoms: C_10  and  C_13 
REMARK    4  A    between atoms: C_13  and  N_14 
REMARK       I    between atoms: N_14  and  C_15 
REMARK       I    between atoms: C_15  and  N_17 
REMARK    5  A    between atoms: N_17  and  C_18 
ROOT
HETATM    1  C   UNL     1     -43.639 -53.822  12.950  1.00  0.00     0.154 C 
ENDROOT
BRANCH   1   2
HETATM    2  C   UNL     1     -45.037 -53.441  13.587  1.00  0.00     0.036 C 
HETATM    3  C   UNL     1     -45.768 -54.762  13.922  1.00  0.00     0.039 C 
HETATM    4  C   UNL     1     -45.877 -52.722  12.495  1.00  0.00     0.039 C 
BRANCH   2   5
HETATM    5  N   UNL     1     -44.820 -52.531  14.755  1.00  0.00    -0.403 N 
HETATM    6  C   UNL     1     -44.576 -53.119  16.076  1.00  0.00     0.119 C 
HETATM    7  C   UNL     1     -45.847 -53.430  16.868  1.00  0.00     0.055 C 
HETATM    8  C   UNL     1     -46.794 -52.215  17.026  1.00  0.00     0.225 C 
HETATM    9  C   UNL     1     -46.986 -51.599  15.621  1.00  0.00     0.055 C 
HETATM   10  C   UNL     1     -45.660 -51.336  14.907  1.00  0.00     0.119 C 
BRANCH   8  11
HETATM   11  N   UNL     1     -46.351 -51.219  18.044  1.00  0.00     0.084 N 
HETATM   12  C   UNL     1     -47.298 -50.095  18.147  1.00  0.00     0.309 C 
HETATM   13  C   UNL     1     -46.230 -51.807  19.387  1.00  0.00     0.309 C 
ENDBRANCH   8  11
ENDBRANCH   2   5
ENDBRANCH   1   2
BRANCH   1  14
HETATM   14  N   UNL     1     -43.088 -52.795  12.071  1.00  0.00    -0.341 N 
HETATM   15  C   UNL     1     -42.103 -51.929  12.483  1.00  0.00     0.320 C 
HETATM   16  O   UNL     1     -41.492 -52.055  13.535  1.00  0.00    -0.247 OA
HETATM   17  N   UNL     1     -42.001 -50.863  11.615  1.00  0.00    -0.308 N 
HETATM   18  H   UNL     1     -42.874 -50.638  11.160  1.00  0.00     0.170 HD
HETATM   19  H   UNL     1     -43.167 -52.935  11.072  1.00  0.00     0.164 HD
BRANCH  17  20
HETATM   20  C   UNL     1     -41.120 -49.792  11.857  1.00  0.00     0.051 A 
HETATM   21  C   UNL     1     -41.550 -48.731  12.651  1.00  0.00     0.032 A 
HETATM   22  C   UNL     1     -40.664 -47.695  12.944  1.00  0.00     0.019 A 
HETATM   23  C   UNL     1     -39.397 -47.734  12.386  1.00  0.00     0.088 A 
HETATM   24  N   UNL     1     -38.961 -48.724  11.579  1.00  0.00    -0.373 N 
HETATM   25  C   UNL     1     -39.824 -49.742  11.348  1.00  0.00     0.117 A 
ATOM     26  HN  UNL     1     -38.028 -48.706  11.165  1.00  0.00     0.164 HD
ENDBRANCH  17  20
ENDBRANCH   1  14
TORSDOF 5
ENDMDL
MODEL 3
REMARK VINA RESULT:      -6.0      2.901      6.632
REMARK  5 active torsions:
REMARK  status: ('A' for Active; 'I' for Inactive)
REMARK    1  A    between atoms: N_2  and  C_4 
REMARK    2  A    between atoms: N_7  and  C_10 
REMARK    3  A    between atoms: C_10  and  C_13 
REMARK    4  A    between atoms: C_13  and  N_14 
REMARK       I    between atoms: N_14  and  C_15 
REMARK       I    between atoms: C_15  and  N_17 
REMARK    5  A    between atoms: N_17  and  C_18 
ROOT
HETATM    1  C   UNL     1     -40.399 -51.230  11.971  1.00  0.00     0.154 C 
ENDROOT
BRANCH   1   2
HETATM    2  C   UNL     1     -40.010 -49.776  12.460  1.00  0.00     0.036 C 
HETATM    3  C   UNL     1     -38.730 -49.359  11.698  1.00  0.00     0.039 C 
HETATM    4  C   UNL     1     -39.632 -49.867  13.965  1.00  0.00     0.039 C 
BRANCH   2   5
HETATM    5  N   UNL     1     -41.177 -48.859  12.275  1.00  0.00    -0.403 N 
HETATM    6  C   UNL     1     -41.244 -48.031  11.066  1.00  0.00     0.119 C 
HETATM    7  C   UNL     1     -40.522 -46.688  11.186  1.00  0.00     0.055 C 
HETATM    8  C   UNL     1     -40.979 -45.842  12.399  1.00  0.00     0.225 C 
HETATM    9  C   UNL     1     -40.939 -46.764  13.640  1.00  0.00     0.055 C 
HETATM   10  C   UNL     1     -41.678 -48.084  13.417  1.00  0.00     0.119 C 
BRANCH   8  11
HETATM   11  N   UNL     1     -42.296 -45.168  12.215  1.00  0.00     0.084 N 
HETATM   12  C   UNL     1     -42.672 -44.385  13.406  1.00  0.00     0.309 C 
HETATM   13  C   UNL     1     -42.297 -44.243  11.072  1.00  0.00     0.309 C 
ENDBRANCH   8  11
ENDBRANCH   2   5
ENDBRANCH   1   2
BRANCH   1  14
HETATM   14  N   UNL     1     -41.834 -51.433  11.797  1.00  0.00    -0.341 N 
HETATM   15  C   UNL     1     -42.607 -52.056  12.747  1.00  0.00     0.320 C 
HETATM   16  O   UNL     1     -42.205 -52.330  13.869  1.00  0.00    -0.247 OA
HETATM   17  N   UNL     1     -43.824 -52.425  12.216  1.00  0.00    -0.308 N 
HETATM   18  H   UNL     1     -43.781 -52.620  11.226  1.00  0.00     0.170 HD
HETATM   19  H   UNL     1     -42.323 -50.820  11.158  1.00  0.00     0.164 HD
BRANCH  17  20
HETATM   20  C   UNL     1     -44.768 -53.154  12.963  1.00  0.00     0.051 A 
HETATM   21  C   UNL     1     -44.584 -54.525  13.130  1.00  0.00     0.032 A 
HETATM   22  C   UNL     1     -45.482 -55.244  13.917  1.00  0.00     0.019 A 
HETATM   23  C   UNL     1     -46.563 -54.572  14.465  1.00  0.00     0.088 A 
HETATM   24  N   UNL     1     -46.796 -53.255  14.290  1.00  0.00    -0.373 N 
HETATM   25  C   UNL     1     -45.883 -52.569  13.559  1.00  0.00     0.117 A 
ATOM     26  HN  UNL     1     -47.617 -52.798  14.687  1.00  0.00     0.164 HD
ENDBRANCH  17  20
ENDBRANCH   1  14
TORSDOF 5
ENDMDL
MODEL 4
REMARK VINA RESULT:      -5.9      2.412      4.436
REMARK  5 active torsions:
REMARK  status: ('A' for Active; 'I' for Inactive)
REMARK    1  A    between atoms: N_2  and  C_4 
REMARK    2  A    between atoms: N_7  and  C_10 
REMARK    3  A    between atoms: C_10  and  C_13 
REMARK    4  A    between atoms: C_13  and  N_14 
REMARK       I    between atoms: N_14  and  C_15 
REMARK       I    between atoms: C_15  and  N_17 
REMARK    5  A    between atoms: N_17  and  C_18 
ROOT
HETATM    1  C   UNL     1     -44.616 -50.886  14.028  1.00  0.00     0.154 C 
ENDROOT
BRANCH   1   2
HETATM    2  C   UNL     1     -45.136 -52.381  14.017  1.00  0.00     0.036 C 
HETATM    3  C   UNL     1     -45.483 -52.739  12.552  1.00  0.00     0.039 C 
HETATM    4  C   UNL     1     -46.465 -52.427  14.821  1.00  0.00     0.039 C 
BRANCH   2   5
HETATM    5  N   UNL     1     -44.114 -53.269  14.654  1.00  0.00    -0.403 N 
HETATM    6  C   UNL     1     -43.268 -52.724  15.721  1.00  0.00     0.119 C 
HETATM    7  C   UNL     1     -41.998 -52.033  15.222  1.00  0.00     0.055 C 
HETATM    8  C   UNL     1     -41.130 -52.920  14.296  1.00  0.00     0.225 C 
HETATM    9  C   UNL     1     -42.068 -53.510  13.217  1.00  0.00     0.055 C 
HETATM   10  C   UNL     1     -43.312 -54.168  13.815  1.00  0.00     0.119 C 
BRANCH   8  11
HETATM   11  N   UNL     1     -40.336 -53.960  15.011  1.00  0.00     0.084 N 
HETATM   12  C   UNL     1     -39.334 -54.578  14.124  1.00  0.00     0.309 C 
HETATM   13  C   UNL     1     -39.611 -53.414  16.168  1.00  0.00     0.309 C 
ENDBRANCH   8  11
ENDBRANCH   2   5
ENDBRANCH   1   2
BRANCH   1  14
HETATM   14  N   UNL     1     -43.963 -50.477  12.788  1.00  0.00    -0.341 N 
HETATM   15  C   UNL     1     -43.176 -49.352  12.710  1.00  0.00     0.320 C 
HETATM   16  O   UNL     1     -42.819 -48.710  13.688  1.00  0.00    -0.247 OA
HETATM   17  N   UNL     1     -42.963 -48.999  11.395  1.00  0.00    -0.308 N 
HETATM   18  H   UNL     1     -43.722 -49.270  10.785  1.00  0.00     0.170 HD
HETATM   19  H   UNL     1     -43.794 -51.186  12.087  1.00  0.00     0.164 HD
BRANCH  17  20
HETATM   20  C   UNL     1     -42.255 -47.834  11.045  1.00  0.00     0.051 A 
HETATM   21  C   UNL     1     -42.964 -46.657  10.814  1.00  0.00     0.032 A 
HETATM   22  C   UNL     1     -42.267 -45.486  10.525  1.00  0.00     0.019 A 
HETATM   23  C   UNL     1     -40.887 -45.548  10.425  1.00  0.00     0.088 A 
HETATM   24  N   UNL     1     -40.171 -46.677  10.601  1.00  0.00    -0.373 N 
HETATM   25  C   UNL     1     -40.868 -47.793  10.927  1.00  0.00     0.117 A 
ATOM     26  HN  UNL     1     -39.156 -46.691  10.494  1.00  0.00     0.164 HD
ENDBRANCH  17  20
ENDBRANCH   1  14
TORSDOF 5
ENDMDL
MODEL 5
REMARK VINA RESULT:      -5.8      3.660      6.602
REMARK  5 active torsions:
REMARK  status: ('A' for Active; 'I' for Inactive)
REMARK    1  A    between atoms: N_2  and  C_4 
REMARK    2  A    between atoms: N_7  and  C_10 
REMARK    3  A    between atoms: C_10  and  C_13 
REMARK    4  A    between atoms: C_13  and  N_14 
REMARK       I    between atoms: N_14  and  C_15 
REMARK       I    between atoms: C_15  and  N_17 
REMARK    5  A    between atoms: N_17  and  C_18 
ROOT
HETATM    1  C   UNL     1     -40.410 -51.153  12.151  1.00  0.00     0.154 C 
ENDROOT
BRANCH   1   2
HETATM    2  C   UNL     1     -39.680 -49.755  12.288  1.00  0.00     0.036 C 
HETATM    3  C   UNL     1     -40.435 -48.749  11.388  1.00  0.00     0.039 C 
HETATM    4  C   UNL     1     -38.250 -49.906  11.697  1.00  0.00     0.039 C 
BRANCH   2   5
HETATM    5  N   UNL     1     -39.604 -49.371  13.731  1.00  0.00    -0.403 N 
HETATM    6  C   UNL     1     -38.983 -48.093  14.094  1.00  0.00     0.119 C 
HETATM    7  C   UNL     1     -37.468 -48.166  14.288  1.00  0.00     0.055 C 
HETATM    8  C   UNL     1     -37.021 -49.246  15.303  1.00  0.00     0.225 C 
HETATM    9  C   UNL     1     -37.735 -50.562  14.913  1.00  0.00     0.055 C 
HETATM   10  C   UNL     1     -39.243 -50.383  14.732  1.00  0.00     0.119 C 
BRANCH   8  11
HETATM   11  N   UNL     1     -37.231 -48.871  16.731  1.00  0.00     0.084 N 
HETATM   12  C   UNL     1     -36.595 -49.839  17.642  1.00  0.00     0.309 C 
HETATM   13  C   UNL     1     -36.673 -47.548  17.049  1.00  0.00     0.309 C 
ENDBRANCH   8  11
ENDBRANCH   2   5
ENDBRANCH   1   2
BRANCH   1  14
HETATM   14  N   UNL     1     -41.861 -51.053  12.022  1.00  0.00    -0.341 N 
HETATM   15  C   UNL     1     -42.716 -51.495  13.003  1.00  0.00     0.320 C 
HETATM   16  O   UNL     1     -42.345 -51.837  14.117  1.00  0.00    -0.247 OA
HETATM   17  N   UNL     1     -44.000 -51.606  12.513  1.00  0.00    -0.308 N 
HETATM   18  H   UNL     1     -44.030 -51.813  11.525  1.00  0.00     0.170 HD
HETATM   19  H   UNL     1     -42.231 -50.357  11.389  1.00  0.00     0.164 HD
BRANCH  17  20
HETATM   20  C   UNL     1     -45.051 -52.116  13.298  1.00  0.00     0.051 A 
HETATM   21  C   UNL     1     -45.750 -51.250  14.135  1.00  0.00     0.032 A 
HETATM   22  C   UNL     1     -46.829 -51.735  14.871  1.00  0.00     0.019 A 
HETATM   23  C   UNL     1     -47.135 -53.083  14.784  1.00  0.00     0.088 A 
HETATM   24  N   UNL     1     -46.453 -53.960  14.017  1.00  0.00    -0.373 N 
HETATM   25  C   UNL     1     -45.438 -53.454  13.275  1.00  0.00     0.117 A 
ATOM     26  HN  UNL     1     -46.690 -54.952  13.997  1.00  0.00     0.164 HD
ENDBRANCH  17  20
ENDBRANCH   1  14
TORSDOF 5
ENDMDL
MODEL 6
REMARK VINA RESULT:      -5.8      2.712      4.693
REMARK  5 active torsions:
REMARK  status: ('A' for Active; 'I' for Inactive)
REMARK    1  A    between atoms: N_2  and  C_4 
REMARK    2  A    between atoms: N_7  and  C_10 
REMARK    3  A    between atoms: C_10  and  C_13 
REMARK    4  A    between atoms: C_13  and  N_14 
REMARK       I    between atoms: N_14  and  C_15 
REMARK       I    between atoms: C_15  and  N_17 
REMARK    5  A    between atoms: N_17  and  C_18 
ROOT
HETATM    1  C   UNL     1     -44.385 -51.188  13.733  1.00  0.00     0.154 C 
ENDROOT
BRANCH   1   2
HETATM    2  C   UNL     1     -45.272 -52.449  13.372  1.00  0.00     0.036 C 
HETATM    3  C   UNL     1     -44.400 -53.397  12.516  1.00  0.00     0.039 C 
HETATM    4  C   UNL     1     -46.438 -51.965  12.466  1.00  0.00     0.039 C 
BRANCH   2   5
HETATM    5  N   UNL     1     -45.810 -53.056  14.628  1.00  0.00    -0.403 N 
HETATM    6  C   UNL     1     -47.162 -52.694  15.069  1.00  0.00     0.119 C 
HETATM    7  C   UNL     1     -47.220 -51.439  15.942  1.00  0.00     0.055 C 
HETATM    8  C   UNL     1     -46.288 -51.495  17.176  1.00  0.00     0.225 C 
HETATM    9  C   UNL     1     -44.890 -51.926  16.674  1.00  0.00     0.055 C 
HETATM   10  C   UNL     1     -44.938 -53.182  15.803  1.00  0.00     0.119 C 
BRANCH   8  11
HETATM   11  N   UNL     1     -46.796 -52.347  18.290  1.00  0.00     0.084 N 
HETATM   12  C   UNL     1     -45.824 -52.426  19.395  1.00  0.00     0.309 C 
HETATM   13  C   UNL     1     -48.054 -51.838  18.856  1.00  0.00     0.309 C 
ENDBRANCH   8  11
ENDBRANCH   2   5
ENDBRANCH   1   2
BRANCH   1  14
HETATM   14  N   UNL     1     -43.471 -50.782  12.670  1.00  0.00    -0.341 N 
HETATM   15  C   UNL     1     -42.961 -49.508  12.589  1.00  0.00     0.320 C 
HETATM   16  O   UNL     1     -43.083 -48.675  13.475  1.00  0.00    -0.247 OA
HETATM   17  N   UNL     1     -42.416 -49.284  11.342  1.00  0.00    -0.308 N 
HETATM   18  H   UNL     1     -42.861 -49.821  10.612  1.00  0.00     0.170 HD
HETATM   19  H   UNL     1     -42.939 -51.505  12.204  1.00  0.00     0.164 HD
BRANCH  17  20
HETATM   20  C   UNL     1     -41.899 -48.027  10.976  1.00  0.00     0.051 A 
HETATM   21  C   UNL     1     -42.777 -47.039  10.534  1.00  0.00     0.032 A 
HETATM   22  C   UNL     1     -42.281 -45.774  10.225  1.00  0.00     0.019 A 
HETATM   23  C   UNL     1     -40.915 -45.560  10.318  1.00  0.00     0.088 A 
HETATM   24  N   UNL     1     -40.031 -46.505  10.701  1.00  0.00    -0.373 N 
HETATM   25  C   UNL     1     -40.544 -47.712  11.041  1.00  0.00     0.117 A 
ATOM     26  HN  UNL     1     -39.028 -46.319  10.733  1.00  0.00     0.164 HD
ENDBRANCH  17  20
ENDBRANCH   1  14
TORSDOF 5
ENDMDL
MODEL 7
REMARK VINA RESULT:      -5.8      2.530      4.511
REMARK  5 active torsions:
REMARK  status: ('A' for Active; 'I' for Inactive)
REMARK    1  A    between atoms: N_2  and  C_4 
REMARK    2  A    between atoms: N_7  and  C_10 
REMARK    3  A    between atoms: C_10  and  C_13 
REMARK    4  A    between atoms: C_13  and  N_14 
REMARK       I    between atoms: N_14  and  C_15 
REMARK       I    between atoms: C_15  and  N_17 
REMARK    5  A    between atoms: N_17  and  C_18 
ROOT
HETATM    1  C   UNL     1     -44.636 -50.875  13.825  1.00  0.00     0.154 C 
ENDROOT
BRANCH   1   2
HETATM    2  C   UNL     1     -45.014 -52.412  13.879  1.00  0.00     0.036 C 
HETATM    3  C   UNL     1     -44.444 -53.072  12.602  1.00  0.00     0.039 C 
HETATM    4  C   UNL     1     -46.562 -52.523  13.795  1.00  0.00     0.039 C 
BRANCH   2   5
HETATM    5  N   UNL     1     -44.522 -53.001  15.163  1.00  0.00    -0.403 N 
HETATM    6  C   UNL     1     -43.332 -52.425  15.798  1.00  0.00     0.119 C 
HETATM    7  C   UNL     1     -42.010 -53.017  15.305  1.00  0.00     0.055 C 
HETATM    8  C   UNL     1     -41.940 -54.559  15.413  1.00  0.00     0.225 C 
HETATM    9  C   UNL     1     -43.232 -55.122  14.777  1.00  0.00     0.055 C 
HETATM   10  C   UNL     1     -44.496 -54.460  15.327  1.00  0.00     0.119 C 
BRANCH   8  11
HETATM   11  N   UNL     1     -41.702 -55.067  16.796  1.00  0.00     0.084 N 
HETATM   12  C   UNL     1     -41.703 -56.540  16.838  1.00  0.00     0.309 C 
HETATM   13  C   UNL     1     -40.413 -54.619  17.342  1.00  0.00     0.309 C 
ENDBRANCH   8  11
ENDBRANCH   2   5
ENDBRANCH   1   2
BRANCH   1  14
HETATM   14  N   UNL     1     -43.787 -50.513  12.695  1.00  0.00    -0.341 N 
HETATM   15  C   UNL     1     -43.127 -49.308  12.630  1.00  0.00     0.320 C 
HETATM   16  O   UNL     1     -43.053 -48.529  13.569  1.00  0.00    -0.247 OA
HETATM   17  N   UNL     1     -42.684 -49.068  11.347  1.00  0.00    -0.308 N 
HETATM   18  H   UNL     1     -43.264 -49.496  10.640  1.00  0.00     0.170 HD
HETATM   19  H   UNL     1     -43.400 -51.262  12.136  1.00  0.00     0.164 HD
BRANCH  17  20
HETATM   20  C   UNL     1     -42.048 -47.861  10.997  1.00  0.00     0.051 A 
HETATM   21  C   UNL     1     -42.831 -46.753  10.680  1.00  0.00     0.032 A 
HETATM   22  C   UNL     1     -42.210 -45.540  10.390  1.00  0.00     0.019 A 
HETATM   23  C   UNL     1     -40.825 -45.494  10.375  1.00  0.00     0.088 A 
HETATM   24  N   UNL     1     -40.036 -46.557  10.634  1.00  0.00    -0.373 N 
HETATM   25  C   UNL     1     -40.664 -47.713  10.960  1.00  0.00     0.117 A 
ATOM     26  HN  UNL     1     -39.019 -46.493  10.588  1.00  0.00     0.164 HD
ENDBRANCH  17  20
ENDBRANCH   1  14
TORSDOF 5
ENDMDL
MODEL 8
REMARK VINA RESULT:      -5.8      2.080      3.348
REMARK  5 active torsions:
REMARK  status: ('A' for Active; 'I' for Inactive)
REMARK    1  A    between atoms: N_2  and  C_4 
REMARK    2  A    between atoms: N_7  and  C_10 
REMARK    3  A    between atoms: C_10  and  C_13 
REMARK    4  A    between atoms: C_13  and  N_14 
REMARK       I    between atoms: N_14  and  C_15 
REMARK       I    between atoms: C_15  and  N_17 
REMARK    5  A    between atoms: N_17  and  C_18 
ROOT
HETATM    1  C   UNL     1     -39.638 -51.619  13.574  1.00  0.00     0.154 C 
ENDROOT
BRANCH   1   2
HETATM    2  C   UNL     1     -40.608 -52.864  13.443  1.00  0.00     0.036 C 
HETATM    3  C   UNL     1     -39.836 -54.107  13.944  1.00  0.00     0.039 C 
HETATM    4  C   UNL     1     -40.893 -53.086  11.931  1.00  0.00     0.039 C 
BRANCH   2   5
HETATM    5  N   UNL     1     -41.882 -52.581  14.173  1.00  0.00    -0.403 N 
HETATM    6  C   UNL     1     -42.450 -53.620  15.038  1.00  0.00     0.119 C 
HETATM    7  C   UNL     1     -43.371 -54.604  14.314  1.00  0.00     0.055 C 
HETATM    8  C   UNL     1     -44.518 -53.921  13.531  1.00  0.00     0.225 C 
HETATM    9  C   UNL     1     -43.883 -52.804  12.670  1.00  0.00     0.055 C 
HETATM   10  C   UNL     1     -42.973 -51.881  13.482  1.00  0.00     0.119 C 
BRANCH   8  11
HETATM   11  N   UNL     1     -45.639 -53.433  14.385  1.00  0.00     0.084 N 
HETATM   12  C   UNL     1     -46.520 -52.513  13.645  1.00  0.00     0.309 C 
HETATM   13  C   UNL     1     -46.481 -54.530  14.885  1.00  0.00     0.309 C 
ENDBRANCH   8  11
ENDBRANCH   2   5
ENDBRANCH   1   2
BRANCH   1  14
HETATM   14  N   UNL     1     -39.634 -50.745  12.405  1.00  0.00    -0.341 N 
HETATM   15  C   UNL     1     -40.313 -49.550  12.380  1.00  0.00     0.320 C 
HETATM   16  O   UNL     1     -40.820 -49.043  13.371  1.00  0.00    -0.247 OA
HETATM   17  N   UNL     1     -40.437 -49.090  11.087  1.00  0.00    -0.308 N 
HETATM   18  H   UNL     1     -40.463 -49.833  10.403  1.00  0.00     0.170 HD
HETATM   19  H   UNL     1     -38.866 -50.834  11.752  1.00  0.00     0.164 HD
BRANCH  17  20
HETATM   20  C   UNL     1     -41.164 -47.924  10.783  1.00  0.00     0.051 A 
HETATM   21  C   UNL     1     -40.547 -46.684  10.935  1.00  0.00     0.032 A 
HETATM   22  C   UNL     1     -41.239 -45.528  10.581  1.00  0.00     0.019 A 
HETATM   23  C   UNL     1     -42.546 -45.652  10.137  1.00  0.00     0.088 A 
HETATM   24  N   UNL     1     -43.190 -46.832  10.017  1.00  0.00    -0.373 N 
HETATM   25  C   UNL     1     -42.479 -47.945  10.324  1.00  0.00     0.117 A 
ATOM     26  HN  UNL     1     -44.162 -46.884   9.712  1.00  0.00     0.164 HD
ENDBRANCH  17  20
ENDBRANCH   1  14
TORSDOF 5
ENDMDL
MODEL 9
REMARK VINA RESULT:      -5.7      2.920      7.049
REMARK  5 active torsions:
REMARK  status: ('A' for Active; 'I' for Inactive)
REMARK    1  A    between atoms: N_2  and  C_4 
REMARK    2  A    between atoms: N_7  and  C_10 
REMARK    3  A    between atoms: C_10  and  C_13 
REMARK    4  A    between atoms: C_13  and  N_14 
REMARK       I    between atoms: N_14  and  C_15 
REMARK       I    between atoms: C_15  and  N_17 
REMARK    5  A    between atoms: N_17  and  C_18 
ROOT
HETATM    1  C   UNL     1     -41.212 -49.758  12.923  1.00  0.00     0.154 C 
ENDROOT
BRANCH   1   2
HETATM    2  C   UNL     1     -40.570 -48.777  11.858  1.00  0.00     0.036 C 
HETATM    3  C   UNL     1     -41.454 -48.831  10.589  1.00  0.00     0.039 C 
HETATM    4  C   UNL     1     -39.179 -49.348  11.466  1.00  0.00     0.039 C 
BRANCH   2   5
HETATM    5  N   UNL     1     -40.421 -47.416  12.460  1.00  0.00    -0.403 N 
HETATM    6  C   UNL     1     -41.483 -46.906  13.333  1.00  0.00     0.119 C 
HETATM    7  C   UNL     1     -42.610 -46.185  12.592  1.00  0.00     0.055 C 
HETATM    8  C   UNL     1     -42.119 -45.038  11.676  1.00  0.00     0.225 C 
HETATM    9  C   UNL     1     -40.971 -45.604  10.809  1.00  0.00     0.055 C 
HETATM   10  C   UNL     1     -39.901 -46.315  11.640  1.00  0.00     0.119 C 
BRANCH   8  11
HETATM   11  N   UNL     1     -41.741 -43.792  12.403  1.00  0.00     0.084 N 
HETATM   12  C   UNL     1     -41.530 -42.668  11.474  1.00  0.00     0.309 C 
HETATM   13  C   UNL     1     -42.770 -43.371  13.366  1.00  0.00     0.309 C 
ENDBRANCH   8  11
ENDBRANCH   2   5
ENDBRANCH   1   2
BRANCH   1  14
HETATM   14  N   UNL     1     -42.436 -50.410  12.466  1.00  0.00    -0.341 N 
HETATM   15  C   UNL     1     -43.204 -51.191  13.296  1.00  0.00     0.320 C 
HETATM   16  O   UNL     1     -43.031 -51.262  14.505  1.00  0.00    -0.247 OA
HETATM   17  N   UNL     1     -44.089 -51.953  12.563  1.00  0.00    -0.308 N 
HETATM   18  H   UNL     1     -43.747 -52.178  11.640  1.00  0.00     0.170 HD
HETATM   19  H   UNL     1     -42.908 -50.017  11.662  1.00  0.00     0.164 HD
BRANCH  17  20
HETATM   20  C   UNL     1     -44.934 -52.899  13.173  1.00  0.00     0.051 A 
HETATM   21  C   UNL     1     -44.528 -54.230  13.227  1.00  0.00     0.032 A 
HETATM   22  C   UNL     1     -45.331 -55.163  13.881  1.00  0.00     0.019 A 
HETATM   23  C   UNL     1     -46.539 -54.737  14.410  1.00  0.00     0.088 A 
HETATM   24  N   UNL     1     -46.984 -53.465  14.339  1.00  0.00    -0.373 N 
HETATM   25  C   UNL     1     -46.163 -52.568  13.740  1.00  0.00     0.117 A 
ATOM     26  HN  UNL     1     -47.891 -53.192  14.717  1.00  0.00     0.164 HD
ENDBRANCH  17  20
ENDBRANCH   1  14
TORSDOF 5
ENDMDL
