MODEL 1
REMARK VINA RESULT:      -5.9      0.000      0.000
REMARK  5 active torsions:
REMARK  status: ('A' for Active; 'I' for Inactive)
REMARK    1  A    between atoms: C_2  and  C_3 
REMARK    2  A    between atoms: C_2  and  N_10 
REMARK    3  A    between atoms: C_3  and  N_4 
REMARK    4  A    between atoms: N_10  and  C_11 
REMARK    5  A    between atoms: C_11  and  C_12 
REMARK       I    between atoms: C_12  and  N_14 
ROOT
HETATM    1  N   UNL     1     -42.289 -50.152  11.822  1.00  0.00     0.098 N 
HETATM    2  H   UNL     1     -41.637 -50.838  11.433  1.00  0.00     0.317 HD
ENDROOT
BRANCH   1   3
HETATM    3  C   UNL     1     -41.648 -48.828  11.965  1.00  0.00     0.236 C 
HETATM    4  C   UNL     1     -40.291 -49.057  12.640  1.00  0.00     0.044 C 
BRANCH   3   5
HETATM    5  C   UNL     1     -41.487 -48.136  10.595  1.00  0.00     0.183 C 
BRANCH   5   6
HETATM    6  N   UNL     1     -42.721 -47.903   9.873  1.00  0.00    -0.302 N 
HETATM    7  C   UNL     1     -43.888 -47.428  10.400  1.00  0.00     0.111 A 
HETATM    8  C   UNL     1     -44.734 -47.232   9.334  1.00  0.00     0.037 A 
HETATM    9  C   UNL     1     -43.984 -47.615   8.209  1.00  0.00     0.108 A 
HETATM   10  N   UNL     1     -42.752 -48.020   8.531  1.00  0.00    -0.310 N 
ATOM     11  HN  UNL     1     -42.011 -48.341   7.908  1.00  0.00     0.186 HD
ENDBRANCH   5   6
ENDBRANCH   3   5
ENDBRANCH   1   3
BRANCH   1  12
HETATM   12  C   UNL     1     -42.816 -50.685  13.092  1.00  0.00     0.372 C 
BRANCH  12  13
HETATM   13  C   UNL     1     -42.948 -52.215  13.043  1.00  0.00     0.248 C 
HETATM   14  O   UNL     1     -42.194 -52.907  12.354  1.00  0.00    -0.271 OA
HETATM   15  N   UNL     1     -43.953 -52.776  13.832  1.00  0.00    -0.350 N 
HETATM   16  C   UNL     1     -44.043 -54.232  13.925  1.00  0.00     0.126 C 
HETATM   17  C   UNL     1     -44.824 -52.032  14.746  1.00  0.00     0.130 C 
HETATM   18  C   UNL     1     -45.484 -54.707  13.761  1.00  0.00     0.020 C 
HETATM   19  C   UNL     1     -46.420 -53.984  14.727  1.00  0.00     0.007 C 
HETATM   20  C   UNL     1     -46.288 -52.462  14.569  1.00  0.00    -0.001 C 
HETATM   21  C   UNL     1     -47.198 -51.734  15.554  1.00  0.00     0.011 C 
ENDBRANCH  12  13
ENDBRANCH   1  12
TORSDOF 5
ENDMDL
MODEL 2
REMARK VINA RESULT:      -5.9      1.570      1.893
REMARK  5 active torsions:
REMARK  status: ('A' for Active; 'I' for Inactive)
REMARK    1  A    between atoms: C_2  and  C_3 
REMARK    2  A    between atoms: C_2  and  N_10 
REMARK    3  A    between atoms: C_3  and  N_4 
REMARK    4  A    between atoms: N_10  and  C_11 
REMARK    5  A    between atoms: C_11  and  C_12 
REMARK       I    between atoms: C_12  and  N_14 
ROOT
HETATM    1  N   UNL     1     -40.166 -51.644  12.321  1.00  0.00     0.098 N 
HETATM    2  H   UNL     1     -39.831 -52.155  13.142  1.00  0.00     0.317 HD
ENDROOT
BRANCH   1   3
HETATM    3  C   UNL     1     -40.378 -50.215  12.632  1.00  0.00     0.236 C 
HETATM    4  C   UNL     1     -39.301 -49.812  13.647  1.00  0.00     0.044 C 
BRANCH   3   5
HETATM    5  C   UNL     1     -40.303 -49.351  11.356  1.00  0.00     0.183 C 
BRANCH   5   6
HETATM    6  N   UNL     1     -41.553 -48.742  10.950  1.00  0.00    -0.302 N 
HETATM    7  C   UNL     1     -42.587 -48.393  11.771  1.00  0.00     0.111 A 
HETATM    8  C   UNL     1     -43.492 -47.725  10.981  1.00  0.00     0.037 A 
HETATM    9  C   UNL     1     -42.911 -47.721   9.700  1.00  0.00     0.108 A 
HETATM   10  N   UNL     1     -41.724 -48.335   9.677  1.00  0.00    -0.310 N 
ATOM     11  HN  UNL     1     -41.097 -48.465   8.883  1.00  0.00     0.186 HD
ENDBRANCH   5   6
ENDBRANCH   3   5
ENDBRANCH   1   3
BRANCH   1  12
HETATM   12  C   UNL     1     -41.378 -52.319  11.821  1.00  0.00     0.372 C 
BRANCH  12  13
HETATM   13  C   UNL     1     -41.791 -53.479  12.739  1.00  0.00     0.248 C 
HETATM   14  O   UNL     1     -41.028 -54.420  12.974  1.00  0.00    -0.271 OA
HETATM   15  N   UNL     1     -43.065 -53.401  13.303  1.00  0.00    -0.350 N 
HETATM   16  C   UNL     1     -43.462 -54.409  14.284  1.00  0.00     0.126 C 
HETATM   17  C   UNL     1     -43.989 -52.275  13.148  1.00  0.00     0.130 C 
HETATM   18  C   UNL     1     -44.866 -54.934  13.997  1.00  0.00     0.020 C 
HETATM   19  C   UNL     1     -45.870 -53.790  13.869  1.00  0.00     0.007 C 
HETATM   20  C   UNL     1     -45.403 -52.776  12.816  1.00  0.00    -0.001 C 
HETATM   21  C   UNL     1     -46.387 -51.615  12.706  1.00  0.00     0.011 C 
ENDBRANCH  12  13
ENDBRANCH   1  12
TORSDOF 5
ENDMDL
MODEL 3
REMARK VINA RESULT:      -5.8      2.984      4.428
REMARK  5 active torsions:
REMARK  status: ('A' for Active; 'I' for Inactive)
REMARK    1  A    between atoms: C_2  and  C_3 
REMARK    2  A    between atoms: C_2  and  N_10 
REMARK    3  A    between atoms: C_3  and  N_4 
REMARK    4  A    between atoms: N_10  and  C_11 
REMARK    5  A    between atoms: C_11  and  C_12 
REMARK       I    between atoms: C_12  and  N_14 
ROOT
HETATM    1  N   UNL     1     -42.616 -52.630  11.846  1.00  0.00     0.098 N 
HETATM    2  H   UNL     1     -42.257 -53.219  11.090  1.00  0.00     0.317 HD
ENDROOT
BRANCH   1   3
HETATM    3  C   UNL     1     -41.722 -51.482  12.099  1.00  0.00     0.236 C 
HETATM    4  C   UNL     1     -42.598 -50.341  12.631  1.00  0.00     0.044 C 
BRANCH   3   5
HETATM    5  C   UNL     1     -40.609 -51.853  13.101  1.00  0.00     0.183 C 
BRANCH   5   6
HETATM    6  N   UNL     1     -39.310 -51.276  12.821  1.00  0.00    -0.302 N 
HETATM    7  C   UNL     1     -38.176 -51.438  13.566  1.00  0.00     0.111 A 
HETATM    8  C   UNL     1     -37.165 -50.838  12.855  1.00  0.00     0.037 A 
HETATM    9  C   UNL     1     -37.790 -50.345  11.695  1.00  0.00     0.108 A 
HETATM   10  N   UNL     1     -39.098 -50.615  11.667  1.00  0.00    -0.310 N 
ATOM     11  HN  UNL     1     -39.775 -50.376  10.942  1.00  0.00     0.186 HD
ENDBRANCH   5   6
ENDBRANCH   3   5
ENDBRANCH   1   3
BRANCH   1  12
HETATM   12  C   UNL     1     -42.824 -53.481  13.033  1.00  0.00     0.372 C 
BRANCH  12  13
HETATM   13  C   UNL     1     -44.318 -53.722  13.292  1.00  0.00     0.248 C 
HETATM   14  O   UNL     1     -44.981 -54.490  12.589  1.00  0.00    -0.271 OA
HETATM   15  N   UNL     1     -44.878 -53.040  14.373  1.00  0.00    -0.350 N 
HETATM   16  C   UNL     1     -46.262 -53.329  14.746  1.00  0.00     0.126 C 
HETATM   17  C   UNL     1     -44.139 -52.188  15.309  1.00  0.00     0.130 C 
HETATM   18  C   UNL     1     -47.045 -52.044  14.996  1.00  0.00     0.020 C 
HETATM   19  C   UNL     1     -46.327 -51.143  15.999  1.00  0.00     0.007 C 
HETATM   20  C   UNL     1     -44.887 -50.867  15.544  1.00  0.00    -0.001 C 
HETATM   21  C   UNL     1     -44.155 -49.994  16.559  1.00  0.00     0.011 C 
ENDBRANCH  12  13
ENDBRANCH   1  12
TORSDOF 5
ENDMDL
MODEL 4
REMARK VINA RESULT:      -5.7      2.187      2.800
REMARK  5 active torsions:
REMARK  status: ('A' for Active; 'I' for Inactive)
REMARK    1  A    between atoms: C_2  and  C_3 
REMARK    2  A    between atoms: C_2  and  N_10 
REMARK    3  A    between atoms: C_3  and  N_4 
REMARK    4  A    between atoms: N_10  and  C_11 
REMARK    5  A    between atoms: C_11  and  C_12 
REMARK       I    between atoms: C_12  and  N_14 
ROOT
HETATM    1  N   UNL     1     -42.576 -49.395  11.311  1.00  0.00     0.098 N 
HETATM    2  H   UNL     1     -42.760 -50.159  10.656  1.00  0.00     0.317 HD
ENDROOT
BRANCH   1   3
HETATM    3  C   UNL     1     -41.810 -48.310  10.665  1.00  0.00     0.236 C 
HETATM    4  C   UNL     1     -42.737 -47.663   9.629  1.00  0.00     0.044 C 
BRANCH   3   5
HETATM    5  C   UNL     1     -41.319 -47.280  11.703  1.00  0.00     0.183 C 
BRANCH   5   6
HETATM    6  N   UNL     1     -40.787 -46.052  11.150  1.00  0.00    -0.302 N 
HETATM    7  C   UNL     1     -41.159 -44.783  11.492  1.00  0.00     0.111 A 
HETATM    8  C   UNL     1     -40.299 -43.941  10.827  1.00  0.00     0.037 A 
HETATM    9  C   UNL     1     -39.444 -44.799  10.113  1.00  0.00     0.108 A 
HETATM   10  N   UNL     1     -39.733 -46.088  10.311  1.00  0.00    -0.310 N 
ATOM     11  HN  UNL     1     -39.266 -46.907   9.920  1.00  0.00     0.186 HD
ENDBRANCH   5   6
ENDBRANCH   3   5
ENDBRANCH   1   3
BRANCH   1  12
HETATM   12  C   UNL     1     -41.902 -49.958  12.497  1.00  0.00     0.372 C 
BRANCH  12  13
HETATM   13  C   UNL     1     -41.900 -51.494  12.461  1.00  0.00     0.248 C 
HETATM   14  O   UNL     1     -40.984 -52.127  11.930  1.00  0.00    -0.271 OA
HETATM   15  N   UNL     1     -42.980 -52.130  13.076  1.00  0.00    -0.350 N 
HETATM   16  C   UNL     1     -42.967 -53.588  13.186  1.00  0.00     0.126 C 
HETATM   17  C   UNL     1     -44.054 -51.453  13.807  1.00  0.00     0.130 C 
HETATM   18  C   UNL     1     -44.314 -54.182  12.785  1.00  0.00     0.020 C 
HETATM   19  C   UNL     1     -45.459 -53.530  13.556  1.00  0.00     0.007 C 
HETATM   20  C   UNL     1     -45.425 -52.005  13.389  1.00  0.00    -0.001 C 
HETATM   21  C   UNL     1     -46.549 -51.346  14.184  1.00  0.00     0.011 C 
ENDBRANCH  12  13
ENDBRANCH   1  12
TORSDOF 5
ENDMDL
MODEL 5
REMARK VINA RESULT:      -5.7      2.354      3.100
REMARK  5 active torsions:
REMARK  status: ('A' for Active; 'I' for Inactive)
REMARK    1  A    between atoms: C_2  and  C_3 
REMARK    2  A    between atoms: C_2  and  N_10 
REMARK    3  A    between atoms: C_3  and  N_4 
REMARK    4  A    between atoms: N_10  and  C_11 
REMARK    5  A    between atoms: C_11  and  C_12 
REMARK       I    between atoms: C_12  and  N_14 
ROOT
HETATM    1  N   UNL     1     -39.783 -48.728  11.180  1.00  0.00     0.098 N 
HETATM    2  H   UNL     1     -38.913 -48.847  11.705  1.00  0.00     0.317 HD
ENDROOT
BRANCH   1   3
HETATM    3  C   UNL     1     -40.605 -47.641  11.749  1.00  0.00     0.236 C 
HETATM    4  C   UNL     1     -39.744 -46.929  12.799  1.00  0.00     0.044 C 
BRANCH   3   5
HETATM    5  C   UNL     1     -41.076 -46.665  10.649  1.00  0.00     0.183 C 
BRANCH   5   6
HETATM    6  N   UNL     1     -42.384 -46.946  10.094  1.00  0.00    -0.302 N 
HETATM    7  C   UNL     1     -43.435 -47.520  10.751  1.00  0.00     0.111 A 
HETATM    8  C   UNL     1     -44.502 -47.458   9.888  1.00  0.00     0.037 A 
HETATM    9  C   UNL     1     -43.995 -46.828   8.739  1.00  0.00     0.108 A 
HETATM   10  N   UNL     1     -42.703 -46.507   8.861  1.00  0.00    -0.310 N 
ATOM     11  HN  UNL     1     -42.102 -46.040   8.182  1.00  0.00     0.186 HD
ENDBRANCH   5   6
ENDBRANCH   3   5
ENDBRANCH   1   3
BRANCH   1  12
HETATM   12  C   UNL     1     -40.480 -50.028  11.142  1.00  0.00     0.372 C 
BRANCH  12  13
HETATM   13  C   UNL     1     -39.825 -51.041  12.093  1.00  0.00     0.248 C 
HETATM   14  O   UNL     1     -38.602 -51.083  12.251  1.00  0.00    -0.271 OA
HETATM   15  N   UNL     1     -40.688 -51.896  12.779  1.00  0.00    -0.350 N 
HETATM   16  C   UNL     1     -40.132 -52.793  13.792  1.00  0.00     0.126 C 
HETATM   17  C   UNL     1     -42.151 -51.847  12.718  1.00  0.00     0.130 C 
HETATM   18  C   UNL     1     -40.688 -54.206  13.641  1.00  0.00     0.020 C 
HETATM   19  C   UNL     1     -42.215 -54.202  13.614  1.00  0.00     0.007 C 
HETATM   20  C   UNL     1     -42.734 -53.255  12.523  1.00  0.00    -0.001 C 
HETATM   21  C   UNL     1     -44.259 -53.222  12.513  1.00  0.00     0.011 C 
ENDBRANCH  12  13
ENDBRANCH   1  12
TORSDOF 5
ENDMDL
MODEL 6
REMARK VINA RESULT:      -5.7      1.895      3.645
REMARK  5 active torsions:
REMARK  status: ('A' for Active; 'I' for Inactive)
REMARK    1  A    between atoms: C_2  and  C_3 
REMARK    2  A    between atoms: C_2  and  N_10 
REMARK    3  A    between atoms: C_3  and  N_4 
REMARK    4  A    between atoms: N_10  and  C_11 
REMARK    5  A    between atoms: C_11  and  C_12 
REMARK       I    between atoms: C_12  and  N_14 
ROOT
HETATM    1  N   UNL     1     -41.425 -50.456  11.319  1.00  0.00     0.098 N 
HETATM    2  H   UNL     1     -40.529 -50.949  11.367  1.00  0.00     0.317 HD
ENDROOT
BRANCH   1   3
HETATM    3  C   UNL     1     -41.227 -49.008  11.106  1.00  0.00     0.236 C 
HETATM    4  C   UNL     1     -42.549 -48.318  11.462  1.00  0.00     0.044 C 
BRANCH   3   5
HETATM    5  C   UNL     1     -40.062 -48.472  11.965  1.00  0.00     0.183 C 
BRANCH   5   6
HETATM    6  N   UNL     1     -38.895 -49.327  12.023  1.00  0.00    -0.302 N 
HETATM    7  C   UNL     1     -38.432 -49.990  13.124  1.00  0.00     0.111 A 
HETATM    8  C   UNL     1     -37.399 -50.783  12.685  1.00  0.00     0.037 A 
HETATM    9  C   UNL     1     -37.319 -50.529  11.304  1.00  0.00     0.108 A 
HETATM   10  N   UNL     1     -38.233 -49.646  10.894  1.00  0.00    -0.310 N 
ATOM     11  HN  UNL     1     -38.393 -49.296   9.949  1.00  0.00     0.186 HD
ENDBRANCH   5   6
ENDBRANCH   3   5
ENDBRANCH   1   3
BRANCH   1  12
HETATM   12  C   UNL     1     -42.188 -50.768  12.542  1.00  0.00     0.372 C 
BRANCH  12  13
HETATM   13  C   UNL     1     -42.341 -52.284  12.734  1.00  0.00     0.248 C 
HETATM   14  O   UNL     1     -41.523 -53.081  12.267  1.00  0.00    -0.271 OA
HETATM   15  N   UNL     1     -43.443 -52.707  13.478  1.00  0.00    -0.350 N 
HETATM   16  C   UNL     1     -43.570 -54.127  13.802  1.00  0.00     0.126 C 
HETATM   17  C   UNL     1     -44.403 -51.822  14.143  1.00  0.00     0.130 C 
HETATM   18  C   UNL     1     -44.989 -54.625  13.546  1.00  0.00     0.020 C 
HETATM   19  C   UNL     1     -46.021 -53.752  14.257  1.00  0.00     0.007 C 
HETATM   20  C   UNL     1     -45.844 -52.278  13.865  1.00  0.00    -0.001 C 
HETATM   21  C   UNL     1     -46.851 -51.397  14.597  1.00  0.00     0.011 C 
ENDBRANCH  12  13
ENDBRANCH   1  12
TORSDOF 5
ENDMDL
MODEL 7
REMARK VINA RESULT:      -5.6      3.284      6.501
REMARK  5 active torsions:
REMARK  status: ('A' for Active; 'I' for Inactive)
REMARK    1  A    between atoms: C_2  and  C_3 
REMARK    2  A    between atoms: C_2  and  N_10 
REMARK    3  A    between atoms: C_3  and  N_4 
REMARK    4  A    between atoms: N_10  and  C_11 
REMARK    5  A    between atoms: C_11  and  C_12 
REMARK       I    between atoms: C_12  and  N_14 
ROOT
HETATM    1  N   UNL     1     -41.343 -52.362  11.480  1.00  0.00     0.098 N 
HETATM    2  H   UNL     1     -41.504 -52.449  10.473  1.00  0.00     0.317 HD
ENDROOT
BRANCH   1   3
HETATM    3  C   UNL     1     -42.551 -52.725  12.248  1.00  0.00     0.236 C 
HETATM    4  C   UNL     1     -42.151 -53.853  13.207  1.00  0.00     0.044 C 
BRANCH   3   5
HETATM    5  C   UNL     1     -43.112 -51.507  13.012  1.00  0.00     0.183 C 
BRANCH   5   6
HETATM    6  N   UNL     1     -44.519 -51.584  13.346  1.00  0.00    -0.302 N 
HETATM    7  C   UNL     1     -45.071 -51.362  14.576  1.00  0.00     0.111 A 
HETATM    8  C   UNL     1     -46.433 -51.401  14.395  1.00  0.00     0.037 A 
HETATM    9  C   UNL     1     -46.602 -51.650  13.021  1.00  0.00     0.108 A 
HETATM   10  N   UNL     1     -45.437 -51.757  12.375  1.00  0.00    -0.310 N 
ATOM     11  HN  UNL     1     -45.280 -51.928  11.382  1.00  0.00     0.186 HD
ENDBRANCH   5   6
ENDBRANCH   3   5
ENDBRANCH   1   3
BRANCH   1  12
HETATM   12  C   UNL     1     -40.867 -50.992  11.753  1.00  0.00     0.372 C 
BRANCH  12  13
HETATM   13  C   UNL     1     -39.549 -51.006  12.541  1.00  0.00     0.248 C 
HETATM   14  O   UNL     1     -39.010 -52.062  12.882  1.00  0.00    -0.271 OA
HETATM   15  N   UNL     1     -38.990 -49.761  12.835  1.00  0.00    -0.350 N 
HETATM   16  C   UNL     1     -37.673 -49.715  13.470  1.00  0.00     0.126 C 
HETATM   17  C   UNL     1     -39.518 -48.471  12.386  1.00  0.00     0.130 C 
HETATM   18  C   UNL     1     -37.656 -48.722  14.628  1.00  0.00     0.020 C 
HETATM   19  C   UNL     1     -38.161 -47.349  14.191  1.00  0.00     0.007 C 
HETATM   20  C   UNL     1     -39.550 -47.465  13.547  1.00  0.00    -0.001 C 
HETATM   21  C   UNL     1     -40.047 -46.100  13.079  1.00  0.00     0.011 C 
ENDBRANCH  12  13
ENDBRANCH   1  12
TORSDOF 5
ENDMDL
MODEL 8
REMARK VINA RESULT:      -5.5      1.829      2.594
REMARK  5 active torsions:
REMARK  status: ('A' for Active; 'I' for Inactive)
REMARK    1  A    between atoms: C_2  and  C_3 
REMARK    2  A    between atoms: C_2  and  N_10 
REMARK    3  A    between atoms: C_3  and  N_4 
REMARK    4  A    between atoms: N_10  and  C_11 
REMARK    5  A    between atoms: C_11  and  C_12 
REMARK       I    between atoms: C_12  and  N_14 
ROOT
HETATM    1  N   UNL     1     -42.063 -51.938  11.806  1.00  0.00     0.098 N 
HETATM    2  H   UNL     1     -41.335 -52.395  11.251  1.00  0.00     0.317 HD
ENDROOT
BRANCH   1   3
HETATM    3  C   UNL     1     -41.641 -50.587  12.231  1.00  0.00     0.236 C 
HETATM    4  C   UNL     1     -41.005 -50.732  13.619  1.00  0.00     0.044 C 
BRANCH   3   5
HETATM    5  C   UNL     1     -40.653 -49.968  11.220  1.00  0.00     0.183 C 
BRANCH   5   6
HETATM    6  N   UNL     1     -40.895 -48.579  10.893  1.00  0.00    -0.302 N 
HETATM    7  C   UNL     1     -42.058 -48.054  10.404  1.00  0.00     0.111 A 
HETATM    8  C   UNL     1     -41.881 -46.692  10.380  1.00  0.00     0.037 A 
HETATM    9  C   UNL     1     -40.580 -46.494  10.877  1.00  0.00     0.108 A 
HETATM   10  N   UNL     1     -39.976 -47.642  11.197  1.00  0.00    -0.310 N 
ATOM     11  HN  UNL     1     -39.041 -47.777  11.582  1.00  0.00     0.186 HD
ENDBRANCH   5   6
ENDBRANCH   3   5
ENDBRANCH   1   3
BRANCH   1  12
HETATM   12  C   UNL     1     -42.406 -52.824  12.935  1.00  0.00     0.372 C 
BRANCH  12  13
HETATM   13  C   UNL     1     -43.913 -53.120  12.974  1.00  0.00     0.248 C 
HETATM   14  O   UNL     1     -44.473 -53.745  12.069  1.00  0.00    -0.271 OA
HETATM   15  N   UNL     1     -44.607 -52.658  14.093  1.00  0.00    -0.350 N 
HETATM   16  C   UNL     1     -46.015 -53.021  14.246  1.00  0.00     0.126 C 
HETATM   17  C   UNL     1     -44.000 -51.994  15.248  1.00  0.00     0.130 C 
HETATM   18  C   UNL     1     -46.856 -51.811  14.642  1.00  0.00     0.020 C 
HETATM   19  C   UNL     1     -46.278 -51.112  15.870  1.00  0.00     0.007 C 
HETATM   20  C   UNL     1     -44.805 -50.746  15.641  1.00  0.00    -0.001 C 
HETATM   21  C   UNL     1     -44.213 -50.075  16.878  1.00  0.00     0.011 C 
ENDBRANCH  12  13
ENDBRANCH   1  12
TORSDOF 5
ENDMDL
MODEL 9
REMARK VINA RESULT:      -5.5      2.349      3.545
REMARK  5 active torsions:
REMARK  status: ('A' for Active; 'I' for Inactive)
REMARK    1  A    between atoms: C_2  and  C_3 
REMARK    2  A    between atoms: C_2  and  N_10 
REMARK    3  A    between atoms: C_3  and  N_4 
REMARK    4  A    between atoms: N_10  and  C_11 
REMARK    5  A    between atoms: C_11  and  C_12 
REMARK       I    between atoms: C_12  and  N_14 
ROOT
HETATM    1  N   UNL     1     -41.971 -54.194  12.972  1.00  0.00     0.098 N 
HETATM    2  H   UNL     1     -41.272 -54.941  12.984  1.00  0.00     0.317 HD
ENDROOT
BRANCH   1   3
HETATM    3  C   UNL     1     -41.338 -52.867  13.114  1.00  0.00     0.236 C 
HETATM    4  C   UNL     1     -40.007 -53.081  13.845  1.00  0.00     0.044 C 
BRANCH   3   5
HETATM    5  C   UNL     1     -41.126 -52.200  11.739  1.00  0.00     0.183 C 
BRANCH   5   6
HETATM    6  N   UNL     1     -41.202 -50.754  11.736  1.00  0.00    -0.302 N 
HETATM    7  C   UNL     1     -41.750 -49.971  12.712  1.00  0.00     0.111 A 
HETATM    8  C   UNL     1     -41.471 -48.673  12.360  1.00  0.00     0.037 A 
HETATM    9  C   UNL     1     -40.750 -48.777  11.157  1.00  0.00     0.108 A 
HETATM   10  N   UNL     1     -40.577 -50.046  10.775  1.00  0.00    -0.310 N 
ATOM     11  HN  UNL     1     -40.087 -50.395   9.951  1.00  0.00     0.186 HD
ENDBRANCH   5   6
ENDBRANCH   3   5
ENDBRANCH   1   3
BRANCH   1  12
HETATM   12  C   UNL     1     -42.969 -54.480  14.021  1.00  0.00     0.372 C 
BRANCH  12  13
HETATM   13  C   UNL     1     -44.379 -54.061  13.580  1.00  0.00     0.248 C 
HETATM   14  O   UNL     1     -44.842 -54.400  12.488  1.00  0.00    -0.271 OA
HETATM   15  N   UNL     1     -45.110 -53.293  14.487  1.00  0.00    -0.350 N 
HETATM   16  C   UNL     1     -46.502 -52.973  14.176  1.00  0.00     0.126 C 
HETATM   17  C   UNL     1     -44.667 -52.931  15.836  1.00  0.00     0.130 C 
HETATM   18  C   UNL     1     -46.800 -51.500  14.436  1.00  0.00     0.020 C 
HETATM   19  C   UNL     1     -46.391 -51.091  15.849  1.00  0.00     0.007 C 
HETATM   20  C   UNL     1     -44.918 -51.439  16.107  1.00  0.00    -0.001 C 
HETATM   21  C   UNL     1     -44.511 -51.062  17.528  1.00  0.00     0.011 C 
ENDBRANCH  12  13
ENDBRANCH   1  12
TORSDOF 5
ENDMDL
