MODEL 1
REMARK VINA RESULT:      -5.5      0.000      0.000
REMARK  6 active torsions:
REMARK  status: ('A' for Active; 'I' for Inactive)
REMARK    1  A    between atoms: C_2  and  N_3 
REMARK    2  A    between atoms: N_3  and  C_4 
REMARK    3  A    between atoms: N_3  and  C_6 
REMARK    4  A    between atoms: C_9  and  N_10 
REMARK       I    between atoms: N_10  and  C_11 
REMARK    5  A    between atoms: C_11  and  C_13 
REMARK    6  A    between atoms: N_15  and  C_16 
ROOT
HETATM    1  C   UNL     1     -41.849 -45.960  11.365  1.00  0.00     0.102 A 
HETATM    2  C   UNL     1     -42.359 -46.554  12.516  1.00  0.00     0.050 A 
HETATM    3  C   UNL     1     -42.449 -47.945  12.618  1.00  0.00     0.035 A 
HETATM    4  C   UNL     1     -42.050 -48.750  11.563  1.00  0.00     0.050 A 
HETATM    5  C   UNL     1     -41.645 -48.092  10.415  1.00  0.00     0.119 A 
HETATM    6  N   UNL     1     -41.535 -46.740  10.302  1.00  0.00    -0.350 N 
ATOM      7  HN  UNL     1     -41.222 -46.319   9.428  1.00  0.00     0.166 HD
ENDROOT
BRANCH   4   8
HETATM    8  N   UNL     1     -42.048 -50.162  11.617  1.00  0.00    -0.324 N 
HETATM    9  C   UNL     1     -40.938 -50.954  11.892  1.00  0.00     0.253 C 
HETATM   10  O   UNL     1     -39.807 -50.521  12.114  1.00  0.00    -0.270 OA
HETATM   11  H   UNL     1     -42.890 -50.654  11.312  1.00  0.00     0.169 HD
BRANCH   9  12
HETATM   12  C   UNL     1     -41.191 -52.480  11.942  1.00  0.00     0.241 C 
HETATM   13  C   UNL     1     -42.618 -52.880  12.367  1.00  0.00     0.314 C 
HETATM   14  N   UNL     1     -42.837 -52.691  13.824  1.00  0.00     0.093 N 
HETATM   15  C   UNL     1     -41.773 -53.438  14.550  1.00  0.00     0.298 C 
HETATM   16  C   UNL     1     -40.360 -53.049  14.085  1.00  0.00     0.199 C 
HETATM   17  O   UNL     1     -40.210 -53.218  12.676  1.00  0.00    -0.373 OA
BRANCH  14  18
HETATM   18  C   UNL     1     -44.153 -53.202  14.254  1.00  0.00     0.268 C 
HETATM   19  C   UNL     1     -44.740 -54.246  13.313  1.00  0.00     0.037 C 
ENDBRANCH  14  18
ENDBRANCH   9  12
ENDBRANCH   4   8
BRANCH   1  20
HETATM   20  N   UNL     1     -41.651 -44.572  11.280  1.00  0.00    -0.368 N 
BRANCH  20  21
HETATM   21  C   UNL     1     -42.625 -43.660  11.895  1.00  0.00     0.120 C 
HETATM   22  C   UNL     1     -43.232 -42.654  10.924  1.00  0.00     0.026 C 
ENDBRANCH  20  21
BRANCH  20  23
HETATM   23  C   UNL     1     -40.235 -44.192  11.138  1.00  0.00     0.120 C 
HETATM   24  C   UNL     1     -39.465 -44.057  12.444  1.00  0.00     0.026 C 
ENDBRANCH  20  23
ENDBRANCH   1  20
TORSDOF 6
ENDMDL
MODEL 2
REMARK VINA RESULT:      -5.4      3.890      7.220
REMARK  6 active torsions:
REMARK  status: ('A' for Active; 'I' for Inactive)
REMARK    1  A    between atoms: C_2  and  N_3 
REMARK    2  A    between atoms: N_3  and  C_4 
REMARK    3  A    between atoms: N_3  and  C_6 
REMARK    4  A    between atoms: C_9  and  N_10 
REMARK       I    between atoms: N_10  and  C_11 
REMARK    5  A    between atoms: C_11  and  C_13 
REMARK    6  A    between atoms: N_15  and  C_16 
ROOT
HETATM    1  C   UNL     1     -44.241 -52.536  13.465  1.00  0.00     0.102 A 
HETATM    2  C   UNL     1     -43.676 -52.334  14.721  1.00  0.00     0.050 A 
HETATM    3  C   UNL     1     -42.332 -51.972  14.846  1.00  0.00     0.035 A 
HETATM    4  C   UNL     1     -41.538 -51.833  13.720  1.00  0.00     0.050 A 
HETATM    5  C   UNL     1     -42.137 -52.144  12.511  1.00  0.00     0.119 A 
HETATM    6  N   UNL     1     -43.447 -52.481  12.367  1.00  0.00    -0.350 N 
ATOM      7  HN  UNL     1     -43.828 -52.690  11.444  1.00  0.00     0.166 HD
ENDROOT
BRANCH   4   8
HETATM    8  N   UNL     1     -40.192 -51.406  13.763  1.00  0.00    -0.324 N 
HETATM    9  C   UNL     1     -39.081 -52.239  13.669  1.00  0.00     0.253 C 
HETATM   10  O   UNL     1     -39.133 -53.463  13.546  1.00  0.00    -0.270 OA
HETATM   11  H   UNL     1     -40.006 -50.432  14.006  1.00  0.00     0.169 HD
BRANCH   9  12
HETATM   12  C   UNL     1     -37.704 -51.535  13.695  1.00  0.00     0.241 C 
HETATM   13  C   UNL     1     -37.716 -50.124  14.314  1.00  0.00     0.314 C 
HETATM   14  N   UNL     1     -38.326 -49.123  13.402  1.00  0.00     0.093 N 
HETATM   15  C   UNL     1     -37.609 -49.190  12.099  1.00  0.00     0.298 C 
HETATM   16  C   UNL     1     -37.579 -50.612  11.518  1.00  0.00     0.199 C 
HETATM   17  O   UNL     1     -37.013 -51.541  12.442  1.00  0.00    -0.373 OA
BRANCH  14  18
HETATM   18  C   UNL     1     -38.214 -47.751  13.935  1.00  0.00     0.268 C 
HETATM   19  C   UNL     1     -37.113 -47.589  14.976  1.00  0.00     0.037 C 
ENDBRANCH  14  18
ENDBRANCH   9  12
ENDBRANCH   4   8
BRANCH   1  20
HETATM   20  N   UNL     1     -45.613 -52.796  13.307  1.00  0.00    -0.368 N 
BRANCH  20  21
HETATM   21  C   UNL     1     -46.236 -53.891  14.063  1.00  0.00     0.120 C 
HETATM   22  C   UNL     1     -45.595 -55.253  13.822  1.00  0.00     0.026 C 
ENDBRANCH  20  21
BRANCH  20  23
HETATM   23  C   UNL     1     -46.388 -51.611  12.903  1.00  0.00     0.120 C 
HETATM   24  C   UNL     1     -47.132 -51.742  11.581  1.00  0.00     0.026 C 
ENDBRANCH  20  23
ENDBRANCH   1  20
TORSDOF 6
ENDMDL
MODEL 3
REMARK VINA RESULT:      -5.3      1.728      2.291
REMARK  6 active torsions:
REMARK  status: ('A' for Active; 'I' for Inactive)
REMARK    1  A    between atoms: C_2  and  N_3 
REMARK    2  A    between atoms: N_3  and  C_4 
REMARK    3  A    between atoms: N_3  and  C_6 
REMARK    4  A    between atoms: C_9  and  N_10 
REMARK       I    between atoms: N_10  and  C_11 
REMARK    5  A    between atoms: C_11  and  C_13 
REMARK    6  A    between atoms: N_15  and  C_16 
ROOT
HETATM    1  C   UNL     1     -40.670 -47.074  11.978  1.00  0.00     0.102 A 
HETATM    2  C   UNL     1     -41.778 -47.312  12.787  1.00  0.00     0.050 A 
HETATM    3  C   UNL     1     -42.377 -48.574  12.819  1.00  0.00     0.035 A 
HETATM    4  C   UNL     1     -41.888 -49.600  12.027  1.00  0.00     0.050 A 
HETATM    5  C   UNL     1     -40.848 -49.268  11.175  1.00  0.00     0.119 A 
HETATM    6  N   UNL     1     -40.241 -48.051  11.141  1.00  0.00    -0.350 N 
ATOM      7  HN  UNL     1     -39.473 -47.875  10.494  1.00  0.00     0.166 HD
ENDROOT
BRANCH   4   8
HETATM    8  N   UNL     1     -42.398 -50.917  12.056  1.00  0.00    -0.324 N 
HETATM    9  C   UNL     1     -41.806 -51.994  12.708  1.00  0.00     0.253 C 
HETATM   10  O   UNL     1     -40.751 -51.936  13.340  1.00  0.00    -0.270 OA
HETATM   11  H   UNL     1     -43.193 -51.137  11.453  1.00  0.00     0.169 HD
BRANCH   9  12
HETATM   12  C   UNL     1     -42.575 -53.334  12.637  1.00  0.00     0.241 C 
HETATM   13  C   UNL     1     -44.108 -53.191  12.552  1.00  0.00     0.314 C 
HETATM   14  N   UNL     1     -44.702 -52.800  13.856  1.00  0.00     0.093 N 
HETATM   15  C   UNL     1     -44.257 -53.787  14.878  1.00  0.00     0.298 C 
HETATM   16  C   UNL     1     -42.728 -53.940  14.921  1.00  0.00     0.199 C 
HETATM   17  O   UNL     1     -42.203 -54.285  13.639  1.00  0.00    -0.373 OA
BRANCH  14  18
HETATM   18  C   UNL     1     -46.177 -52.797  13.810  1.00  0.00     0.268 C 
HETATM   19  C   UNL     1     -46.803 -51.540  14.404  1.00  0.00     0.037 C 
ENDBRANCH  14  18
ENDBRANCH   9  12
ENDBRANCH   4   8
BRANCH   1  20
HETATM   20  N   UNL     1     -39.987 -45.847  12.007  1.00  0.00    -0.368 N 
BRANCH  20  21
HETATM   21  C   UNL     1     -40.286 -44.825  10.994  1.00  0.00     0.120 C 
HETATM   22  C   UNL     1     -39.296 -44.793   9.835  1.00  0.00     0.026 C 
ENDBRANCH  20  21
BRANCH  20  23
HETATM   23  C   UNL     1     -39.517 -45.473  13.352  1.00  0.00     0.120 C 
HETATM   24  C   UNL     1     -38.535 -46.446  13.990  1.00  0.00     0.026 C 
ENDBRANCH  20  23
ENDBRANCH   1  20
TORSDOF 6
ENDMDL
MODEL 4
REMARK VINA RESULT:      -5.2      2.200      7.774
REMARK  6 active torsions:
REMARK  status: ('A' for Active; 'I' for Inactive)
REMARK    1  A    between atoms: C_2  and  N_3 
REMARK    2  A    between atoms: N_3  and  C_4 
REMARK    3  A    between atoms: N_3  and  C_6 
REMARK    4  A    between atoms: C_9  and  N_10 
REMARK       I    between atoms: N_10  and  C_11 
REMARK    5  A    between atoms: C_11  and  C_13 
REMARK    6  A    between atoms: N_15  and  C_16 
ROOT
HETATM    1  C   UNL     1     -42.457 -51.988  12.598  1.00  0.00     0.102 A 
HETATM    2  C   UNL     1     -41.209 -51.891  11.989  1.00  0.00     0.050 A 
HETATM    3  C   UNL     1     -40.664 -50.642  11.679  1.00  0.00     0.035 A 
HETATM    4  C   UNL     1     -41.372 -49.484  11.952  1.00  0.00     0.050 A 
HETATM    5  C   UNL     1     -42.646 -49.657  12.467  1.00  0.00     0.119 A 
HETATM    6  N   UNL     1     -43.187 -50.862  12.791  1.00  0.00    -0.350 N 
ATOM      7  HN  UNL     1     -44.129 -50.918  13.176  1.00  0.00     0.166 HD
ENDROOT
BRANCH   4   8
HETATM    8  N   UNL     1     -40.860 -48.186  11.729  1.00  0.00    -0.324 N 
HETATM    9  C   UNL     1     -41.248 -47.335  10.698  1.00  0.00     0.253 C 
HETATM   10  O   UNL     1     -42.084 -47.613   9.839  1.00  0.00    -0.270 OA
HETATM   11  H   UNL     1     -40.056 -47.886  12.284  1.00  0.00     0.169 HD
BRANCH   9  12
HETATM   12  C   UNL     1     -40.578 -45.941  10.685  1.00  0.00     0.241 C 
HETATM   13  C   UNL     1     -39.907 -45.537  12.012  1.00  0.00     0.314 C 
HETATM   14  N   UNL     1     -40.905 -45.163  13.047  1.00  0.00     0.093 N 
HETATM   15  C   UNL     1     -41.778 -44.099  12.480  1.00  0.00     0.298 C 
HETATM   16  C   UNL     1     -42.408 -44.509  11.139  1.00  0.00     0.199 C 
HETATM   17  O   UNL     1     -41.412 -44.889  10.190  1.00  0.00    -0.373 OA
BRANCH  14  18
HETATM   18  C   UNL     1     -40.262 -44.646  14.271  1.00  0.00     0.268 C 
HETATM   19  C   UNL     1     -39.189 -45.571  14.834  1.00  0.00     0.037 C 
ENDBRANCH  14  18
ENDBRANCH   9  12
ENDBRANCH   4   8
BRANCH   1  20
HETATM   20  N   UNL     1     -42.978 -53.224  13.015  1.00  0.00    -0.368 N 
BRANCH  20  21
HETATM   21  C   UNL     1     -44.316 -53.636  12.568  1.00  0.00     0.120 C 
HETATM   22  C   UNL     1     -45.012 -54.611  13.511  1.00  0.00     0.026 C 
ENDBRANCH  20  21
BRANCH  20  23
HETATM   23  C   UNL     1     -41.939 -54.218  13.331  1.00  0.00     0.120 C 
HETATM   24  C   UNL     1     -41.546 -54.303  14.799  1.00  0.00     0.026 C 
ENDBRANCH  20  23
ENDBRANCH   1  20
TORSDOF 6
ENDMDL
MODEL 5
REMARK VINA RESULT:      -5.1      2.266      8.356
REMARK  6 active torsions:
REMARK  status: ('A' for Active; 'I' for Inactive)
REMARK    1  A    between atoms: C_2  and  N_3 
REMARK    2  A    between atoms: N_3  and  C_4 
REMARK    3  A    between atoms: N_3  and  C_6 
REMARK    4  A    between atoms: C_9  and  N_10 
REMARK       I    between atoms: N_10  and  C_11 
REMARK    5  A    between atoms: C_11  and  C_13 
REMARK    6  A    between atoms: N_15  and  C_16 
ROOT
HETATM    1  C   UNL     1     -40.528 -51.565  12.936  1.00  0.00     0.102 A 
HETATM    2  C   UNL     1     -39.330 -51.059  12.438  1.00  0.00     0.050 A 
HETATM    3  C   UNL     1     -39.310 -49.862  11.716  1.00  0.00     0.035 A 
HETATM    4  C   UNL     1     -40.487 -49.177  11.467  1.00  0.00     0.050 A 
HETATM    5  C   UNL     1     -41.651 -49.786  11.905  1.00  0.00     0.119 A 
HETATM    6  N   UNL     1     -41.690 -50.941  12.624  1.00  0.00    -0.350 N 
ATOM      7  HN  UNL     1     -42.582 -51.332  12.924  1.00  0.00     0.166 HD
ENDROOT
BRANCH   4   8
HETATM    8  N   UNL     1     -40.538 -47.930  10.803  1.00  0.00    -0.324 N 
HETATM    9  C   UNL     1     -40.222 -46.702  11.375  1.00  0.00     0.253 C 
HETATM   10  O   UNL     1     -39.865 -46.545  12.543  1.00  0.00    -0.270 OA
HETATM   11  H   UNL     1     -40.956 -47.900   9.872  1.00  0.00     0.169 HD
BRANCH   9  12
HETATM   12  C   UNL     1     -40.309 -45.476  10.436  1.00  0.00     0.241 C 
HETATM   13  C   UNL     1     -39.727 -44.175  11.022  1.00  0.00     0.314 C 
HETATM   14  N   UNL     1     -40.621 -43.581  12.050  1.00  0.00     0.093 N 
HETATM   15  C   UNL     1     -41.968 -43.404  11.441  1.00  0.00     0.298 C 
HETATM   16  C   UNL     1     -42.512 -44.706  10.830  1.00  0.00     0.199 C 
HETATM   17  O   UNL     1     -41.605 -45.252   9.874  1.00  0.00    -0.373 OA
BRANCH  14  18
HETATM   18  C   UNL     1     -40.133 -42.268  12.512  1.00  0.00     0.268 C 
HETATM   19  C   UNL     1     -40.921 -41.091  11.948  1.00  0.00     0.037 C 
ENDBRANCH  14  18
ENDBRANCH   9  12
ENDBRANCH   4   8
BRANCH   1  20
HETATM   20  N   UNL     1     -40.560 -52.708  13.753  1.00  0.00    -0.368 N 
BRANCH  20  21
HETATM   21  C   UNL     1     -39.325 -53.176  14.396  1.00  0.00     0.120 C 
HETATM   22  C   UNL     1     -39.101 -54.680  14.287  1.00  0.00     0.026 C 
ENDBRANCH  20  21
BRANCH  20  23
HETATM   23  C   UNL     1     -41.877 -52.949  14.365  1.00  0.00     0.120 C 
HETATM   24  C   UNL     1     -42.654 -54.127  13.791  1.00  0.00     0.026 C 
ENDBRANCH  20  23
ENDBRANCH   1  20
TORSDOF 6
ENDMDL
MODEL 6
REMARK VINA RESULT:      -5.0      2.463      7.705
REMARK  6 active torsions:
REMARK  status: ('A' for Active; 'I' for Inactive)
REMARK    1  A    between atoms: C_2  and  N_3 
REMARK    2  A    between atoms: N_3  and  C_4 
REMARK    3  A    between atoms: N_3  and  C_6 
REMARK    4  A    between atoms: C_9  and  N_10 
REMARK       I    between atoms: N_10  and  C_11 
REMARK    5  A    between atoms: C_11  and  C_13 
REMARK    6  A    between atoms: N_15  and  C_16 
ROOT
HETATM    1  C   UNL     1     -43.713 -51.463  13.435  1.00  0.00     0.102 A 
HETATM    2  C   UNL     1     -43.854 -50.244  14.092  1.00  0.00     0.050 A 
HETATM    3  C   UNL     1     -43.085 -49.140  13.717  1.00  0.00     0.035 A 
HETATM    4  C   UNL     1     -42.152 -49.252  12.699  1.00  0.00     0.050 A 
HETATM    5  C   UNL     1     -41.994 -50.515  12.155  1.00  0.00     0.119 A 
HETATM    6  N   UNL     1     -42.745 -51.598  12.495  1.00  0.00    -0.350 N 
ATOM      7  HN  UNL     1     -42.582 -52.500  12.049  1.00  0.00     0.166 HD
ENDROOT
BRANCH   4   8
HETATM    8  N   UNL     1     -41.386 -48.166  12.220  1.00  0.00    -0.324 N 
HETATM    9  C   UNL     1     -41.629 -47.469  11.040  1.00  0.00     0.253 C 
HETATM   10  O   UNL     1     -42.542 -47.721  10.254  1.00  0.00    -0.270 OA
HETATM   11  H   UNL     1     -40.514 -47.945  12.703  1.00  0.00     0.169 HD
BRANCH   9  12
HETATM   12  C   UNL     1     -40.679 -46.284  10.746  1.00  0.00     0.241 C 
HETATM   13  C   UNL     1     -39.825 -45.833  11.947  1.00  0.00     0.314 C 
HETATM   14  N   UNL     1     -40.625 -45.080  12.947  1.00  0.00     0.093 N 
HETATM   15  C   UNL     1     -41.295 -43.952  12.243  1.00  0.00     0.298 C 
HETATM   16  C   UNL     1     -42.113 -44.420  11.028  1.00  0.00     0.199 C 
HETATM   17  O   UNL     1     -41.308 -45.165  10.114  1.00  0.00    -0.373 OA
BRANCH  14  18
HETATM   18  C   UNL     1     -39.782 -44.532  14.027  1.00  0.00     0.268 C 
HETATM   19  C   UNL     1     -39.177 -45.599  14.931  1.00  0.00     0.037 C 
ENDBRANCH  14  18
ENDBRANCH   9  12
ENDBRANCH   4   8
BRANCH   1  20
HETATM   20  N   UNL     1     -44.548 -52.555  13.722  1.00  0.00    -0.368 N 
BRANCH  20  21
HETATM   21  C   UNL     1     -44.859 -52.884  15.120  1.00  0.00     0.120 C 
HETATM   22  C   UNL     1     -45.804 -54.068  15.283  1.00  0.00     0.026 C 
ENDBRANCH  20  21
BRANCH  20  23
HETATM   23  C   UNL     1     -45.492 -52.869  12.637  1.00  0.00     0.120 C 
HETATM   24  C   UNL     1     -46.569 -51.821  12.390  1.00  0.00     0.026 C 
ENDBRANCH  20  23
ENDBRANCH   1  20
TORSDOF 6
ENDMDL
MODEL 7
REMARK VINA RESULT:      -4.8      6.206      7.730
REMARK  6 active torsions:
REMARK  status: ('A' for Active; 'I' for Inactive)
REMARK    1  A    between atoms: C_2  and  N_3 
REMARK    2  A    between atoms: N_3  and  C_4 
REMARK    3  A    between atoms: N_3  and  C_6 
REMARK    4  A    between atoms: C_9  and  N_10 
REMARK       I    between atoms: N_10  and  C_11 
REMARK    5  A    between atoms: C_11  and  C_13 
REMARK    6  A    between atoms: N_15  and  C_16 
ROOT
HETATM    1  C   UNL     1     -47.159 -49.436  18.366  1.00  0.00     0.102 A 
HETATM    2  C   UNL     1     -48.185 -50.249  17.894  1.00  0.00     0.050 A 
HETATM    3  C   UNL     1     -47.920 -51.268  16.975  1.00  0.00     0.035 A 
HETATM    4  C   UNL     1     -46.632 -51.467  16.505  1.00  0.00     0.050 A 
HETATM    5  C   UNL     1     -45.679 -50.561  16.940  1.00  0.00     0.119 A 
HETATM    6  N   UNL     1     -45.914 -49.574  17.846  1.00  0.00    -0.350 N 
ATOM      7  HN  UNL     1     -45.164 -48.945  18.131  1.00  0.00     0.166 HD
ENDROOT
BRANCH   4   8
HETATM    8  N   UNL     1     -46.275 -52.516  15.629  1.00  0.00    -0.324 N 
HETATM    9  C   UNL     1     -46.277 -52.439  14.240  1.00  0.00     0.253 C 
HETATM   10  O   UNL     1     -46.603 -51.443  13.594  1.00  0.00    -0.270 OA
HETATM   11  H   UNL     1     -46.121 -53.443  16.029  1.00  0.00     0.169 HD
BRANCH   9  12
HETATM   12  C   UNL     1     -45.802 -53.707  13.491  1.00  0.00     0.241 C 
HETATM   13  C   UNL     1     -45.009 -54.705  14.358  1.00  0.00     0.314 C 
HETATM   14  N   UNL     1     -43.631 -54.226  14.636  1.00  0.00     0.093 N 
HETATM   15  C   UNL     1     -42.976 -53.926  13.333  1.00  0.00     0.298 C 
HETATM   16  C   UNL     1     -43.801 -52.958  12.471  1.00  0.00     0.199 C 
HETATM   17  O   UNL     1     -45.125 -53.447  12.258  1.00  0.00    -0.373 OA
BRANCH  14  18
HETATM   18  C   UNL     1     -42.828 -55.239  15.349  1.00  0.00     0.268 C 
HETATM   19  C   UNL     1     -41.377 -54.825  15.566  1.00  0.00     0.037 C 
ENDBRANCH  14  18
ENDBRANCH   9  12
ENDBRANCH   4   8
BRANCH   1  20
HETATM   20  N   UNL     1     -47.382 -48.475  19.367  1.00  0.00    -0.368 N 
BRANCH  20  21
HETATM   21  C   UNL     1     -47.630 -47.077  18.990  1.00  0.00     0.120 C 
HETATM   22  C   UNL     1     -49.074 -46.789  18.595  1.00  0.00     0.026 C 
ENDBRANCH  20  21
BRANCH  20  23
HETATM   23  C   UNL     1     -47.943 -49.043  20.604  1.00  0.00     0.120 C 
HETATM   24  C   UNL     1     -46.980 -49.891  21.425  1.00  0.00     0.026 C 
ENDBRANCH  20  23
ENDBRANCH   1  20
TORSDOF 6
ENDMDL
MODEL 8
REMARK VINA RESULT:      -4.8      2.007      8.140
REMARK  6 active torsions:
REMARK  status: ('A' for Active; 'I' for Inactive)
REMARK    1  A    between atoms: C_2  and  N_3 
REMARK    2  A    between atoms: N_3  and  C_4 
REMARK    3  A    between atoms: N_3  and  C_6 
REMARK    4  A    between atoms: C_9  and  N_10 
REMARK       I    between atoms: N_10  and  C_11 
REMARK    5  A    between atoms: C_11  and  C_13 
REMARK    6  A    between atoms: N_15  and  C_16 
ROOT
HETATM    1  C   UNL     1     -43.776 -52.637  14.597  1.00  0.00     0.102 A 
HETATM    2  C   UNL     1     -44.492 -51.468  14.355  1.00  0.00     0.050 A 
HETATM    3  C   UNL     1     -44.030 -50.530  13.428  1.00  0.00     0.035 A 
HETATM    4  C   UNL     1     -42.838 -50.742  12.755  1.00  0.00     0.050 A 
HETATM    5  C   UNL     1     -42.129 -51.876  13.115  1.00  0.00     0.119 A 
HETATM    6  N   UNL     1     -42.571 -52.809  14.002  1.00  0.00    -0.350 N 
ATOM      7  HN  UNL     1     -42.001 -53.627  14.216  1.00  0.00     0.166 HD
ENDROOT
BRANCH   4   8
HETATM    8  N   UNL     1     -42.341 -49.874  11.757  1.00  0.00    -0.324 N 
HETATM    9  C   UNL     1     -41.654 -48.688  11.993  1.00  0.00     0.253 C 
HETATM   10  O   UNL     1     -41.399 -48.237  13.111  1.00  0.00    -0.270 OA
HETATM   11  H   UNL     1     -42.608 -50.056  10.788  1.00  0.00     0.169 HD
BRANCH   9  12
HETATM   12  C   UNL     1     -41.166 -47.927  10.738  1.00  0.00     0.241 C 
HETATM   13  C   UNL     1     -40.295 -46.690  11.035  1.00  0.00     0.314 C 
HETATM   14  N   UNL     1     -41.103 -45.551  11.539  1.00  0.00     0.093 N 
HETATM   15  C   UNL     1     -42.189 -45.286  10.555  1.00  0.00     0.298 C 
HETATM   16  C   UNL     1     -43.021 -46.541  10.247  1.00  0.00     0.199 C 
HETATM   17  O   UNL     1     -42.197 -47.616   9.797  1.00  0.00    -0.373 OA
BRANCH  14  18
HETATM   18  C   UNL     1     -40.294 -44.326  11.692  1.00  0.00     0.268 C 
HETATM   19  C   UNL     1     -41.068 -43.044  11.412  1.00  0.00     0.037 C 
ENDBRANCH  14  18
ENDBRANCH   9  12
ENDBRANCH   4   8
BRANCH   1  20
HETATM   20  N   UNL     1     -44.273 -53.642  15.444  1.00  0.00    -0.368 N 
BRANCH  20  21
HETATM   21  C   UNL     1     -45.616 -54.191  15.210  1.00  0.00     0.120 C 
HETATM   22  C   UNL     1     -45.702 -55.130  14.012  1.00  0.00     0.026 C 
ENDBRANCH  20  21
BRANCH  20  23
HETATM   23  C   UNL     1     -43.215 -54.455  16.067  1.00  0.00     0.120 C 
HETATM   24  C   UNL     1     -43.407 -54.745  17.550  1.00  0.00     0.026 C 
ENDBRANCH  20  23
ENDBRANCH   1  20
TORSDOF 6
ENDMDL
MODEL 9
REMARK VINA RESULT:      -4.8      4.536      5.777
REMARK  6 active torsions:
REMARK  status: ('A' for Active; 'I' for Inactive)
REMARK    1  A    between atoms: C_2  and  N_3 
REMARK    2  A    between atoms: N_3  and  C_4 
REMARK    3  A    between atoms: N_3  and  C_6 
REMARK    4  A    between atoms: C_9  and  N_10 
REMARK       I    between atoms: N_10  and  C_11 
REMARK    5  A    between atoms: C_11  and  C_13 
REMARK    6  A    between atoms: N_15  and  C_16 
ROOT
HETATM    1  C   UNL     1     -39.004 -51.031  13.876  1.00  0.00     0.102 A 
HETATM    2  C   UNL     1     -39.030 -52.421  13.958  1.00  0.00     0.050 A 
HETATM    3  C   UNL     1     -40.245 -53.108  14.010  1.00  0.00     0.035 A 
HETATM    4  C   UNL     1     -41.442 -52.411  14.004  1.00  0.00     0.050 A 
HETATM    5  C   UNL     1     -41.342 -51.030  14.020  1.00  0.00     0.119 A 
HETATM    6  N   UNL     1     -40.170 -50.343  13.953  1.00  0.00    -0.350 N 
ATOM      7  HN  UNL     1     -40.167 -49.324  13.960  1.00  0.00     0.166 HD
ENDROOT
BRANCH   4   8
HETATM    8  N   UNL     1     -42.709 -53.037  13.986  1.00  0.00    -0.324 N 
HETATM    9  C   UNL     1     -43.214 -53.856  14.990  1.00  0.00     0.253 C 
HETATM   10  O   UNL     1     -42.612 -54.150  16.023  1.00  0.00    -0.270 OA
HETATM   11  H   UNL     1     -43.253 -52.993  13.123  1.00  0.00     0.169 HD
BRANCH   9  12
HETATM   12  C   UNL     1     -44.648 -54.392  14.768  1.00  0.00     0.241 C 
HETATM   13  C   UNL     1     -45.508 -53.548  13.807  1.00  0.00     0.314 C 
HETATM   14  N   UNL     1     -45.966 -52.283  14.436  1.00  0.00     0.093 N 
HETATM   15  C   UNL     1     -46.665 -52.628  15.704  1.00  0.00     0.298 C 
HETATM   16  C   UNL     1     -45.804 -53.500  16.632  1.00  0.00     0.199 C 
HETATM   17  O   UNL     1     -45.363 -54.686  15.973  1.00  0.00    -0.373 OA
BRANCH  14  18
HETATM   18  C   UNL     1     -46.899 -51.541  13.566  1.00  0.00     0.268 C 
HETATM   19  C   UNL     1     -46.718 -51.840  12.083  1.00  0.00     0.037 C 
ENDBRANCH  14  18
ENDBRANCH   9  12
ENDBRANCH   4   8
BRANCH   1  20
HETATM   20  N   UNL     1     -37.800 -50.325  13.716  1.00  0.00    -0.368 N 
BRANCH  20  21
HETATM   21  C   UNL     1     -37.686 -49.313  12.658  1.00  0.00     0.120 C 
HETATM   22  C   UNL     1     -37.393 -49.889  11.278  1.00  0.00     0.026 C 
ENDBRANCH  20  21
BRANCH  20  23
HETATM   23  C   UNL     1     -37.016 -50.222  14.958  1.00  0.00     0.120 C 
HETATM   24  C   UNL     1     -37.503 -49.172  15.948  1.00  0.00     0.026 C 
ENDBRANCH  20  23
ENDBRANCH   1  20
TORSDOF 6
ENDMDL
