MODEL 1
REMARK VINA RESULT:      -6.1      0.000      0.000
REMARK  5 active torsions:
REMARK  status: ('A' for Active; 'I' for Inactive)
REMARK       I    between atoms: C_2  and  N_4 
REMARK    1  A    between atoms: C_7  and  C_8 
REMARK    2  A    between atoms: C_8  and  N_9 
REMARK    3  A    between atoms: N_9  and  C_10 
REMARK    4  A    between atoms: C_10  and  C_11 
REMARK    5  A    between atoms: C_11  and  N_12 
ROOT
HETATM    1  N   UNL     1     -40.411 -49.923  10.692  1.00  0.00     0.085 N 
HETATM    2  H   UNL     1     -40.805 -50.657  10.101  1.00  0.00     0.315 HD
ENDROOT
BRANCH   1   3
HETATM    3  C   UNL     1     -39.649 -50.549  11.777  1.00  0.00     0.274 C 
BRANCH   3   4
HETATM    4  C   UNL     1     -38.182 -50.084  11.790  1.00  0.00     0.016 C 
HETATM    5  C   UNL     1     -37.325 -51.073  12.607  1.00  0.00     0.026 C 
HETATM    6  C   UNL     1     -37.589 -50.979  14.115  1.00  0.00     0.126 C 
HETATM    7  N   UNL     1     -37.466 -49.598  14.575  1.00  0.00    -0.352 N 
HETATM    8  C   UNL     1     -36.723 -49.333  15.715  1.00  0.00     0.215 C 
HETATM    9  C   UNL     1     -38.284 -48.615  13.862  1.00  0.00     0.126 C 
HETATM   10  C   UNL     1     -36.489 -47.884  16.059  1.00  0.00     0.117 C 
HETATM   11  O   UNL     1     -36.220 -50.219  16.406  1.00  0.00    -0.274 OA
HETATM   12  C   UNL     1     -38.001 -48.667  12.365  1.00  0.00     0.026 C 
ENDBRANCH   3   4
ENDBRANCH   1   3
BRANCH   1  13
HETATM   13  C   UNL     1     -41.510 -49.088  11.208  1.00  0.00     0.291 C 
BRANCH  13  14
HETATM   14  C   UNL     1     -41.645 -47.741  10.494  1.00  0.00     0.178 C 
BRANCH  14  15
HETATM   15  N   UNL     1     -42.865 -47.660   9.715  1.00  0.00    -0.302 N 
HETATM   16  C   UNL     1     -44.114 -47.371  10.184  1.00  0.00     0.118 A 
HETATM   17  C   UNL     1     -44.962 -47.484   9.103  1.00  0.00    -0.028 A 
HETATM   18  C   UNL     1     -46.428 -47.300   9.067  1.00  0.00     0.051 C 
HETATM   19  C   UNL     1     -44.110 -47.839   8.031  1.00  0.00     0.115 A 
HETATM   20  N   UNL     1     -42.831 -47.931   8.401  1.00  0.00    -0.310 N 
ATOM     21  HN  UNL     1     -42.022 -48.155   7.823  1.00  0.00     0.186 HD
ENDBRANCH  14  15
ENDBRANCH  13  14
ENDBRANCH   1  13
TORSDOF 5
ENDMDL
MODEL 2
REMARK VINA RESULT:      -6.0      4.335      5.609
REMARK  5 active torsions:
REMARK  status: ('A' for Active; 'I' for Inactive)
REMARK       I    between atoms: C_2  and  N_4 
REMARK    1  A    between atoms: C_7  and  C_8 
REMARK    2  A    between atoms: C_8  and  N_9 
REMARK    3  A    between atoms: N_9  and  C_10 
REMARK    4  A    between atoms: C_10  and  C_11 
REMARK    5  A    between atoms: C_11  and  N_12 
ROOT
HETATM    1  N   UNL     1     -42.220 -49.996  11.764  1.00  0.00     0.085 N 
HETATM    2  H   UNL     1     -42.473 -49.438  12.582  1.00  0.00     0.315 HD
ENDROOT
BRANCH   1   3
HETATM    3  C   UNL     1     -41.698 -51.288  12.217  1.00  0.00     0.274 C 
BRANCH   3   4
HETATM    4  C   UNL     1     -42.050 -51.566  13.689  1.00  0.00     0.016 C 
HETATM    5  C   UNL     1     -41.886 -53.069  13.995  1.00  0.00     0.026 C 
HETATM    6  C   UNL     1     -42.981 -53.927  13.351  1.00  0.00     0.126 C 
HETATM    7  N   UNL     1     -44.305 -53.415  13.691  1.00  0.00    -0.352 N 
HETATM    8  C   UNL     1     -45.278 -54.302  14.125  1.00  0.00     0.215 C 
HETATM    9  C   UNL     1     -44.537 -52.001  13.391  1.00  0.00     0.126 C 
HETATM   10  C   UNL     1     -46.574 -53.712  14.619  1.00  0.00     0.117 C 
HETATM   11  O   UNL     1     -45.102 -55.521  14.166  1.00  0.00    -0.274 OA
HETATM   12  C   UNL     1     -43.480 -51.131  14.061  1.00  0.00     0.026 C 
ENDBRANCH   3   4
ENDBRANCH   1   3
BRANCH   1  13
HETATM   13  C   UNL     1     -41.226 -49.252  10.971  1.00  0.00     0.291 C 
BRANCH  13  14
HETATM   14  C   UNL     1     -41.606 -47.789  10.727  1.00  0.00     0.178 C 
BRANCH  14  15
HETATM   15  N   UNL     1     -42.786 -47.668   9.894  1.00  0.00    -0.302 N 
HETATM   16  C   UNL     1     -44.048 -47.357  10.309  1.00  0.00     0.118 A 
HETATM   17  C   UNL     1     -44.848 -47.434   9.189  1.00  0.00    -0.028 A 
HETATM   18  C   UNL     1     -46.306 -47.214   9.089  1.00  0.00     0.051 C 
HETATM   19  C   UNL     1     -43.956 -47.794   8.152  1.00  0.00     0.115 A 
HETATM   20  N   UNL     1     -42.698 -47.922   8.579  1.00  0.00    -0.310 N 
ATOM     21  HN  UNL     1     -41.868 -48.156   8.035  1.00  0.00     0.186 HD
ENDBRANCH  14  15
ENDBRANCH  13  14
ENDBRANCH   1  13
TORSDOF 5
ENDMDL
MODEL 3
REMARK VINA RESULT:      -6.0      4.000      4.957
REMARK  5 active torsions:
REMARK  status: ('A' for Active; 'I' for Inactive)
REMARK       I    between atoms: C_2  and  N_4 
REMARK    1  A    between atoms: C_7  and  C_8 
REMARK    2  A    between atoms: C_8  and  N_9 
REMARK    3  A    between atoms: N_9  and  C_10 
REMARK    4  A    between atoms: C_10  and  C_11 
REMARK    5  A    between atoms: C_11  and  N_12 
ROOT
HETATM    1  N   UNL     1     -42.030 -50.142  11.750  1.00  0.00     0.085 N 
HETATM    2  H   UNL     1     -42.507 -49.531  12.417  1.00  0.00     0.315 HD
ENDROOT
BRANCH   1   3
HETATM    3  C   UNL     1     -41.236 -51.122  12.495  1.00  0.00     0.274 C 
BRANCH   3   4
HETATM    4  C   UNL     1     -41.627 -52.568  12.139  1.00  0.00     0.016 C 
HETATM    5  C   UNL     1     -43.131 -52.785  12.402  1.00  0.00     0.026 C 
HETATM    6  C   UNL     1     -43.469 -52.838  13.897  1.00  0.00     0.126 C 
HETATM    7  N   UNL     1     -42.620 -53.809  14.583  1.00  0.00    -0.352 N 
HETATM    8  C   UNL     1     -43.205 -54.715  15.455  1.00  0.00     0.215 C 
HETATM    9  C   UNL     1     -41.179 -53.634  14.403  1.00  0.00     0.126 C 
HETATM   10  C   UNL     1     -42.319 -55.798  16.014  1.00  0.00     0.117 C 
HETATM   11  O   UNL     1     -44.404 -54.693  15.737  1.00  0.00    -0.274 OA
HETATM   12  C   UNL     1     -40.821 -53.622  12.921  1.00  0.00     0.026 C 
ENDBRANCH   3   4
ENDBRANCH   1   3
BRANCH   1  13
HETATM   13  C   UNL     1     -41.189 -49.314  10.867  1.00  0.00     0.291 C 
BRANCH  13  14
HETATM   14  C   UNL     1     -41.640 -47.854  10.782  1.00  0.00     0.178 C 
BRANCH  14  15
HETATM   15  N   UNL     1     -42.803 -47.694   9.932  1.00  0.00    -0.302 N 
HETATM   16  C   UNL     1     -44.061 -47.345  10.329  1.00  0.00     0.118 A 
HETATM   17  C   UNL     1     -44.845 -47.394   9.196  1.00  0.00    -0.028 A 
HETATM   18  C   UNL     1     -46.294 -47.130   9.074  1.00  0.00     0.051 C 
HETATM   19  C   UNL     1     -43.948 -47.778   8.172  1.00  0.00     0.115 A 
HETATM   20  N   UNL     1     -42.702 -47.946   8.617  1.00  0.00    -0.310 N 
ATOM     21  HN  UNL     1     -41.871 -48.204   8.086  1.00  0.00     0.186 HD
ENDBRANCH  14  15
ENDBRANCH  13  14
ENDBRANCH   1  13
TORSDOF 5
ENDMDL
MODEL 4
REMARK VINA RESULT:      -5.7      4.466      6.366
REMARK  5 active torsions:
REMARK  status: ('A' for Active; 'I' for Inactive)
REMARK       I    between atoms: C_2  and  N_4 
REMARK    1  A    between atoms: C_7  and  C_8 
REMARK    2  A    between atoms: C_8  and  N_9 
REMARK    3  A    between atoms: N_9  and  C_10 
REMARK    4  A    between atoms: C_10  and  C_11 
REMARK    5  A    between atoms: C_11  and  N_12 
ROOT
HETATM    1  N   UNL     1     -40.701 -51.525  11.379  1.00  0.00     0.085 N 
HETATM    2  H   UNL     1     -40.127 -52.131  10.789  1.00  0.00     0.315 HD
ENDROOT
BRANCH   1   3
HETATM    3  C   UNL     1     -40.091 -50.194  11.423  1.00  0.00     0.274 C 
BRANCH   3   4
HETATM    4  C   UNL     1     -40.900 -49.220  12.299  1.00  0.00     0.016 C 
HETATM    5  C   UNL     1     -42.198 -48.811  11.570  1.00  0.00     0.026 C 
HETATM    6  C   UNL     1     -41.941 -47.868  10.390  1.00  0.00     0.126 C 
HETATM    7  N   UNL     1     -41.134 -46.725  10.809  1.00  0.00    -0.352 N 
HETATM    8  C   UNL     1     -41.527 -45.450  10.431  1.00  0.00     0.215 C 
HETATM    9  C   UNL     1     -39.871 -47.047  11.474  1.00  0.00     0.126 C 
HETATM   10  C   UNL     1     -40.760 -44.293  11.019  1.00  0.00     0.117 C 
HETATM   11  O   UNL     1     -42.490 -45.238   9.692  1.00  0.00    -0.274 OA
HETATM   12  C   UNL     1     -40.114 -47.951  12.677  1.00  0.00     0.026 C 
ENDBRANCH   3   4
ENDBRANCH   1   3
BRANCH   1  13
HETATM   13  C   UNL     1     -40.799 -52.126  12.721  1.00  0.00     0.291 C 
BRANCH  13  14
HETATM   14  C   UNL     1     -41.281 -53.579  12.709  1.00  0.00     0.178 C 
BRANCH  14  15
HETATM   15  N   UNL     1     -42.717 -53.675  12.888  1.00  0.00    -0.302 N 
HETATM   16  C   UNL     1     -43.374 -54.441  13.807  1.00  0.00     0.118 A 
HETATM   17  C   UNL     1     -44.718 -54.271  13.552  1.00  0.00    -0.028 A 
HETATM   18  C   UNL     1     -45.866 -54.896  14.242  1.00  0.00     0.051 C 
HETATM   19  C   UNL     1     -44.752 -53.373  12.459  1.00  0.00     0.115 A 
HETATM   20  N   UNL     1     -43.534 -52.999  12.065  1.00  0.00    -0.310 N 
ATOM     21  HN  UNL     1     -43.283 -52.353  11.317  1.00  0.00     0.186 HD
ENDBRANCH  14  15
ENDBRANCH  13  14
ENDBRANCH   1  13
TORSDOF 5
ENDMDL
MODEL 5
REMARK VINA RESULT:      -5.6      4.276      6.328
REMARK  5 active torsions:
REMARK  status: ('A' for Active; 'I' for Inactive)
REMARK       I    between atoms: C_2  and  N_4 
REMARK    1  A    between atoms: C_7  and  C_8 
REMARK    2  A    between atoms: C_8  and  N_9 
REMARK    3  A    between atoms: N_9  and  C_10 
REMARK    4  A    between atoms: C_10  and  C_11 
REMARK    5  A    between atoms: C_11  and  N_12 
ROOT
HETATM    1  N   UNL     1     -38.719 -51.988  13.895  1.00  0.00     0.085 N 
HETATM    2  H   UNL     1     -38.333 -52.644  13.214  1.00  0.00     0.315 HD
ENDROOT
BRANCH   1   3
HETATM    3  C   UNL     1     -40.174 -52.156  13.938  1.00  0.00     0.274 C 
BRANCH   3   4
HETATM    4  C   UNL     1     -40.650 -53.281  13.002  1.00  0.00     0.016 C 
HETATM    5  C   UNL     1     -41.632 -52.715  11.955  1.00  0.00     0.026 C 
HETATM    6  C   UNL     1     -42.994 -52.353  12.557  1.00  0.00     0.126 C 
HETATM    7  N   UNL     1     -43.543 -53.479  13.308  1.00  0.00    -0.352 N 
HETATM    8  C   UNL     1     -44.866 -53.841  13.104  1.00  0.00     0.215 C 
HETATM    9  C   UNL     1     -42.673 -54.038  14.344  1.00  0.00     0.126 C 
HETATM   10  C   UNL     1     -45.342 -55.104  13.775  1.00  0.00     0.117 C 
HETATM   11  O   UNL     1     -45.628 -53.209  12.371  1.00  0.00    -0.274 OA
HETATM   12  C   UNL     1     -41.329 -54.444  13.751  1.00  0.00     0.026 C 
ENDBRANCH   3   4
ENDBRANCH   1   3
BRANCH   1  13
HETATM   13  C   UNL     1     -38.339 -50.619  13.502  1.00  0.00     0.291 C 
BRANCH  13  14
HETATM   14  C   UNL     1     -38.330 -50.395  11.988  1.00  0.00     0.178 C 
BRANCH  14  15
HETATM   15  N   UNL     1     -39.359 -49.464  11.572  1.00  0.00    -0.302 N 
HETATM   16  C   UNL     1     -39.507 -48.172  11.988  1.00  0.00     0.118 A 
HETATM   17  C   UNL     1     -40.660 -47.709  11.390  1.00  0.00    -0.028 A 
HETATM   18  C   UNL     1     -41.289 -46.379  11.525  1.00  0.00     0.051 C 
HETATM   19  C   UNL     1     -41.119 -48.808  10.627  1.00  0.00     0.115 A 
HETATM   20  N   UNL     1     -40.320 -49.872  10.727  1.00  0.00    -0.310 N 
ATOM     21  HN  UNL     1     -40.415 -50.778  10.269  1.00  0.00     0.186 HD
ENDBRANCH  14  15
ENDBRANCH  13  14
ENDBRANCH   1  13
TORSDOF 5
ENDMDL
MODEL 6
REMARK VINA RESULT:      -5.5      5.388      7.398
REMARK  5 active torsions:
REMARK  status: ('A' for Active; 'I' for Inactive)
REMARK       I    between atoms: C_2  and  N_4 
REMARK    1  A    between atoms: C_7  and  C_8 
REMARK    2  A    between atoms: C_8  and  N_9 
REMARK    3  A    between atoms: N_9  and  C_10 
REMARK    4  A    between atoms: C_10  and  C_11 
REMARK    5  A    between atoms: C_11  and  N_12 
ROOT
HETATM    1  N   UNL     1     -43.409 -52.871  12.080  1.00  0.00     0.085 N 
HETATM    2  H   UNL     1     -43.220 -51.899  11.825  1.00  0.00     0.315 HD
ENDROOT
BRANCH   1   3
HETATM    3  C   UNL     1     -44.647 -52.920  12.862  1.00  0.00     0.274 C 
BRANCH   3   4
HETATM    4  C   UNL     1     -45.242 -51.518  13.085  1.00  0.00     0.016 C 
HETATM    5  C   UNL     1     -44.428 -50.766  14.159  1.00  0.00     0.026 C 
HETATM    6  C   UNL     1     -44.659 -51.319  15.570  1.00  0.00     0.126 C 
HETATM    7  N   UNL     1     -46.086 -51.383  15.872  1.00  0.00    -0.352 N 
HETATM    8  C   UNL     1     -46.539 -50.891  17.088  1.00  0.00     0.215 C 
HETATM    9  C   UNL     1     -46.909 -52.116  14.909  1.00  0.00     0.126 C 
HETATM   10  C   UNL     1     -48.031 -50.829  17.289  1.00  0.00     0.117 C 
HETATM   11  O   UNL     1     -45.781 -50.468  17.962  1.00  0.00    -0.274 OA
HETATM   12  C   UNL     1     -46.723 -51.549  13.506  1.00  0.00     0.026 C 
ENDBRANCH   3   4
ENDBRANCH   1   3
BRANCH   1  13
HETATM   13  C   UNL     1     -42.260 -53.392  12.842  1.00  0.00     0.291 C 
BRANCH  13  14
HETATM   14  C   UNL     1     -40.905 -52.912  12.316  1.00  0.00     0.178 C 
BRANCH  14  15
HETATM   15  N   UNL     1     -40.826 -51.465  12.266  1.00  0.00    -0.302 N 
HETATM   16  C   UNL     1     -40.850 -50.610  13.329  1.00  0.00     0.118 A 
HETATM   17  C   UNL     1     -40.827 -49.339  12.796  1.00  0.00    -0.028 A 
HETATM   18  C   UNL     1     -40.863 -48.046  13.511  1.00  0.00     0.051 C 
HETATM   19  C   UNL     1     -40.782 -49.551  11.398  1.00  0.00     0.115 A 
HETATM   20  N   UNL     1     -40.766 -50.846  11.076  1.00  0.00    -0.310 N 
ATOM     21  HN  UNL     1     -40.719 -51.264  10.148  1.00  0.00     0.186 HD
ENDBRANCH  14  15
ENDBRANCH  13  14
ENDBRANCH   1  13
TORSDOF 5
ENDMDL
MODEL 7
REMARK VINA RESULT:      -5.4      5.032      6.636
REMARK  5 active torsions:
REMARK  status: ('A' for Active; 'I' for Inactive)
REMARK       I    between atoms: C_2  and  N_4 
REMARK    1  A    between atoms: C_7  and  C_8 
REMARK    2  A    between atoms: C_8  and  N_9 
REMARK    3  A    between atoms: N_9  and  C_10 
REMARK    4  A    between atoms: C_10  and  C_11 
REMARK    5  A    between atoms: C_11  and  N_12 
ROOT
HETATM    1  N   UNL     1     -41.865 -52.655  11.660  1.00  0.00     0.085 N 
HETATM    2  H   UNL     1     -42.803 -52.392  11.351  1.00  0.00     0.315 HD
ENDROOT
BRANCH   1   3
HETATM    3  C   UNL     1     -41.969 -53.338  12.952  1.00  0.00     0.274 C 
BRANCH   3   4
HETATM    4  C   UNL     1     -43.290 -54.116  13.086  1.00  0.00     0.016 C 
HETATM    5  C   UNL     1     -44.435 -53.326  12.419  1.00  0.00     0.026 C 
HETATM    6  C   UNL     1     -44.841 -52.084  13.220  1.00  0.00     0.126 C 
HETATM    7  N   UNL     1     -45.120 -52.434  14.611  1.00  0.00    -0.352 N 
HETATM    8  C   UNL     1     -46.274 -51.950  15.207  1.00  0.00     0.215 C 
HETATM    9  C   UNL     1     -44.055 -53.154  15.311  1.00  0.00     0.126 C 
HETATM   10  C   UNL     1     -46.602 -52.467  16.584  1.00  0.00     0.117 C 
HETATM   11  O   UNL     1     -47.044 -51.173  14.642  1.00  0.00    -0.274 OA
HETATM   12  C   UNL     1     -43.670 -54.416  14.548  1.00  0.00     0.026 C 
ENDBRANCH   3   4
ENDBRANCH   1   3
BRANCH   1  13
HETATM   13  C   UNL     1     -41.038 -51.438  11.750  1.00  0.00     0.291 C 
BRANCH  13  14
HETATM   14  C   UNL     1     -41.765 -50.247  12.379  1.00  0.00     0.178 C 
BRANCH  14  15
HETATM   15  N   UNL     1     -41.554 -49.025  11.628  1.00  0.00    -0.302 N 
HETATM   16  C   UNL     1     -40.534 -48.133  11.792  1.00  0.00     0.118 A 
HETATM   17  C   UNL     1     -40.789 -47.098  10.917  1.00  0.00    -0.028 A 
HETATM   18  C   UNL     1     -40.007 -45.862  10.711  1.00  0.00     0.051 C 
HETATM   19  C   UNL     1     -41.988 -47.480  10.271  1.00  0.00     0.115 A 
HETATM   20  N   UNL     1     -42.446 -48.660  10.693  1.00  0.00    -0.310 N 
ATOM     21  HN  UNL     1     -43.275 -49.164  10.380  1.00  0.00     0.186 HD
ENDBRANCH  14  15
ENDBRANCH  13  14
ENDBRANCH   1  13
TORSDOF 5
ENDMDL
MODEL 8
REMARK VINA RESULT:      -5.4      4.236      5.979
REMARK  5 active torsions:
REMARK  status: ('A' for Active; 'I' for Inactive)
REMARK       I    between atoms: C_2  and  N_4 
REMARK    1  A    between atoms: C_7  and  C_8 
REMARK    2  A    between atoms: C_8  and  N_9 
REMARK    3  A    between atoms: N_9  and  C_10 
REMARK    4  A    between atoms: C_10  and  C_11 
REMARK    5  A    between atoms: C_11  and  N_12 
ROOT
HETATM    1  N   UNL     1     -40.711 -49.947  10.607  1.00  0.00     0.085 N 
HETATM    2  H   UNL     1     -39.803 -49.777  10.171  1.00  0.00     0.315 HD
ENDROOT
BRANCH   1   3
HETATM    3  C   UNL     1     -41.379 -48.660  10.821  1.00  0.00     0.274 C 
BRANCH   3   4
HETATM    4  C   UNL     1     -40.601 -47.766  11.804  1.00  0.00     0.016 C 
HETATM    5  C   UNL     1     -41.543 -47.266  12.919  1.00  0.00     0.026 C 
HETATM    6  C   UNL     1     -42.541 -46.214  12.422  1.00  0.00     0.126 C 
HETATM    7  N   UNL     1     -41.847 -45.131  11.729  1.00  0.00    -0.352 N 
HETATM    8  C   UNL     1     -42.169 -43.819  12.041  1.00  0.00     0.215 C 
HETATM    9  C   UNL     1     -40.965 -45.538  10.635  1.00  0.00     0.126 C 
HETATM   10  C   UNL     1     -41.319 -42.739  11.423  1.00  0.00     0.117 C 
HETATM   11  O   UNL     1     -43.071 -43.519  12.825  1.00  0.00    -0.274 OA
HETATM   12  C   UNL     1     -39.938 -46.553  11.123  1.00  0.00     0.026 C 
ENDBRANCH   3   4
ENDBRANCH   1   3
BRANCH   1  13
HETATM   13  C   UNL     1     -40.501 -50.670  11.874  1.00  0.00     0.291 C 
BRANCH  13  14
HETATM   14  C   UNL     1     -41.062 -52.094  11.867  1.00  0.00     0.178 C 
BRANCH  14  15
HETATM   15  N   UNL     1     -42.437 -52.137  12.326  1.00  0.00    -0.302 N 
HETATM   16  C   UNL     1     -43.029 -51.280  13.207  1.00  0.00     0.118 A 
HETATM   17  C   UNL     1     -44.309 -51.755  13.398  1.00  0.00    -0.028 A 
HETATM   18  C   UNL     1     -45.365 -51.210  14.277  1.00  0.00     0.051 C 
HETATM   19  C   UNL     1     -44.378 -52.902  12.573  1.00  0.00     0.115 A 
HETATM   20  N   UNL     1     -43.243 -53.126  11.909  1.00  0.00    -0.310 N 
ATOM     21  HN  UNL     1     -43.038 -53.871  11.244  1.00  0.00     0.186 HD
ENDBRANCH  14  15
ENDBRANCH  13  14
ENDBRANCH   1  13
TORSDOF 5
ENDMDL
MODEL 9
REMARK VINA RESULT:      -5.4      6.002      7.798
REMARK  5 active torsions:
REMARK  status: ('A' for Active; 'I' for Inactive)
REMARK       I    between atoms: C_2  and  N_4 
REMARK    1  A    between atoms: C_7  and  C_8 
REMARK    2  A    between atoms: C_8  and  N_9 
REMARK    3  A    between atoms: N_9  and  C_10 
REMARK    4  A    between atoms: C_10  and  C_11 
REMARK    5  A    between atoms: C_11  and  N_12 
ROOT
HETATM    1  N   UNL     1     -43.609 -53.219  11.956  1.00  0.00     0.085 N 
HETATM    2  H   UNL     1     -43.917 -52.937  11.023  1.00  0.00     0.315 HD
ENDROOT
BRANCH   1   3
HETATM    3  C   UNL     1     -44.778 -53.300  12.835  1.00  0.00     0.274 C 
BRANCH   3   4
HETATM    4  C   UNL     1     -44.841 -54.643  13.585  1.00  0.00     0.016 C 
HETATM    5  C   UNL     1     -46.162 -54.741  14.378  1.00  0.00     0.026 C 
HETATM    6  C   UNL     1     -46.187 -53.816  15.600  1.00  0.00     0.126 C 
HETATM    7  N   UNL     1     -45.003 -54.024  16.430  1.00  0.00    -0.352 N 
HETATM    8  C   UNL     1     -45.160 -54.166  17.800  1.00  0.00     0.215 C 
HETATM    9  C   UNL     1     -43.716 -53.907  15.743  1.00  0.00     0.126 C 
HETATM   10  C   UNL     1     -43.935 -54.540  18.594  1.00  0.00     0.117 C 
HETATM   11  O   UNL     1     -46.248 -54.050  18.365  1.00  0.00    -0.274 OA
HETATM   12  C   UNL     1     -43.658 -54.854  14.549  1.00  0.00     0.026 C 
ENDBRANCH   3   4
ENDBRANCH   1   3
BRANCH   1  13
HETATM   13  C   UNL     1     -42.624 -52.239  12.446  1.00  0.00     0.291 C 
BRANCH  13  14
HETATM   14  C   UNL     1     -41.179 -52.582  12.076  1.00  0.00     0.178 C 
BRANCH  14  15
HETATM   15  N   UNL     1     -40.331 -51.406  12.054  1.00  0.00    -0.302 N 
HETATM   16  C   UNL     1     -39.390 -51.062  12.981  1.00  0.00     0.118 A 
HETATM   17  C   UNL     1     -38.897 -49.836  12.586  1.00  0.00    -0.028 A 
HETATM   18  C   UNL     1     -37.874 -49.005  13.253  1.00  0.00     0.051 C 
HETATM   19  C   UNL     1     -39.612 -49.542  11.402  1.00  0.00     0.115 A 
HETATM   20  N   UNL     1     -40.474 -50.504  11.070  1.00  0.00    -0.310 N 
ATOM     21  HN  UNL     1     -41.094 -50.545  10.261  1.00  0.00     0.186 HD
ENDBRANCH  14  15
ENDBRANCH  13  14
ENDBRANCH   1  13
TORSDOF 5
ENDMDL
