MODEL 1
REMARK VINA RESULT:      -6.0      0.000      0.000
REMARK  5 active torsions:
REMARK  status: ('A' for Active; 'I' for Inactive)
REMARK    1  A    between atoms: N_7  and  C_8 
REMARK    2  A    between atoms: C_8  and  C_9 
REMARK    3  A    between atoms: C_9  and  N_10 
REMARK       I    between atoms: N_10  and  C_11 
REMARK    4  A    between atoms: C_11  and  C_13 
REMARK    5  A    between atoms: C_13  and  C_14 
ROOT
HETATM    1  N   UNL     1     -41.555 -53.089  14.588  1.00  0.00    -0.359 N 
HETATM    2  C   UNL     1     -40.528 -52.811  13.712  1.00  0.00     0.222 C 
HETATM    3  O   UNL     1     -40.138 -53.619  12.872  1.00  0.00    -0.273 OA
HETATM    4  H   UNL     1     -41.901 -52.348  15.185  1.00  0.00     0.162 HD
ENDROOT
BRANCH   2   5
HETATM    5  C   UNL     1     -39.885 -51.444  13.887  1.00  0.00     0.145 C 
BRANCH   5   6
HETATM    6  C   UNL     1     -40.098 -50.521  12.726  1.00  0.00    -0.002 A 
HETATM    7  C   UNL     1     -39.122 -50.012  11.818  1.00  0.00     0.030 A 
HETATM    8  C   UNL     1     -37.659 -50.259  11.757  1.00  0.00     0.070 C 
HETATM    9  N   UNL     1     -39.664 -49.177  10.926  1.00  0.00    -0.303 N 
HETATM   10  N   UNL     1     -40.961 -49.116  11.260  1.00  0.00    -0.300 N 
ATOM     11  HN  UNL     1     -39.195 -48.694  10.160  1.00  0.00     0.186 HD
HETATM   12  C   UNL     1     -41.834 -48.255  10.498  1.00  0.00     0.177 C 
HETATM   13  C   UNL     1     -41.280 -49.899  12.342  1.00  0.00     0.033 A 
HETATM   14  C   UNL     1     -42.645 -49.968  12.927  1.00  0.00     0.070 C 
ENDBRANCH   5   6
ENDBRANCH   2   5
BRANCH   1  15
HETATM   15  C   UNL     1     -42.326 -54.318  14.490  1.00  0.00     0.152 C 
BRANCH  15  16
HETATM   16  C   UNL     1     -43.563 -54.200  13.571  1.00  0.00     0.292 C 
BRANCH  16  17
HETATM   17  N   UNL     1     -44.408 -53.010  13.815  1.00  0.00     0.094 N 
HETATM   18  C   UNL     1     -45.008 -52.931  15.160  1.00  0.00     0.219 C 
HETATM   19  C   UNL     1     -45.901 -54.124  15.535  1.00  0.00     0.043 C 
HETATM   20  C   UNL     1     -45.760 -51.598  15.330  1.00  0.00     0.035 C 
HETATM   21  C   UNL     1     -46.807 -51.377  14.246  1.00  0.00     0.004 C 
HETATM   22  C   UNL     1     -46.170 -51.521  12.870  1.00  0.00     0.030 C 
HETATM   23  C   UNL     1     -45.393 -52.835  12.734  1.00  0.00     0.273 C 
ENDBRANCH  16  17
ENDBRANCH  15  16
ENDBRANCH   1  15
TORSDOF 5
ENDMDL
MODEL 2
REMARK VINA RESULT:      -5.7      2.632      4.153
REMARK  5 active torsions:
REMARK  status: ('A' for Active; 'I' for Inactive)
REMARK    1  A    between atoms: N_7  and  C_8 
REMARK    2  A    between atoms: C_8  and  C_9 
REMARK    3  A    between atoms: C_9  and  N_10 
REMARK       I    between atoms: N_10  and  C_11 
REMARK    4  A    between atoms: C_11  and  C_13 
REMARK    5  A    between atoms: C_13  and  C_14 
ROOT
HETATM    1  N   UNL     1     -41.963 -50.668  11.834  1.00  0.00    -0.359 N 
HETATM    2  C   UNL     1     -42.127 -49.303  11.928  1.00  0.00     0.222 C 
HETATM    3  O   UNL     1     -42.677 -48.766  12.887  1.00  0.00    -0.273 OA
HETATM    4  H   UNL     1     -41.411 -51.043  11.074  1.00  0.00     0.162 HD
ENDROOT
BRANCH   2   5
HETATM    5  C   UNL     1     -41.608 -48.510  10.739  1.00  0.00     0.145 C 
BRANCH   5   6
HETATM    6  C   UNL     1     -42.078 -47.088  10.706  1.00  0.00    -0.002 A 
HETATM    7  C   UNL     1     -43.241 -46.561  10.070  1.00  0.00     0.030 A 
HETATM    8  C   UNL     1     -44.299 -47.257   9.293  1.00  0.00     0.070 C 
HETATM    9  N   UNL     1     -43.325 -45.235  10.212  1.00  0.00    -0.303 N 
HETATM   10  N   UNL     1     -42.225 -44.895  10.899  1.00  0.00    -0.300 N 
ATOM     11  HN  UNL     1     -44.062 -44.617   9.872  1.00  0.00     0.186 HD
HETATM   12  C   UNL     1     -41.993 -43.500  11.192  1.00  0.00     0.177 C 
HETATM   13  C   UNL     1     -41.431 -45.970  11.218  1.00  0.00     0.033 A 
HETATM   14  C   UNL     1     -40.139 -45.844  11.941  1.00  0.00     0.070 C 
ENDBRANCH   5   6
ENDBRANCH   2   5
BRANCH   1  15
HETATM   15  C   UNL     1     -42.328 -51.554  12.929  1.00  0.00     0.152 C 
BRANCH  15  16
HETATM   16  C   UNL     1     -43.600 -52.387  12.651  1.00  0.00     0.292 C 
BRANCH  16  17
HETATM   17  N   UNL     1     -44.615 -52.350  13.728  1.00  0.00     0.094 N 
HETATM   18  C   UNL     1     -45.973 -52.762  13.327  1.00  0.00     0.219 C 
HETATM   19  C   UNL     1     -46.585 -51.931  12.189  1.00  0.00     0.043 C 
HETATM   20  C   UNL     1     -46.903 -52.796  14.553  1.00  0.00     0.035 C 
HETATM   21  C   UNL     1     -46.929 -51.471  15.303  1.00  0.00     0.004 C 
HETATM   22  C   UNL     1     -45.511 -51.043  15.653  1.00  0.00     0.030 C 
HETATM   23  C   UNL     1     -44.591 -51.053  14.428  1.00  0.00     0.273 C 
ENDBRANCH  16  17
ENDBRANCH  15  16
ENDBRANCH   1  15
TORSDOF 5
ENDMDL
MODEL 3
REMARK VINA RESULT:      -5.4      1.762      6.587
REMARK  5 active torsions:
REMARK  status: ('A' for Active; 'I' for Inactive)
REMARK    1  A    between atoms: N_7  and  C_8 
REMARK    2  A    between atoms: C_8  and  C_9 
REMARK    3  A    between atoms: C_9  and  N_10 
REMARK       I    between atoms: N_10  and  C_11 
REMARK    4  A    between atoms: C_11  and  C_13 
REMARK    5  A    between atoms: C_13  and  C_14 
ROOT
HETATM    1  N   UNL     1     -42.755 -52.754  11.986  1.00  0.00    -0.359 N 
HETATM    2  C   UNL     1     -43.079 -53.740  12.894  1.00  0.00     0.222 C 
HETATM    3  O   UNL     1     -42.231 -54.348  13.542  1.00  0.00    -0.273 OA
HETATM    4  H   UNL     1     -43.500 -52.217  11.561  1.00  0.00     0.162 HD
ENDROOT
BRANCH   2   5
HETATM    5  C   UNL     1     -44.564 -54.045  13.007  1.00  0.00     0.145 C 
BRANCH   5   6
HETATM    6  C   UNL     1     -45.336 -53.025  13.788  1.00  0.00    -0.002 A 
HETATM    7  C   UNL     1     -46.281 -52.075  13.298  1.00  0.00     0.030 A 
HETATM    8  C   UNL     1     -46.769 -51.844  11.914  1.00  0.00     0.070 C 
HETATM    9  N   UNL     1     -46.745 -51.290  14.275  1.00  0.00    -0.303 N 
HETATM   10  N   UNL     1     -46.096 -51.696  15.376  1.00  0.00    -0.300 N 
ATOM     11  HN  UNL     1     -47.440 -50.547  14.200  1.00  0.00     0.186 HD
HETATM   12  C   UNL     1     -46.350 -51.013  16.623  1.00  0.00     0.177 C 
HETATM   13  C   UNL     1     -45.227 -52.733  15.142  1.00  0.00     0.033 A 
HETATM   14  C   UNL     1     -44.364 -53.330  16.195  1.00  0.00     0.070 C 
ENDBRANCH   5   6
ENDBRANCH   2   5
BRANCH   1  15
HETATM   15  C   UNL     1     -41.386 -52.288  11.827  1.00  0.00     0.152 C 
BRANCH  15  16
HETATM   16  C   UNL     1     -41.209 -50.782  12.121  1.00  0.00     0.292 C 
BRANCH  16  17
HETATM   17  N   UNL     1     -40.199 -50.465  13.155  1.00  0.00     0.094 N 
HETATM   18  C   UNL     1     -39.187 -49.467  12.761  1.00  0.00     0.219 C 
HETATM   19  C   UNL     1     -38.364 -49.844  11.519  1.00  0.00     0.043 C 
HETATM   20  C   UNL     1     -38.272 -49.136  13.954  1.00  0.00     0.035 C 
HETATM   21  C   UNL     1     -37.620 -50.376  14.551  1.00  0.00     0.004 C 
HETATM   22  C   UNL     1     -38.683 -51.410  14.894  1.00  0.00     0.030 C 
HETATM   23  C   UNL     1     -39.608 -51.697  13.706  1.00  0.00     0.273 C 
ENDBRANCH  16  17
ENDBRANCH  15  16
ENDBRANCH   1  15
TORSDOF 5
ENDMDL
MODEL 4
REMARK VINA RESULT:      -5.3      1.844      2.336
REMARK  5 active torsions:
REMARK  status: ('A' for Active; 'I' for Inactive)
REMARK    1  A    between atoms: N_7  and  C_8 
REMARK    2  A    between atoms: C_8  and  C_9 
REMARK    3  A    between atoms: C_9  and  N_10 
REMARK       I    between atoms: N_10  and  C_11 
REMARK    4  A    between atoms: C_11  and  C_13 
REMARK    5  A    between atoms: C_13  and  C_14 
ROOT
HETATM    1  N   UNL     1     -41.530 -51.436  11.931  1.00  0.00    -0.359 N 
HETATM    2  C   UNL     1     -40.225 -50.994  11.910  1.00  0.00     0.222 C 
HETATM    3  O   UNL     1     -39.339 -51.513  12.585  1.00  0.00    -0.273 OA
HETATM    4  H   UNL     1     -42.191 -51.038  11.276  1.00  0.00     0.162 HD
ENDROOT
BRANCH   2   5
HETATM    5  C   UNL     1     -39.968 -49.790  11.018  1.00  0.00     0.145 C 
BRANCH   5   6
HETATM    6  C   UNL     1     -40.376 -48.484  11.629  1.00  0.00    -0.002 A 
HETATM    7  C   UNL     1     -39.775 -47.803  12.730  1.00  0.00     0.030 A 
HETATM    8  C   UNL     1     -38.595 -48.178  13.550  1.00  0.00     0.070 C 
HETATM    9  N   UNL     1     -40.429 -46.679  13.033  1.00  0.00    -0.303 N 
HETATM   10  N   UNL     1     -41.455 -46.638  12.171  1.00  0.00    -0.300 N 
ATOM     11  HN  UNL     1     -40.199 -46.001  13.760  1.00  0.00     0.186 HD
HETATM   12  C   UNL     1     -42.393 -45.543  12.259  1.00  0.00     0.177 C 
HETATM   13  C   UNL     1     -41.479 -47.704  11.306  1.00  0.00     0.033 A 
HETATM   14  C   UNL     1     -42.541 -47.904  10.285  1.00  0.00     0.070 C 
ENDBRANCH   5   6
ENDBRANCH   2   5
BRANCH   1  15
HETATM   15  C   UNL     1     -41.916 -52.630  12.667  1.00  0.00     0.152 C 
BRANCH  15  16
HETATM   16  C   UNL     1     -43.387 -53.047  12.440  1.00  0.00     0.292 C 
BRANCH  16  17
HETATM   17  N   UNL     1     -44.387 -52.198  13.126  1.00  0.00     0.094 N 
HETATM   18  C   UNL     1     -44.280 -52.167  14.597  1.00  0.00     0.219 C 
HETATM   19  C   UNL     1     -44.403 -53.538  15.279  1.00  0.00     0.043 C 
HETATM   20  C   UNL     1     -45.291 -51.163  15.182  1.00  0.00     0.035 C 
HETATM   21  C   UNL     1     -46.720 -51.448  14.739  1.00  0.00     0.004 C 
HETATM   22  C   UNL     1     -46.787 -51.532  13.220  1.00  0.00     0.030 C 
HETATM   23  C   UNL     1     -45.748 -52.506  12.654  1.00  0.00     0.273 C 
ENDBRANCH  16  17
ENDBRANCH  15  16
ENDBRANCH   1  15
TORSDOF 5
ENDMDL
MODEL 5
REMARK VINA RESULT:      -5.3      1.504      2.474
REMARK  5 active torsions:
REMARK  status: ('A' for Active; 'I' for Inactive)
REMARK    1  A    between atoms: N_7  and  C_8 
REMARK    2  A    between atoms: C_8  and  C_9 
REMARK    3  A    between atoms: C_9  and  N_10 
REMARK       I    between atoms: N_10  and  C_11 
REMARK    4  A    between atoms: C_11  and  C_13 
REMARK    5  A    between atoms: C_13  and  C_14 
ROOT
HETATM    1  N   UNL     1     -42.140 -52.909  12.725  1.00  0.00    -0.359 N 
HETATM    2  C   UNL     1     -40.874 -52.415  12.496  1.00  0.00     0.222 C 
HETATM    3  O   UNL     1     -39.859 -52.989  12.884  1.00  0.00    -0.273 OA
HETATM    4  H   UNL     1     -42.930 -52.449  12.291  1.00  0.00     0.162 HD
ENDROOT
BRANCH   2   5
HETATM    5  C   UNL     1     -40.827 -51.087  11.757  1.00  0.00     0.145 C 
BRANCH   5   6
HETATM    6  C   UNL     1     -40.526 -49.913  12.639  1.00  0.00    -0.002 A 
HETATM    7  C   UNL     1     -41.436 -49.162  13.442  1.00  0.00     0.030 A 
HETATM    8  C   UNL     1     -42.897 -49.335  13.640  1.00  0.00     0.070 C 
HETATM    9  N   UNL     1     -40.824 -48.152  14.068  1.00  0.00    -0.303 N 
HETATM   10  N   UNL     1     -39.549 -48.221  13.662  1.00  0.00    -0.300 N 
ATOM     11  HN  UNL     1     -41.237 -47.478  14.714  1.00  0.00     0.186 HD
HETATM   12  C   UNL     1     -38.614 -47.229  14.139  1.00  0.00     0.177 C 
HETATM   13  C   UNL     1     -39.311 -49.257  12.793  1.00  0.00     0.033 A 
HETATM   14  C   UNL     1     -37.985 -49.516  12.173  1.00  0.00     0.070 C 
ENDBRANCH   5   6
ENDBRANCH   2   5
BRANCH   1  15
HETATM   15  C   UNL     1     -42.348 -54.210  13.342  1.00  0.00     0.152 C 
BRANCH  15  16
HETATM   16  C   UNL     1     -43.742 -54.370  13.990  1.00  0.00     0.292 C 
BRANCH  16  17
HETATM   17  N   UNL     1     -44.533 -53.123  14.080  1.00  0.00     0.094 N 
HETATM   18  C   UNL     1     -44.892 -52.704  15.448  1.00  0.00     0.219 C 
HETATM   19  C   UNL     1     -45.707 -53.737  16.242  1.00  0.00     0.043 C 
HETATM   20  C   UNL     1     -45.605 -51.339  15.417  1.00  0.00     0.035 C 
HETATM   21  C   UNL     1     -46.823 -51.337  14.502  1.00  0.00     0.004 C 
HETATM   22  C   UNL     1     -46.433 -51.828  13.115  1.00  0.00     0.030 C 
HETATM   23  C   UNL     1     -45.691 -53.168  13.170  1.00  0.00     0.273 C 
ENDBRANCH  16  17
ENDBRANCH  15  16
ENDBRANCH   1  15
TORSDOF 5
ENDMDL
MODEL 6
REMARK VINA RESULT:      -5.2      2.511      3.794
REMARK  5 active torsions:
REMARK  status: ('A' for Active; 'I' for Inactive)
REMARK    1  A    between atoms: N_7  and  C_8 
REMARK    2  A    between atoms: C_8  and  C_9 
REMARK    3  A    between atoms: C_9  and  N_10 
REMARK       I    between atoms: N_10  and  C_11 
REMARK    4  A    between atoms: C_11  and  C_13 
REMARK    5  A    between atoms: C_13  and  C_14 
ROOT
HETATM    1  N   UNL     1     -39.966 -51.020  12.123  1.00  0.00    -0.359 N 
HETATM    2  C   UNL     1     -38.623 -50.799  12.340  1.00  0.00     0.222 C 
HETATM    3  O   UNL     1     -37.886 -51.643  12.844  1.00  0.00    -0.273 OA
HETATM    4  H   UNL     1     -40.498 -50.329  11.610  1.00  0.00     0.162 HD
ENDROOT
BRANCH   2   5
HETATM    5  C   UNL     1     -38.127 -49.418  11.943  1.00  0.00     0.145 C 
BRANCH   5   6
HETATM    6  C   UNL     1     -38.733 -48.304  12.741  1.00  0.00    -0.002 A 
HETATM    7  C   UNL     1     -39.819 -47.452  12.378  1.00  0.00     0.030 A 
HETATM    8  C   UNL     1     -40.647 -47.439  11.145  1.00  0.00     0.070 C 
HETATM    9  N   UNL     1     -40.066 -46.537  13.320  1.00  0.00    -0.303 N 
HETATM   10  N   UNL     1     -39.144 -46.763  14.266  1.00  0.00    -0.300 N 
ATOM     11  HN  UNL     1     -40.796 -45.824  13.319  1.00  0.00     0.186 HD
HETATM   12  C   UNL     1     -39.116 -45.905  15.427  1.00  0.00     0.177 C 
HETATM   13  C   UNL     1     -38.307 -47.811  13.968  1.00  0.00     0.033 A 
HETATM   14  C   UNL     1     -37.179 -48.229  14.841  1.00  0.00     0.070 C 
ENDBRANCH   5   6
ENDBRANCH   2   5
BRANCH   1  15
HETATM   15  C   UNL     1     -40.572 -52.320  12.370  1.00  0.00     0.152 C 
BRANCH  15  16
HETATM   16  C   UNL     1     -42.081 -52.370  12.041  1.00  0.00     0.292 C 
BRANCH  16  17
HETATM   17  N   UNL     1     -42.834 -53.438  12.736  1.00  0.00     0.094 N 
HETATM   18  C   UNL     1     -44.302 -53.305  12.690  1.00  0.00     0.219 C 
HETATM   19  C   UNL     1     -44.846 -51.997  13.285  1.00  0.00     0.043 C 
HETATM   20  C   UNL     1     -44.969 -54.532  13.339  1.00  0.00     0.035 C 
HETATM   21  C   UNL     1     -44.482 -54.775  14.762  1.00  0.00     0.004 C 
HETATM   22  C   UNL     1     -42.962 -54.850  14.786  1.00  0.00     0.030 C 
HETATM   23  C   UNL     1     -42.317 -53.641  14.101  1.00  0.00     0.273 C 
ENDBRANCH  16  17
ENDBRANCH  15  16
ENDBRANCH   1  15
TORSDOF 5
ENDMDL
MODEL 7
REMARK VINA RESULT:      -5.2      1.828      6.391
REMARK  5 active torsions:
REMARK  status: ('A' for Active; 'I' for Inactive)
REMARK    1  A    between atoms: N_7  and  C_8 
REMARK    2  A    between atoms: C_8  and  C_9 
REMARK    3  A    between atoms: C_9  and  N_10 
REMARK       I    between atoms: N_10  and  C_11 
REMARK    4  A    between atoms: C_11  and  C_13 
REMARK    5  A    between atoms: C_13  and  C_14 
ROOT
HETATM    1  N   UNL     1     -41.989 -51.648  11.873  1.00  0.00    -0.359 N 
HETATM    2  C   UNL     1     -42.205 -52.869  12.476  1.00  0.00     0.222 C 
HETATM    3  O   UNL     1     -41.311 -53.494  13.043  1.00  0.00    -0.273 OA
HETATM    4  H   UNL     1     -42.784 -51.134  11.515  1.00  0.00     0.162 HD
ENDROOT
BRANCH   2   5
HETATM    5  C   UNL     1     -43.623 -53.403  12.357  1.00  0.00     0.145 C 
BRANCH   5   6
HETATM    6  C   UNL     1     -44.419 -53.299  13.621  1.00  0.00    -0.002 A 
HETATM    7  C   UNL     1     -44.296 -54.086  14.805  1.00  0.00     0.030 A 
HETATM    8  C   UNL     1     -43.356 -55.192  15.118  1.00  0.00     0.070 C 
HETATM    9  N   UNL     1     -45.203 -53.742  15.725  1.00  0.00    -0.303 N 
HETATM   10  N   UNL     1     -45.925 -52.772  15.146  1.00  0.00    -0.300 N 
ATOM     11  HN  UNL     1     -45.319 -54.131  16.660  1.00  0.00     0.186 HD
HETATM   12  C   UNL     1     -47.029 -52.198  15.877  1.00  0.00     0.177 C 
HETATM   13  C   UNL     1     -45.504 -52.468  13.874  1.00  0.00     0.033 A 
HETATM   14  C   UNL     1     -46.170 -51.456  13.014  1.00  0.00     0.070 C 
ENDBRANCH   5   6
ENDBRANCH   2   5
BRANCH   1  15
HETATM   15  C   UNL     1     -40.709 -50.966  11.975  1.00  0.00     0.152 C 
BRANCH  15  16
HETATM   16  C   UNL     1     -40.624 -49.682  11.119  1.00  0.00     0.292 C 
BRANCH  16  17
HETATM   17  N   UNL     1     -41.187 -48.471  11.757  1.00  0.00     0.094 N 
HETATM   18  C   UNL     1     -42.533 -48.084  11.294  1.00  0.00     0.219 C 
HETATM   19  C   UNL     1     -42.639 -47.813   9.785  1.00  0.00     0.043 C 
HETATM   20  C   UNL     1     -43.055 -46.889  12.112  1.00  0.00     0.035 C 
HETATM   21  C   UNL     1     -42.101 -45.702  12.084  1.00  0.00     0.004 C 
HETATM   22  C   UNL     1     -40.708 -46.143  12.511  1.00  0.00     0.030 C 
HETATM   23  C   UNL     1     -40.222 -47.358  11.713  1.00  0.00     0.273 C 
ENDBRANCH  16  17
ENDBRANCH  15  16
ENDBRANCH   1  15
TORSDOF 5
ENDMDL
MODEL 8
REMARK VINA RESULT:      -5.2      2.105      6.451
REMARK  5 active torsions:
REMARK  status: ('A' for Active; 'I' for Inactive)
REMARK    1  A    between atoms: N_7  and  C_8 
REMARK    2  A    between atoms: C_8  and  C_9 
REMARK    3  A    between atoms: C_9  and  N_10 
REMARK       I    between atoms: N_10  and  C_11 
REMARK    4  A    between atoms: C_11  and  C_13 
REMARK    5  A    between atoms: C_13  and  C_14 
ROOT
HETATM    1  N   UNL     1     -41.043 -51.859  11.629  1.00  0.00    -0.359 N 
HETATM    2  C   UNL     1     -40.480 -52.688  12.575  1.00  0.00     0.222 C 
HETATM    3  O   UNL     1     -39.507 -52.359  13.249  1.00  0.00    -0.273 OA
HETATM    4  H   UNL     1     -41.905 -52.143  11.181  1.00  0.00     0.162 HD
ENDROOT
BRANCH   2   5
HETATM    5  C   UNL     1     -41.128 -54.058  12.696  1.00  0.00     0.145 C 
BRANCH   5   6
HETATM    6  C   UNL     1     -42.173 -54.142  13.766  1.00  0.00    -0.002 A 
HETATM    7  C   UNL     1     -42.012 -54.564  15.120  1.00  0.00     0.030 A 
HETATM    8  C   UNL     1     -40.792 -55.012  15.838  1.00  0.00     0.070 C 
HETATM    9  N   UNL     1     -43.173 -54.552  15.783  1.00  0.00    -0.303 N 
HETATM   10  N   UNL     1     -44.080 -54.161  14.876  1.00  0.00    -0.300 N 
ATOM     11  HN  UNL     1     -43.333 -54.789  16.762  1.00  0.00     0.186 HD
HETATM   12  C   UNL     1     -45.466 -54.079  15.272  1.00  0.00     0.177 C 
HETATM   13  C   UNL     1     -43.537 -53.908  13.641  1.00  0.00     0.033 A 
HETATM   14  C   UNL     1     -44.345 -53.500  12.462  1.00  0.00     0.070 C 
ENDBRANCH   5   6
ENDBRANCH   2   5
BRANCH   1  15
HETATM   15  C   UNL     1     -40.591 -50.487  11.456  1.00  0.00     0.152 C 
BRANCH  15  16
HETATM   16  C   UNL     1     -41.543 -49.440  12.077  1.00  0.00     0.292 C 
BRANCH  16  17
HETATM   17  N   UNL     1     -40.882 -48.426  12.929  1.00  0.00     0.094 N 
HETATM   18  C   UNL     1     -41.038 -47.030  12.480  1.00  0.00     0.219 C 
HETATM   19  C   UNL     1     -40.511 -46.748  11.065  1.00  0.00     0.043 C 
HETATM   20  C   UNL     1     -40.413 -46.068  13.508  1.00  0.00     0.035 C 
HETATM   21  C   UNL     1     -38.954 -46.394  13.799  1.00  0.00     0.004 C 
HETATM   22  C   UNL     1     -38.817 -47.855  14.204  1.00  0.00     0.030 C 
HETATM   23  C   UNL     1     -39.480 -48.794  13.189  1.00  0.00     0.273 C 
ENDBRANCH  16  17
ENDBRANCH  15  16
ENDBRANCH   1  15
TORSDOF 5
ENDMDL
MODEL 9
REMARK VINA RESULT:      -5.1      1.933      6.932
REMARK  5 active torsions:
REMARK  status: ('A' for Active; 'I' for Inactive)
REMARK    1  A    between atoms: N_7  and  C_8 
REMARK    2  A    between atoms: C_8  and  C_9 
REMARK    3  A    between atoms: C_9  and  N_10 
REMARK       I    between atoms: N_10  and  C_11 
REMARK    4  A    between atoms: C_11  and  C_13 
REMARK    5  A    between atoms: C_13  and  C_14 
ROOT
HETATM    1  N   UNL     1     -42.871 -51.123  12.564  1.00  0.00    -0.359 N 
HETATM    2  C   UNL     1     -42.594 -52.465  12.419  1.00  0.00     0.222 C 
HETATM    3  O   UNL     1     -41.447 -52.902  12.369  1.00  0.00    -0.273 OA
HETATM    4  H   UNL     1     -43.831 -50.834  12.705  1.00  0.00     0.162 HD
ENDROOT
BRANCH   2   5
HETATM    5  C   UNL     1     -43.814 -53.363  12.290  1.00  0.00     0.145 C 
BRANCH   5   6
HETATM    6  C   UNL     1     -44.707 -53.349  13.492  1.00  0.00    -0.002 A 
HETATM    7  C   UNL     1     -45.910 -52.605  13.685  1.00  0.00     0.030 A 
HETATM    8  C   UNL     1     -46.607 -51.669  12.767  1.00  0.00     0.070 C 
HETATM    9  N   UNL     1     -46.426 -52.806  14.901  1.00  0.00    -0.303 N 
HETATM   10  N   UNL     1     -45.565 -53.639  15.504  1.00  0.00    -0.300 N 
ATOM     11  HN  UNL     1     -47.285 -52.413  15.286  1.00  0.00     0.186 HD
HETATM   12  C   UNL     1     -45.821 -54.033  16.869  1.00  0.00     0.177 C 
HETATM   13  C   UNL     1     -44.506 -53.995  14.706  1.00  0.00     0.033 A 
HETATM   14  C   UNL     1     -43.399 -54.876  15.162  1.00  0.00     0.070 C 
ENDBRANCH   5   6
ENDBRANCH   2   5
BRANCH   1  15
HETATM   15  C   UNL     1     -41.814 -50.148  12.787  1.00  0.00     0.152 C 
BRANCH  15  16
HETATM   16  C   UNL     1     -41.419 -49.363  11.516  1.00  0.00     0.292 C 
BRANCH  16  17
HETATM   17  N   UNL     1     -41.402 -47.892  11.674  1.00  0.00     0.094 N 
HETATM   18  C   UNL     1     -42.569 -47.186  11.113  1.00  0.00     0.219 C 
HETATM   19  C   UNL     1     -42.795 -47.411   9.610  1.00  0.00     0.043 C 
HETATM   20  C   UNL     1     -42.493 -45.684  11.445  1.00  0.00     0.035 C 
HETATM   21  C   UNL     1     -41.189 -45.049  10.979  1.00  0.00     0.004 C 
HETATM   22  C   UNL     1     -40.004 -45.833  11.525  1.00  0.00     0.030 C 
HETATM   23  C   UNL     1     -40.118 -47.330  11.219  1.00  0.00     0.273 C 
ENDBRANCH  16  17
ENDBRANCH  15  16
ENDBRANCH   1  15
TORSDOF 5
ENDMDL
