MODEL 1
REMARK VINA RESULT:      -6.5      0.000      0.000
REMARK  4 active torsions:
REMARK  status: ('A' for Active; 'I' for Inactive)
REMARK       I    between atoms: C_2  and  N_4 
REMARK    1  A    between atoms: C_8  and  C_10 
REMARK       I    between atoms: C_10  and  N_12 
REMARK    2  A    between atoms: N_12  and  C_13 
REMARK    3  A    between atoms: N_17  and  C_18 
REMARK    4  A    between atoms: C_18  and  C_19 
REMARK       I    between atoms: C_19  and  N_21 
ROOT
HETATM    1  C   UNL     1     -40.910 -49.361  11.938  1.00  0.00     0.228 C 
HETATM    2  O   UNL     1     -40.311 -49.360  13.009  1.00  0.00    -0.273 OA
HETATM    3  N   UNL     1     -41.638 -50.426  11.449  1.00  0.00    -0.324 N 
HETATM    4  H   UNL     1     -42.098 -50.360  10.550  1.00  0.00     0.169 HD
ENDROOT
BRANCH   3   5
HETATM    5  C   UNL     1     -41.763 -51.620  12.133  1.00  0.00     0.069 A 
HETATM    6  C   UNL     1     -40.924 -52.753  12.196  1.00  0.00     0.138 A 
HETATM    7  N   UNL     1     -41.429 -53.718  12.968  1.00  0.00    -0.307 N 
HETATM    8  N   UNL     1     -42.603 -53.206  13.402  1.00  0.00    -0.293 N 
ATOM      9  HN  UNL     1     -41.023 -54.630  13.181  1.00  0.00     0.186 HD
HETATM   10  C   UNL     1     -42.821 -51.932  12.953  1.00  0.00     0.141 A 
BRANCH   8  11
HETATM   11  C   UNL     1     -43.406 -54.014  14.298  1.00  0.00     0.250 C 
BRANCH  11  12
HETATM   12  C   UNL     1     -44.788 -54.317  13.771  1.00  0.00     0.235 C 
HETATM   13  O   UNL     1     -45.031 -54.579  12.596  1.00  0.00    -0.272 OA
HETATM   14  N   UNL     1     -45.809 -54.259  14.677  1.00  0.00    -0.369 N 
HETATM   15  H   UNL     1     -45.671 -54.130  15.673  1.00  0.00     0.159 HD
HETATM   16  H   UNL     1     -46.740 -54.480  14.348  1.00  0.00     0.159 HD
ENDBRANCH  11  12
ENDBRANCH   8  11
ENDBRANCH   3   5
BRANCH   1  17
HETATM   17  C   UNL     1     -40.923 -48.132  11.037  1.00  0.00     0.096 C 
HETATM   18  C   UNL     1     -39.952 -47.038  11.503  1.00  0.00     0.017 C 
HETATM   19  C   UNL     1     -40.137 -45.746  10.701  1.00  0.00     0.021 C 
HETATM   20  C   UNL     1     -41.594 -45.287  10.673  1.00  0.00     0.126 C 
HETATM   21  N   UNL     1     -42.455 -46.374  10.221  1.00  0.00    -0.352 N 
HETATM   22  C   UNL     1     -43.488 -46.108   9.334  1.00  0.00     0.215 C 
HETATM   23  C   UNL     1     -42.357 -47.599  11.004  1.00  0.00     0.139 C 
HETATM   24  C   UNL     1     -44.247 -47.298   8.797  1.00  0.00     0.117 C 
HETATM   25  O   UNL     1     -43.751 -44.973   8.936  1.00  0.00    -0.274 OA
ENDBRANCH   1  17
TORSDOF 4
ENDMDL
MODEL 2
REMARK VINA RESULT:      -6.2      2.041      7.851
REMARK  4 active torsions:
REMARK  status: ('A' for Active; 'I' for Inactive)
REMARK       I    between atoms: C_2  and  N_4 
REMARK    1  A    between atoms: C_8  and  C_10 
REMARK       I    between atoms: C_10  and  N_12 
REMARK    2  A    between atoms: N_12  and  C_13 
REMARK    3  A    between atoms: N_17  and  C_18 
REMARK    4  A    between atoms: C_18  and  C_19 
REMARK       I    between atoms: C_19  and  N_21 
ROOT
HETATM    1  C   UNL     1     -42.951 -49.761  12.909  1.00  0.00     0.228 C 
HETATM    2  O   UNL     1     -43.283 -48.786  13.577  1.00  0.00    -0.273 OA
HETATM    3  N   UNL     1     -42.285 -49.693  11.703  1.00  0.00    -0.324 N 
HETATM    4  H   UNL     1     -42.052 -50.540  11.199  1.00  0.00     0.169 HD
ENDROOT
BRANCH   3   5
HETATM    5  C   UNL     1     -41.920 -48.495  11.119  1.00  0.00     0.069 A 
HETATM    6  C   UNL     1     -42.542 -47.717  10.118  1.00  0.00     0.138 A 
HETATM    7  N   UNL     1     -41.842 -46.621   9.818  1.00  0.00    -0.307 N 
HETATM    8  N   UNL     1     -40.761 -46.694  10.627  1.00  0.00    -0.293 N 
ATOM      9  HN  UNL     1     -42.070 -45.896   9.137  1.00  0.00     0.186 HD
HETATM   10  C   UNL     1     -40.791 -47.787  11.451  1.00  0.00     0.141 A 
BRANCH   8  11
HETATM   11  C   UNL     1     -39.790 -45.619  10.563  1.00  0.00     0.250 C 
BRANCH  11  12
HETATM   12  C   UNL     1     -40.311 -44.297  11.075  1.00  0.00     0.235 C 
HETATM   13  O   UNL     1     -41.169 -43.631  10.503  1.00  0.00    -0.272 OA
HETATM   14  N   UNL     1     -39.750 -43.833  12.231  1.00  0.00    -0.369 N 
HETATM   15  H   UNL     1     -39.099 -44.366  12.795  1.00  0.00     0.159 HD
HETATM   16  H   UNL     1     -40.100 -42.959  12.602  1.00  0.00     0.159 HD
ENDBRANCH  11  12
ENDBRANCH   8  11
ENDBRANCH   3   5
BRANCH   1  17
HETATM   17  C   UNL     1     -43.233 -51.181  13.385  1.00  0.00     0.096 C 
HETATM   18  C   UNL     1     -42.517 -52.247  12.542  1.00  0.00     0.017 C 
HETATM   19  C   UNL     1     -42.979 -53.660  12.914  1.00  0.00     0.021 C 
HETATM   20  C   UNL     1     -44.500 -53.794  12.890  1.00  0.00     0.126 C 
HETATM   21  N   UNL     1     -45.110 -52.754  13.711  1.00  0.00    -0.352 N 
HETATM   22  C   UNL     1     -46.181 -53.068  14.535  1.00  0.00     0.215 C 
HETATM   23  C   UNL     1     -44.748 -51.392  13.342  1.00  0.00     0.139 C 
HETATM   24  C   UNL     1     -46.669 -51.981  15.462  1.00  0.00     0.117 C 
HETATM   25  O   UNL     1     -46.683 -54.191  14.578  1.00  0.00    -0.274 OA
ENDBRANCH   1  17
TORSDOF 4
ENDMDL
MODEL 3
REMARK VINA RESULT:      -6.1      1.739      7.487
REMARK  4 active torsions:
REMARK  status: ('A' for Active; 'I' for Inactive)
REMARK       I    between atoms: C_2  and  N_4 
REMARK    1  A    between atoms: C_8  and  C_10 
REMARK       I    between atoms: C_10  and  N_12 
REMARK    2  A    between atoms: N_12  and  C_13 
REMARK    3  A    between atoms: N_17  and  C_18 
REMARK    4  A    between atoms: C_18  and  C_19 
REMARK       I    between atoms: C_19  and  N_21 
ROOT
HETATM    1  C   UNL     1     -42.554 -50.325  13.614  1.00  0.00     0.228 C 
HETATM    2  O   UNL     1     -42.331 -49.386  14.373  1.00  0.00    -0.273 OA
HETATM    3  N   UNL     1     -42.414 -50.273  12.243  1.00  0.00    -0.324 N 
HETATM    4  H   UNL     1     -42.627 -51.085  11.676  1.00  0.00     0.169 HD
ENDROOT
BRANCH   3   5
HETATM    5  C   UNL     1     -42.004 -49.134  11.578  1.00  0.00     0.069 A 
HETATM    6  C   UNL     1     -40.717 -48.669  11.228  1.00  0.00     0.138 A 
HETATM    7  N   UNL     1     -40.755 -47.492  10.598  1.00  0.00    -0.307 N 
HETATM    8  N   UNL     1     -42.073 -47.195  10.544  1.00  0.00    -0.293 N 
ATOM      9  HN  UNL     1     -39.971 -46.946  10.240  1.00  0.00     0.186 HD
HETATM   10  C   UNL     1     -42.858 -48.175  11.089  1.00  0.00     0.141 A 
BRANCH   8  11
HETATM   11  C   UNL     1     -42.464 -45.963   9.889  1.00  0.00     0.250 C 
BRANCH  11  12
HETATM   12  C   UNL     1     -43.477 -46.156   8.785  1.00  0.00     0.235 C 
HETATM   13  O   UNL     1     -44.618 -45.703   8.814  1.00  0.00    -0.272 OA
HETATM   14  N   UNL     1     -43.074 -46.909   7.719  1.00  0.00    -0.369 N 
HETATM   15  H   UNL     1     -42.126 -47.244   7.592  1.00  0.00     0.159 HD
HETATM   16  H   UNL     1     -43.730 -47.033   6.959  1.00  0.00     0.159 HD
ENDBRANCH  11  12
ENDBRANCH   8  11
ENDBRANCH   3   5
BRANCH   1  17
HETATM   17  C   UNL     1     -42.992 -51.685  14.143  1.00  0.00     0.096 C 
HETATM   18  C   UNL     1     -42.114 -52.836  13.632  1.00  0.00     0.017 C 
HETATM   19  C   UNL     1     -42.700 -54.200  14.015  1.00  0.00     0.021 C 
HETATM   20  C   UNL     1     -44.166 -54.333  13.607  1.00  0.00     0.126 C 
HETATM   21  N   UNL     1     -44.937 -53.209  14.128  1.00  0.00    -0.352 N 
HETATM   22  C   UNL     1     -46.193 -53.431  14.670  1.00  0.00     0.215 C 
HETATM   23  C   UNL     1     -44.450 -51.895  13.727  1.00  0.00     0.139 C 
HETATM   24  C   UNL     1     -46.873 -52.249  15.320  1.00  0.00     0.117 C 
HETATM   25  O   UNL     1     -46.723 -54.541  14.697  1.00  0.00    -0.274 OA
ENDBRANCH   1  17
TORSDOF 4
ENDMDL
MODEL 4
REMARK VINA RESULT:      -5.7      2.297      8.301
REMARK  4 active torsions:
REMARK  status: ('A' for Active; 'I' for Inactive)
REMARK       I    between atoms: C_2  and  N_4 
REMARK    1  A    between atoms: C_8  and  C_10 
REMARK       I    between atoms: C_10  and  N_12 
REMARK    2  A    between atoms: N_12  and  C_13 
REMARK    3  A    between atoms: N_17  and  C_18 
REMARK    4  A    between atoms: C_18  and  C_19 
REMARK       I    between atoms: C_19  and  N_21 
ROOT
HETATM    1  C   UNL     1     -42.335 -50.501  12.563  1.00  0.00     0.228 C 
HETATM    2  O   UNL     1     -43.098 -49.766  13.183  1.00  0.00    -0.273 OA
HETATM    3  N   UNL     1     -41.410 -50.067  11.636  1.00  0.00    -0.324 N 
HETATM    4  H   UNL     1     -40.819 -50.732  11.153  1.00  0.00     0.169 HD
ENDROOT
BRANCH   3   5
HETATM    5  C   UNL     1     -41.252 -48.734  11.308  1.00  0.00     0.069 A 
HETATM    6  C   UNL     1     -41.826 -47.950  10.284  1.00  0.00     0.138 A 
HETATM    7  N   UNL     1     -41.386 -46.689  10.301  1.00  0.00    -0.307 N 
HETATM    8  N   UNL     1     -40.521 -46.661  11.339  1.00  0.00    -0.293 N 
ATOM      9  HN  UNL     1     -41.643 -45.925   9.675  1.00  0.00     0.186 HD
HETATM   10  C   UNL     1     -40.442 -47.861  11.994  1.00  0.00     0.141 A 
BRANCH   8  11
HETATM   11  C   UNL     1     -39.870 -45.403  11.648  1.00  0.00     0.250 C 
BRANCH  11  12
HETATM   12  C   UNL     1     -39.928 -44.396  10.524  1.00  0.00     0.235 C 
HETATM   13  O   UNL     1     -39.542 -44.622   9.381  1.00  0.00    -0.272 OA
HETATM   14  N   UNL     1     -40.419 -43.161  10.842  1.00  0.00    -0.369 N 
HETATM   15  H   UNL     1     -40.829 -42.932  11.739  1.00  0.00     0.159 HD
HETATM   16  H   UNL     1     -40.486 -42.479  10.097  1.00  0.00     0.159 HD
ENDBRANCH  11  12
ENDBRANCH   8  11
ENDBRANCH   3   5
BRANCH   1  17
HETATM   17  C   UNL     1     -42.324 -52.007  12.793  1.00  0.00     0.096 C 
HETATM   18  C   UNL     1     -43.719 -52.639  12.677  1.00  0.00     0.017 C 
HETATM   19  C   UNL     1     -43.706 -54.109  13.111  1.00  0.00     0.021 C 
HETATM   20  C   UNL     1     -43.072 -54.298  14.488  1.00  0.00     0.126 C 
HETATM   21  N   UNL     1     -41.753 -53.675  14.524  1.00  0.00    -0.352 N 
HETATM   22  C   UNL     1     -40.702 -54.329  15.149  1.00  0.00     0.215 C 
HETATM   23  C   UNL     1     -41.735 -52.259  14.183  1.00  0.00     0.139 C 
HETATM   24  C   UNL     1     -39.336 -53.697  15.024  1.00  0.00     0.117 C 
HETATM   25  O   UNL     1     -40.835 -55.408  15.726  1.00  0.00    -0.274 OA
ENDBRANCH   1  17
TORSDOF 4
ENDMDL
MODEL 5
REMARK VINA RESULT:      -5.7      4.840      7.996
REMARK  4 active torsions:
REMARK  status: ('A' for Active; 'I' for Inactive)
REMARK       I    between atoms: C_2  and  N_4 
REMARK    1  A    between atoms: C_8  and  C_10 
REMARK       I    between atoms: C_10  and  N_12 
REMARK    2  A    between atoms: N_12  and  C_13 
REMARK    3  A    between atoms: N_17  and  C_18 
REMARK    4  A    between atoms: C_18  and  C_19 
REMARK       I    between atoms: C_19  and  N_21 
ROOT
HETATM    1  C   UNL     1     -39.153 -47.776  13.577  1.00  0.00     0.228 C 
HETATM    2  O   UNL     1     -38.626 -48.478  12.719  1.00  0.00    -0.273 OA
HETATM    3  N   UNL     1     -40.150 -46.855  13.331  1.00  0.00    -0.324 N 
HETATM    4  H   UNL     1     -40.532 -46.300  14.088  1.00  0.00     0.169 HD
ENDROOT
BRANCH   3   5
HETATM    5  C   UNL     1     -40.661 -46.628  12.067  1.00  0.00     0.069 A 
HETATM    6  C   UNL     1     -40.184 -45.846  10.993  1.00  0.00     0.138 A 
HETATM    7  N   UNL     1     -41.000 -45.881   9.937  1.00  0.00    -0.307 N 
HETATM    8  N   UNL     1     -42.010 -46.687  10.333  1.00  0.00    -0.293 N 
ATOM      9  HN  UNL     1     -40.887 -45.409   9.039  1.00  0.00     0.186 HD
HETATM   10  C   UNL     1     -41.824 -47.187  11.594  1.00  0.00     0.141 A 
BRANCH   8  11
HETATM   11  C   UNL     1     -43.076 -46.955   9.388  1.00  0.00     0.250 C 
BRANCH  11  12
HETATM   12  C   UNL     1     -43.980 -45.771   9.138  1.00  0.00     0.235 C 
HETATM   13  O   UNL     1     -43.617 -44.601   9.226  1.00  0.00    -0.272 OA
HETATM   14  N   UNL     1     -45.279 -46.056   8.826  1.00  0.00    -0.369 N 
HETATM   15  H   UNL     1     -45.625 -46.993   8.657  1.00  0.00     0.159 HD
HETATM   16  H   UNL     1     -45.896 -45.277   8.634  1.00  0.00     0.159 HD
ENDBRANCH  11  12
ENDBRANCH   8  11
ENDBRANCH   3   5
BRANCH   1  17
HETATM   17  C   UNL     1     -38.756 -47.885  15.044  1.00  0.00     0.096 C 
HETATM   18  C   UNL     1     -39.258 -46.705  15.889  1.00  0.00     0.017 C 
HETATM   19  C   UNL     1     -38.673 -46.740  17.305  1.00  0.00     0.021 C 
HETATM   20  C   UNL     1     -37.151 -46.871  17.298  1.00  0.00     0.126 C 
HETATM   21  N   UNL     1     -36.748 -48.011  16.479  1.00  0.00    -0.352 N 
HETATM   22  C   UNL     1     -35.734 -48.847  16.919  1.00  0.00     0.215 C 
HETATM   23  C   UNL     1     -37.229 -47.977  15.104  1.00  0.00     0.139 C 
HETATM   24  C   UNL     1     -35.468 -50.085  16.096  1.00  0.00     0.117 C 
HETATM   25  O   UNL     1     -35.111 -48.651  17.963  1.00  0.00    -0.274 OA
ENDBRANCH   1  17
TORSDOF 4
ENDMDL
MODEL 6
REMARK VINA RESULT:      -5.6      2.019      7.593
REMARK  4 active torsions:
REMARK  status: ('A' for Active; 'I' for Inactive)
REMARK       I    between atoms: C_2  and  N_4 
REMARK    1  A    between atoms: C_8  and  C_10 
REMARK       I    between atoms: C_10  and  N_12 
REMARK    2  A    between atoms: N_12  and  C_13 
REMARK    3  A    between atoms: N_17  and  C_18 
REMARK    4  A    between atoms: C_18  and  C_19 
REMARK       I    between atoms: C_19  and  N_21 
ROOT
HETATM    1  C   UNL     1     -43.086 -49.675  14.036  1.00  0.00     0.228 C 
HETATM    2  O   UNL     1     -42.802 -48.612  14.580  1.00  0.00    -0.273 OA
HETATM    3  N   UNL     1     -42.924 -49.933  12.690  1.00  0.00    -0.324 N 
HETATM    4  H   UNL     1     -43.191 -50.831  12.306  1.00  0.00     0.169 HD
ENDROOT
BRANCH   3   5
HETATM    5  C   UNL     1     -42.418 -48.999  11.807  1.00  0.00     0.069 A 
HETATM    6  C   UNL     1     -41.139 -48.861  11.225  1.00  0.00     0.138 A 
HETATM    7  N   UNL     1     -41.055 -47.793  10.429  1.00  0.00    -0.307 N 
HETATM    8  N   UNL     1     -42.284 -47.235  10.502  1.00  0.00    -0.293 N 
ATOM      9  HN  UNL     1     -40.250 -47.472   9.891  1.00  0.00     0.186 HD
HETATM   10  C   UNL     1     -43.143 -47.952  11.291  1.00  0.00     0.141 A 
BRANCH   8  11
HETATM   11  C   UNL     1     -42.537 -46.042   9.718  1.00  0.00     0.250 C 
BRANCH  11  12
HETATM   12  C   UNL     1     -43.629 -46.209   8.689  1.00  0.00     0.235 C 
HETATM   13  O   UNL     1     -44.716 -45.641   8.743  1.00  0.00    -0.272 OA
HETATM   14  N   UNL     1     -43.367 -47.075   7.664  1.00  0.00    -0.369 N 
HETATM   15  H   UNL     1     -42.467 -47.513   7.513  1.00  0.00     0.159 HD
HETATM   16  H   UNL     1     -44.078 -47.185   6.953  1.00  0.00     0.159 HD
ENDBRANCH  11  12
ENDBRANCH   8  11
ENDBRANCH   3   5
BRANCH   1  17
HETATM   17  C   UNL     1     -43.635 -50.852  14.833  1.00  0.00     0.096 C 
HETATM   18  C   UNL     1     -43.225 -50.815  16.312  1.00  0.00     0.017 C 
HETATM   19  C   UNL     1     -43.618 -52.107  17.035  1.00  0.00     0.021 C 
HETATM   20  C   UNL     1     -43.121 -53.352  16.303  1.00  0.00     0.126 C 
HETATM   21  N   UNL     1     -43.548 -53.320  14.908  1.00  0.00    -0.352 N 
HETATM   22  C   UNL     1     -44.016 -54.478  14.306  1.00  0.00     0.215 C 
HETATM   23  C   UNL     1     -43.132 -52.135  14.168  1.00  0.00     0.139 C 
HETATM   24  C   UNL     1     -44.576 -54.341  12.910  1.00  0.00     0.117 C 
HETATM   25  O   UNL     1     -44.049 -55.565  14.883  1.00  0.00    -0.274 OA
ENDBRANCH   1  17
TORSDOF 4
ENDMDL
MODEL 7
REMARK VINA RESULT:      -5.4      3.914      8.502
REMARK  4 active torsions:
REMARK  status: ('A' for Active; 'I' for Inactive)
REMARK       I    between atoms: C_2  and  N_4 
REMARK    1  A    between atoms: C_8  and  C_10 
REMARK       I    between atoms: C_10  and  N_12 
REMARK    2  A    between atoms: N_12  and  C_13 
REMARK    3  A    between atoms: N_17  and  C_18 
REMARK    4  A    between atoms: C_18  and  C_19 
REMARK       I    between atoms: C_19  and  N_21 
ROOT
HETATM    1  C   UNL     1     -45.174 -53.106  15.128  1.00  0.00     0.228 C 
HETATM    2  O   UNL     1     -44.670 -54.223  15.057  1.00  0.00    -0.273 OA
HETATM    3  N   UNL     1     -44.748 -52.008  14.409  1.00  0.00    -0.324 N 
HETATM    4  H   UNL     1     -45.206 -51.112  14.526  1.00  0.00     0.169 HD
ENDROOT
BRANCH   3   5
HETATM    5  C   UNL     1     -43.689 -52.061  13.523  1.00  0.00     0.069 A 
HETATM    6  C   UNL     1     -43.545 -52.711  12.278  1.00  0.00     0.138 A 
HETATM    7  N   UNL     1     -42.335 -52.525  11.745  1.00  0.00    -0.307 N 
HETATM    8  N   UNL     1     -41.694 -51.755  12.653  1.00  0.00    -0.293 N 
ATOM      9  HN  UNL     1     -41.977 -52.881  10.858  1.00  0.00     0.186 HD
HETATM   10  C   UNL     1     -42.488 -51.424  13.718  1.00  0.00     0.141 A 
BRANCH   8  11
HETATM   11  C   UNL     1     -40.334 -51.348  12.359  1.00  0.00     0.250 C 
BRANCH  11  12
HETATM   12  C   UNL     1     -40.241 -50.165  11.426  1.00  0.00     0.235 C 
HETATM   13  O   UNL     1     -41.192 -49.443  11.138  1.00  0.00    -0.272 OA
HETATM   14  N   UNL     1     -39.017 -49.930  10.865  1.00  0.00    -0.369 N 
HETATM   15  H   UNL     1     -38.176 -50.433  11.120  1.00  0.00     0.159 HD
HETATM   16  H   UNL     1     -38.930 -49.129  10.253  1.00  0.00     0.159 HD
ENDBRANCH  11  12
ENDBRANCH   8  11
ENDBRANCH   3   5
BRANCH   1  17
HETATM   17  C   UNL     1     -46.374 -52.834  16.026  1.00  0.00     0.096 C 
HETATM   18  C   UNL     1     -46.985 -51.442  15.802  1.00  0.00     0.017 C 
HETATM   19  C   UNL     1     -48.053 -51.123  16.853  1.00  0.00     0.021 C 
HETATM   20  C   UNL     1     -47.543 -51.335  18.277  1.00  0.00     0.126 C 
HETATM   21  N   UNL     1     -46.980 -52.674  18.416  1.00  0.00    -0.352 N 
HETATM   22  C   UNL     1     -47.241 -53.413  19.559  1.00  0.00     0.215 C 
HETATM   23  C   UNL     1     -45.912 -52.989  17.476  1.00  0.00     0.139 C 
HETATM   24  C   UNL     1     -46.749 -54.841  19.574  1.00  0.00     0.117 C 
HETATM   25  O   UNL     1     -47.899 -52.975  20.503  1.00  0.00    -0.274 OA
ENDBRANCH   1  17
TORSDOF 4
ENDMDL
MODEL 8
REMARK VINA RESULT:      -5.3      3.861      7.821
REMARK  4 active torsions:
REMARK  status: ('A' for Active; 'I' for Inactive)
REMARK       I    between atoms: C_2  and  N_4 
REMARK    1  A    between atoms: C_8  and  C_10 
REMARK       I    between atoms: C_10  and  N_12 
REMARK    2  A    between atoms: N_12  and  C_13 
REMARK    3  A    between atoms: N_17  and  C_18 
REMARK    4  A    between atoms: C_18  and  C_19 
REMARK       I    between atoms: C_19  and  N_21 
ROOT
HETATM    1  C   UNL     1     -43.198 -50.802  13.800  1.00  0.00     0.228 C 
HETATM    2  O   UNL     1     -43.482 -49.645  13.503  1.00  0.00    -0.273 OA
HETATM    3  N   UNL     1     -41.911 -51.283  13.925  1.00  0.00    -0.324 N 
HETATM    4  H   UNL     1     -41.749 -52.255  14.162  1.00  0.00     0.169 HD
ENDROOT
BRANCH   3   5
HETATM    5  C   UNL     1     -40.796 -50.493  13.723  1.00  0.00     0.069 A 
HETATM    6  C   UNL     1     -40.136 -49.575  14.569  1.00  0.00     0.138 A 
HETATM    7  N   UNL     1     -39.091 -48.994  13.973  1.00  0.00    -0.307 N 
HETATM    8  N   UNL     1     -39.080 -49.538  12.735  1.00  0.00    -0.293 N 
ATOM      9  HN  UNL     1     -38.451 -48.302  14.362  1.00  0.00     0.186 HD
HETATM   10  C   UNL     1     -40.066 -50.471  12.559  1.00  0.00     0.141 A 
BRANCH   8  11
HETATM   11  C   UNL     1     -38.032 -49.126  11.822  1.00  0.00     0.250 C 
BRANCH  11  12
HETATM   12  C   UNL     1     -37.332 -50.277  11.140  1.00  0.00     0.235 C 
HETATM   13  O   UNL     1     -37.009 -51.316  11.708  1.00  0.00    -0.272 OA
HETATM   14  N   UNL     1     -37.029 -50.104   9.819  1.00  0.00    -0.369 N 
HETATM   15  H   UNL     1     -37.336 -49.310   9.270  1.00  0.00     0.159 HD
HETATM   16  H   UNL     1     -36.579 -50.872   9.338  1.00  0.00     0.159 HD
ENDBRANCH  11  12
ENDBRANCH   8  11
ENDBRANCH   3   5
BRANCH   1  17
HETATM   17  C   UNL     1     -44.279 -51.835  14.092  1.00  0.00     0.096 C 
HETATM   18  C   UNL     1     -45.666 -51.405  13.594  1.00  0.00     0.017 C 
HETATM   19  C   UNL     1     -46.758 -52.364  14.080  1.00  0.00     0.021 C 
HETATM   20  C   UNL     1     -46.702 -52.585  15.590  1.00  0.00     0.126 C 
HETATM   21  N   UNL     1     -45.359 -52.992  15.989  1.00  0.00    -0.352 N 
HETATM   22  C   UNL     1     -45.197 -53.999  16.929  1.00  0.00     0.215 C 
HETATM   23  C   UNL     1     -44.300 -52.068  15.604  1.00  0.00     0.139 C 
HETATM   24  C   UNL     1     -43.786 -54.468  17.187  1.00  0.00     0.117 C 
HETATM   25  O   UNL     1     -46.146 -54.548  17.489  1.00  0.00    -0.274 OA
ENDBRANCH   1  17
TORSDOF 4
ENDMDL
MODEL 9
REMARK VINA RESULT:      -5.3      2.746      7.181
REMARK  4 active torsions:
REMARK  status: ('A' for Active; 'I' for Inactive)
REMARK       I    between atoms: C_2  and  N_4 
REMARK    1  A    between atoms: C_8  and  C_10 
REMARK       I    between atoms: C_10  and  N_12 
REMARK    2  A    between atoms: N_12  and  C_13 
REMARK    3  A    between atoms: N_17  and  C_18 
REMARK    4  A    between atoms: C_18  and  C_19 
REMARK       I    between atoms: C_19  and  N_21 
ROOT
HETATM    1  C   UNL     1     -41.938 -49.583  13.436  1.00  0.00     0.228 C 
HETATM    2  O   UNL     1     -43.131 -49.645  13.720  1.00  0.00    -0.273 OA
HETATM    3  N   UNL     1     -41.404 -48.748  12.476  1.00  0.00    -0.324 N 
HETATM    4  H   UNL     1     -40.409 -48.758  12.286  1.00  0.00     0.169 HD
ENDROOT
BRANCH   3   5
HETATM    5  C   UNL     1     -42.178 -47.884  11.726  1.00  0.00     0.069 A 
HETATM    6  C   UNL     1     -42.734 -46.622  12.032  1.00  0.00     0.138 A 
HETATM    7  N   UNL     1     -43.445 -46.120  11.020  1.00  0.00    -0.307 N 
HETATM    8  N   UNL     1     -43.351 -47.065  10.057  1.00  0.00    -0.293 N 
ATOM      9  HN  UNL     1     -43.944 -45.231  10.982  1.00  0.00     0.186 HD
HETATM   10  C   UNL     1     -42.566 -48.123  10.430  1.00  0.00     0.141 A 
BRANCH   8  11
HETATM   11  C   UNL     1     -44.011 -46.812   8.791  1.00  0.00     0.250 C 
BRANCH  11  12
HETATM   12  C   UNL     1     -45.416 -47.361   8.717  1.00  0.00     0.235 C 
HETATM   13  O   UNL     1     -46.351 -46.944   9.394  1.00  0.00    -0.272 OA
HETATM   14  N   UNL     1     -45.614 -48.402   7.855  1.00  0.00    -0.369 N 
HETATM   15  H   UNL     1     -44.911 -48.741   7.209  1.00  0.00     0.159 HD
HETATM   16  H   UNL     1     -46.554 -48.770   7.775  1.00  0.00     0.159 HD
ENDBRANCH  11  12
ENDBRANCH   8  11
ENDBRANCH   3   5
BRANCH   1  17
HETATM   17  C   UNL     1     -40.905 -50.434  14.164  1.00  0.00     0.096 C 
HETATM   18  C   UNL     1     -39.512 -49.787  14.196  1.00  0.00     0.017 C 
HETATM   19  C   UNL     1     -38.459 -50.751  14.751  1.00  0.00     0.021 C 
HETATM   20  C   UNL     1     -38.479 -52.101  14.037  1.00  0.00     0.126 C 
HETATM   21  N   UNL     1     -39.829 -52.655  14.048  1.00  0.00    -0.352 N 
HETATM   22  C   UNL     1     -40.015 -54.007  14.297  1.00  0.00     0.215 C 
HETATM   23  C   UNL     1     -40.849 -51.794  13.464  1.00  0.00     0.139 C 
HETATM   24  C   UNL     1     -41.441 -54.483  14.437  1.00  0.00     0.117 C 
HETATM   25  O   UNL     1     -39.080 -54.789  14.470  1.00  0.00    -0.274 OA
ENDBRANCH   1  17
TORSDOF 4
ENDMDL
