MODEL 1
REMARK VINA RESULT:      -6.8      0.000      0.000
REMARK  4 active torsions:
REMARK  status: ('A' for Active; 'I' for Inactive)
REMARK    1  A    between atoms: N_11  and  C_12 
REMARK    2  A    between atoms: C_12  and  C_13 
REMARK    3  A    between atoms: C_13  and  O_14 
REMARK    4  A    between atoms: C_13  and  C_15 
ROOT
HETATM    1  C   UNL     1     -39.193 -54.121  15.633  1.00  0.00     0.164 C 
HETATM    2  N   UNL     1     -40.146 -53.651  14.646  1.00  0.00    -0.269 N 
HETATM    3  C   UNL     1     -39.719 -52.690  13.707  1.00  0.00     0.332 A 
HETATM    4  O   UNL     1     -38.563 -52.255  13.713  1.00  0.00    -0.246 OA
HETATM    5  N   UNL     1     -40.661 -52.250  12.776  1.00  0.00    -0.287 N 
HETATM    6  C   UNL     1     -40.297 -51.273  11.763  1.00  0.00     0.163 C 
HETATM    7  C   UNL     1     -41.933 -52.768  12.804  1.00  0.00     0.145 A 
HETATM    8  N   UNL     1     -42.958 -52.441  11.969  1.00  0.00    -0.336 N 
ATOM      9  HN  UNL     1     -42.949 -51.764  11.207  1.00  0.00     0.168 HD
HETATM   10  C   UNL     1     -43.964 -53.197  12.365  1.00  0.00     0.185 A 
HETATM   11  N   UNL     1     -43.610 -53.993  13.425  1.00  0.00    -0.333 N 
HETATM   12  C   UNL     1     -42.305 -53.707  13.718  1.00  0.00     0.149 A 
HETATM   13  C   UNL     1     -41.421 -54.224  14.702  1.00  0.00     0.282 A 
HETATM   14  O   UNL     1     -41.754 -55.085  15.515  1.00  0.00    -0.265 OA
ENDROOT
BRANCH  11  15
HETATM   15  C   UNL     1     -44.474 -54.942  14.107  1.00  0.00     0.167 C 
BRANCH  15  16
HETATM   16  C   UNL     1     -45.944 -54.483  14.141  1.00  0.00     0.171 C 
BRANCH  16  17
HETATM   17  O   UNL     1     -46.843 -55.568  14.388  1.00  0.00    -0.389 OA
HETATM   18  H   UNL     1     -47.301 -55.408  15.236  1.00  0.00     0.210 HD
ENDBRANCH  16  17
BRANCH  16  19
HETATM   19  C   UNL     1     -46.213 -53.425  15.195  1.00  0.00    -0.006 A 
HETATM   20  C   UNL     1     -46.079 -53.755  16.561  1.00  0.00     0.011 A 
HETATM   21  C   UNL     1     -46.389 -52.833  17.564  1.00  0.00     0.001 A 
HETATM   22  C   UNL     1     -46.837 -51.561  17.225  1.00  0.00     0.002 A 
HETATM   23  C   UNL     1     -46.963 -51.208  15.884  1.00  0.00     0.024 A 
HETATM   24  C   UNL     1     -46.651 -52.128  14.875  1.00  0.00     0.043 A 
HETATM   25 CL   UNL     1     -46.829 -51.583  13.243  1.00  0.00    -0.084 Cl
ENDBRANCH  16  19
ENDBRANCH  15  16
ENDBRANCH  11  15
TORSDOF 4
ENDMDL
MODEL 2
REMARK VINA RESULT:      -6.6      1.994      2.695
REMARK  4 active torsions:
REMARK  status: ('A' for Active; 'I' for Inactive)
REMARK    1  A    between atoms: N_11  and  C_12 
REMARK    2  A    between atoms: C_12  and  C_13 
REMARK    3  A    between atoms: C_13  and  O_14 
REMARK    4  A    between atoms: C_13  and  C_15 
ROOT
HETATM    1  C   UNL     1     -42.329 -56.074  16.839  1.00  0.00     0.164 C 
HETATM    2  N   UNL     1     -41.959 -55.225  15.724  1.00  0.00    -0.269 N 
HETATM    3  C   UNL     1     -40.589 -54.978  15.496  1.00  0.00     0.332 A 
HETATM    4  O   UNL     1     -39.719 -55.473  16.218  1.00  0.00    -0.246 OA
HETATM    5  N   UNL     1     -40.264 -54.148  14.421  1.00  0.00    -0.287 N 
HETATM    6  C   UNL     1     -38.875 -53.858  14.106  1.00  0.00     0.163 C 
HETATM    7  C   UNL     1     -41.269 -53.626  13.642  1.00  0.00     0.145 A 
HETATM    8  N   UNL     1     -41.113 -52.805  12.566  1.00  0.00    -0.336 N 
ATOM      9  HN  UNL     1     -40.242 -52.443  12.179  1.00  0.00     0.168 HD
HETATM   10  C   UNL     1     -42.340 -52.582  12.138  1.00  0.00     0.185 A 
HETATM   11  N   UNL     1     -43.270 -53.236  12.907  1.00  0.00    -0.333 N 
HETATM   12  C   UNL     1     -42.581 -53.898  13.885  1.00  0.00     0.149 A 
HETATM   13  C   UNL     1     -43.015 -54.735  14.948  1.00  0.00     0.282 A 
HETATM   14  O   UNL     1     -44.200 -54.993  15.155  1.00  0.00    -0.265 OA
ENDROOT
BRANCH  11  15
HETATM   15  C   UNL     1     -44.710 -53.207  12.715  1.00  0.00     0.167 C 
BRANCH  15  16
HETATM   16  C   UNL     1     -45.303 -51.799  12.910  1.00  0.00     0.171 C 
BRANCH  16  17
HETATM   17  O   UNL     1     -46.460 -51.583  12.096  1.00  0.00    -0.389 OA
HETATM   18  H   UNL     1     -46.202 -51.046  11.323  1.00  0.00     0.210 HD
ENDBRANCH  16  17
BRANCH  16  19
HETATM   19  C   UNL     1     -45.702 -51.515  14.346  1.00  0.00    -0.006 A 
HETATM   20  C   UNL     1     -46.985 -51.893  14.799  1.00  0.00     0.011 A 
HETATM   21  C   UNL     1     -47.419 -51.583  16.090  1.00  0.00     0.001 A 
HETATM   22  C   UNL     1     -46.581 -50.893  16.959  1.00  0.00     0.002 A 
HETATM   23  C   UNL     1     -45.306 -50.523  16.540  1.00  0.00     0.024 A 
HETATM   24  C   UNL     1     -44.865 -50.833  15.246  1.00  0.00     0.043 A 
HETATM   25 CL   UNL     1     -43.260 -50.341  14.833  1.00  0.00    -0.084 Cl
ENDBRANCH  16  19
ENDBRANCH  15  16
ENDBRANCH  11  15
TORSDOF 4
ENDMDL
MODEL 3
REMARK VINA RESULT:      -6.5      3.596      5.668
REMARK  4 active torsions:
REMARK  status: ('A' for Active; 'I' for Inactive)
REMARK    1  A    between atoms: N_11  and  C_12 
REMARK    2  A    between atoms: C_12  and  C_13 
REMARK    3  A    between atoms: C_13  and  O_14 
REMARK    4  A    between atoms: C_13  and  C_15 
ROOT
HETATM    1  C   UNL     1     -38.545 -46.900  15.534  1.00  0.00     0.164 C 
HETATM    2  N   UNL     1     -39.087 -47.328  14.258  1.00  0.00    -0.269 N 
HETATM    3  C   UNL     1     -39.346 -46.348  13.278  1.00  0.00     0.332 A 
HETATM    4  O   UNL     1     -39.117 -45.153  13.488  1.00  0.00    -0.246 OA
HETATM    5  N   UNL     1     -39.877 -46.789  12.065  1.00  0.00    -0.287 N 
HETATM    6  C   UNL     1     -40.158 -45.845  10.995  1.00  0.00     0.163 C 
HETATM    7  C   UNL     1     -40.109 -48.130  11.876  1.00  0.00     0.145 A 
HETATM    8  N   UNL     1     -40.621 -48.712  10.755  1.00  0.00    -0.336 N 
ATOM      9  HN  UNL     1     -40.918 -48.252   9.895  1.00  0.00     0.168 HD
HETATM   10  C   UNL     1     -40.645 -50.001  11.032  1.00  0.00     0.185 A 
HETATM   11  N   UNL     1     -40.165 -50.257  12.291  1.00  0.00    -0.333 N 
HETATM   12  C   UNL     1     -39.832 -49.050  12.842  1.00  0.00     0.149 A 
HETATM   13  C   UNL     1     -39.285 -48.704  14.106  1.00  0.00     0.282 A 
HETATM   14  O   UNL     1     -39.020 -49.538  14.971  1.00  0.00    -0.265 OA
ENDROOT
BRANCH  11  15
HETATM   15  C   UNL     1     -40.053 -51.564  12.914  1.00  0.00     0.167 C 
BRANCH  15  16
HETATM   16  C   UNL     1     -41.099 -52.563  12.382  1.00  0.00     0.171 C 
BRANCH  16  17
HETATM   17  O   UNL     1     -40.556 -53.431  11.382  1.00  0.00    -0.389 OA
HETATM   18  H   UNL     1     -41.294 -53.833  10.884  1.00  0.00     0.210 HD
ENDBRANCH  16  17
BRANCH  16  19
HETATM   19  C   UNL     1     -41.690 -53.441  13.469  1.00  0.00    -0.006 A 
HETATM   20  C   UNL     1     -40.860 -53.916  14.507  1.00  0.00     0.011 A 
HETATM   21  C   UNL     1     -41.348 -54.786  15.485  1.00  0.00     0.001 A 
HETATM   22  C   UNL     1     -42.675 -55.200  15.450  1.00  0.00     0.002 A 
HETATM   23  C   UNL     1     -43.516 -54.733  14.443  1.00  0.00     0.024 A 
HETATM   24  C   UNL     1     -43.033 -53.858  13.461  1.00  0.00     0.043 A 
HETATM   25 CL   UNL     1     -44.164 -53.328  12.266  1.00  0.00    -0.084 Cl
ENDBRANCH  16  19
ENDBRANCH  15  16
ENDBRANCH  11  15
TORSDOF 4
ENDMDL
MODEL 4
REMARK VINA RESULT:      -6.5      1.740      2.151
REMARK  4 active torsions:
REMARK  status: ('A' for Active; 'I' for Inactive)
REMARK    1  A    between atoms: N_11  and  C_12 
REMARK    2  A    between atoms: C_12  and  C_13 
REMARK    3  A    between atoms: C_13  and  O_14 
REMARK    4  A    between atoms: C_13  and  C_15 
ROOT
HETATM    1  C   UNL     1     -38.399 -51.900  16.497  1.00  0.00     0.164 C 
HETATM    2  N   UNL     1     -38.958 -51.776  15.164  1.00  0.00    -0.269 N 
HETATM    3  C   UNL     1     -38.277 -50.977  14.224  1.00  0.00     0.332 A 
HETATM    4  O   UNL     1     -37.227 -50.396  14.515  1.00  0.00    -0.246 OA
HETATM    5  N   UNL     1     -38.845 -50.868  12.953  1.00  0.00    -0.287 N 
HETATM    6  C   UNL     1     -38.196 -50.077  11.920  1.00  0.00     0.163 C 
HETATM    7  C   UNL     1     -40.012 -51.538  12.674  1.00  0.00     0.145 A 
HETATM    8  N   UNL     1     -40.684 -51.531  11.490  1.00  0.00    -0.336 N 
ATOM      9  HN  UNL     1     -40.440 -51.027  10.637  1.00  0.00     0.168 HD
HETATM   10  C   UNL     1     -41.722 -52.319  11.692  1.00  0.00     0.185 A 
HETATM   11  N   UNL     1     -41.730 -52.827  12.967  1.00  0.00    -0.333 N 
HETATM   12  C   UNL     1     -40.634 -52.312  13.605  1.00  0.00     0.149 A 
HETATM   13  C   UNL     1     -40.135 -52.493  14.923  1.00  0.00     0.282 A 
HETATM   14  O   UNL     1     -40.690 -53.207  15.756  1.00  0.00    -0.265 OA
ENDROOT
BRANCH  11  15
HETATM   15  C   UNL     1     -42.726 -53.725  13.524  1.00  0.00     0.167 C 
BRANCH  15  16
HETATM   16  C   UNL     1     -44.149 -53.409  13.026  1.00  0.00     0.171 C 
BRANCH  16  17
HETATM   17  O   UNL     1     -44.880 -54.593  12.690  1.00  0.00    -0.389 OA
HETATM   18  H   UNL     1     -45.726 -54.332  12.279  1.00  0.00     0.210 HD
ENDBRANCH  16  17
BRANCH  16  19
HETATM   19  C   UNL     1     -44.977 -52.640  14.038  1.00  0.00    -0.006 A 
HETATM   20  C   UNL     1     -44.607 -52.664  15.401  1.00  0.00     0.011 A 
HETATM   21  C   UNL     1     -45.383 -52.032  16.375  1.00  0.00     0.001 A 
HETATM   22  C   UNL     1     -46.544 -51.359  16.011  1.00  0.00     0.002 A 
HETATM   23  C   UNL     1     -46.921 -51.309  14.671  1.00  0.00     0.024 A 
HETATM   24  C   UNL     1     -46.145 -51.940  13.690  1.00  0.00     0.043 A 
HETATM   25 CL   UNL     1     -46.695 -51.804  12.056  1.00  0.00    -0.084 Cl
ENDBRANCH  16  19
ENDBRANCH  15  16
ENDBRANCH  11  15
TORSDOF 4
ENDMDL
MODEL 5
REMARK VINA RESULT:      -6.1      3.282      6.873
REMARK  4 active torsions:
REMARK  status: ('A' for Active; 'I' for Inactive)
REMARK    1  A    between atoms: N_11  and  C_12 
REMARK    2  A    between atoms: C_12  and  C_13 
REMARK    3  A    between atoms: C_13  and  O_14 
REMARK    4  A    between atoms: C_13  and  C_15 
ROOT
HETATM    1  C   UNL     1     -46.481 -52.687  14.256  1.00  0.00     0.164 C 
HETATM    2  N   UNL     1     -45.070 -53.022  14.226  1.00  0.00    -0.269 N 
HETATM    3  C   UNL     1     -44.644 -54.185  14.898  1.00  0.00     0.332 A 
HETATM    4  O   UNL     1     -45.443 -54.911  15.497  1.00  0.00    -0.246 OA
HETATM    5  N   UNL     1     -43.279 -54.476  14.860  1.00  0.00    -0.287 N 
HETATM    6  C   UNL     1     -42.758 -55.666  15.513  1.00  0.00     0.163 C 
HETATM    7  C   UNL     1     -42.428 -53.641  14.175  1.00  0.00     0.145 A 
HETATM    8  N   UNL     1     -41.080 -53.788  14.048  1.00  0.00    -0.336 N 
ATOM      9  HN  UNL     1     -40.493 -54.523  14.442  1.00  0.00     0.168 HD
HETATM   10  C   UNL     1     -40.704 -52.768  13.302  1.00  0.00     0.185 A 
HETATM   11  N   UNL     1     -41.769 -51.978  12.951  1.00  0.00    -0.333 N 
HETATM   12  C   UNL     1     -42.880 -52.533  13.526  1.00  0.00     0.149 A 
HETATM   13  C   UNL     1     -44.249 -52.154  13.499  1.00  0.00     0.282 A 
HETATM   14  O   UNL     1     -44.657 -51.162  12.896  1.00  0.00    -0.265 OA
ENDROOT
BRANCH  11  15
HETATM   15  C   UNL     1     -41.711 -50.776  12.138  1.00  0.00     0.167 C 
BRANCH  15  16
HETATM   16  C   UNL     1     -40.283 -50.460  11.653  1.00  0.00     0.171 C 
BRANCH  16  17
HETATM   17  O   UNL     1     -40.263 -49.996  10.300  1.00  0.00    -0.389 OA
HETATM   18  H   UNL     1     -39.781 -49.148  10.267  1.00  0.00     0.210 HD
ENDBRANCH  16  17
BRANCH  16  19
HETATM   19  C   UNL     1     -39.586 -49.413  12.500  1.00  0.00    -0.006 A 
HETATM   20  C   UNL     1     -40.208 -48.163  12.712  1.00  0.00     0.011 A 
HETATM   21  C   UNL     1     -39.567 -47.145  13.423  1.00  0.00     0.001 A 
HETATM   22  C   UNL     1     -38.293 -47.352  13.940  1.00  0.00     0.002 A 
HETATM   23  C   UNL     1     -37.666 -48.582  13.756  1.00  0.00     0.024 A 
HETATM   24  C   UNL     1     -38.305 -49.607  13.046  1.00  0.00     0.043 A 
HETATM   25 CL   UNL     1     -37.443 -51.098  12.887  1.00  0.00    -0.084 Cl
ENDBRANCH  16  19
ENDBRANCH  15  16
ENDBRANCH  11  15
TORSDOF 4
ENDMDL
MODEL 6
REMARK VINA RESULT:      -5.8      4.519      5.618
REMARK  4 active torsions:
REMARK  status: ('A' for Active; 'I' for Inactive)
REMARK    1  A    between atoms: N_11  and  C_12 
REMARK    2  A    between atoms: C_12  and  C_13 
REMARK    3  A    between atoms: C_13  and  O_14 
REMARK    4  A    between atoms: C_13  and  C_15 
ROOT
HETATM    1  C   UNL     1     -43.034 -44.976  14.484  1.00  0.00     0.164 C 
HETATM    2  N   UNL     1     -42.405 -45.849  13.512  1.00  0.00    -0.269 N 
HETATM    3  C   UNL     1     -41.713 -45.262  12.433  1.00  0.00     0.332 A 
HETATM    4  O   UNL     1     -41.634 -44.036  12.312  1.00  0.00    -0.246 OA
HETATM    5  N   UNL     1     -41.127 -46.127  11.508  1.00  0.00    -0.287 N 
HETATM    6  C   UNL     1     -40.380 -45.604  10.376  1.00  0.00     0.163 C 
HETATM    7  C   UNL     1     -41.236 -47.485  11.689  1.00  0.00     0.145 A 
HETATM    8  N   UNL     1     -40.723 -48.453  10.879  1.00  0.00    -0.336 N 
ATOM      9  HN  UNL     1     -40.193 -48.327  10.017  1.00  0.00     0.168 HD
HETATM   10  C   UNL     1     -41.066 -49.587  11.458  1.00  0.00     0.185 A 
HETATM   11  N   UNL     1     -41.779 -49.371  12.610  1.00  0.00    -0.333 N 
HETATM   12  C   UNL     1     -41.902 -48.016  12.752  1.00  0.00     0.149 A 
HETATM   13  C   UNL     1     -42.526 -47.222  13.751  1.00  0.00     0.282 A 
HETATM   14  O   UNL     1     -43.111 -47.704  14.720  1.00  0.00    -0.265 OA
ENDROOT
BRANCH  11  15
HETATM   15  C   UNL     1     -42.311 -50.397  13.491  1.00  0.00     0.167 C 
BRANCH  15  16
HETATM   16  C   UNL     1     -43.643 -50.980  12.982  1.00  0.00     0.171 C 
BRANCH  16  17
HETATM   17  O   UNL     1     -43.491 -52.308  12.473  1.00  0.00    -0.389 OA
HETATM   18  H   UNL     1     -43.161 -52.882  13.190  1.00  0.00     0.210 HD
ENDBRANCH  16  17
BRANCH  16  19
HETATM   19  C   UNL     1     -44.719 -51.025  14.051  1.00  0.00    -0.006 A 
HETATM   20  C   UNL     1     -44.375 -50.769  15.395  1.00  0.00     0.011 A 
HETATM   21  C   UNL     1     -45.319 -50.874  16.419  1.00  0.00     0.001 A 
HETATM   22  C   UNL     1     -46.629 -51.235  16.123  1.00  0.00     0.002 A 
HETATM   23  C   UNL     1     -46.996 -51.478  14.801  1.00  0.00     0.024 A 
HETATM   24  C   UNL     1     -46.052 -51.372  13.771  1.00  0.00     0.043 A 
HETATM   25 CL   UNL     1     -46.616 -51.682  12.166  1.00  0.00    -0.084 Cl
ENDBRANCH  16  19
ENDBRANCH  15  16
ENDBRANCH  11  15
TORSDOF 4
ENDMDL
MODEL 7
REMARK VINA RESULT:      -5.8      2.615      6.029
REMARK  4 active torsions:
REMARK  status: ('A' for Active; 'I' for Inactive)
REMARK    1  A    between atoms: N_11  and  C_12 
REMARK    2  A    between atoms: C_12  and  C_13 
REMARK    3  A    between atoms: C_13  and  O_14 
REMARK    4  A    between atoms: C_13  and  C_15 
ROOT
HETATM    1  C   UNL     1     -45.357 -51.856  17.331  1.00  0.00     0.164 C 
HETATM    2  N   UNL     1     -44.912 -52.001  15.959  1.00  0.00    -0.269 N 
HETATM    3  C   UNL     1     -45.855 -51.823  14.926  1.00  0.00     0.332 A 
HETATM    4  O   UNL     1     -47.033 -51.545  15.172  1.00  0.00    -0.246 OA
HETATM    5  N   UNL     1     -45.399 -51.979  13.616  1.00  0.00    -0.287 N 
HETATM    6  C   UNL     1     -46.304 -51.795  12.492  1.00  0.00     0.163 C 
HETATM    7  C   UNL     1     -44.078 -52.282  13.391  1.00  0.00     0.145 A 
HETATM    8  N   UNL     1     -43.486 -52.466  12.178  1.00  0.00    -0.336 N 
ATOM      9  HN  UNL     1     -43.923 -52.418  11.258  1.00  0.00     0.168 HD
HETATM   10  C   UNL     1     -42.223 -52.718  12.460  1.00  0.00     0.185 A 
HETATM   11  N   UNL     1     -41.994 -52.701  13.813  1.00  0.00    -0.333 N 
HETATM   12  C   UNL     1     -43.192 -52.433  14.415  1.00  0.00     0.149 A 
HETATM   13  C   UNL     1     -43.555 -52.289  15.781  1.00  0.00     0.282 A 
HETATM   14  O   UNL     1     -42.749 -52.408  16.703  1.00  0.00    -0.265 OA
ENDROOT
BRANCH  11  15
HETATM   15  C   UNL     1     -40.718 -52.938  14.467  1.00  0.00     0.167 C 
BRANCH  15  16
HETATM   16  C   UNL     1     -40.155 -54.341  14.171  1.00  0.00     0.171 C 
BRANCH  16  17
HETATM   17  O   UNL     1     -38.975 -54.290  13.364  1.00  0.00    -0.389 OA
HETATM   18  H   UNL     1     -38.198 -54.432  13.938  1.00  0.00     0.210 HD
ENDBRANCH  16  17
BRANCH  16  19
HETATM   19  C   UNL     1     -39.812 -55.122  15.425  1.00  0.00    -0.006 A 
HETATM   20  C   UNL     1     -38.464 -55.228  15.830  1.00  0.00     0.011 A 
HETATM   21  C   UNL     1     -38.097 -55.999  16.936  1.00  0.00     0.001 A 
HETATM   22  C   UNL     1     -39.068 -56.679  17.664  1.00  0.00     0.002 A 
HETATM   23  C   UNL     1     -40.406 -56.576  17.292  1.00  0.00     0.024 A 
HETATM   24  C   UNL     1     -40.779 -55.803  16.185  1.00  0.00     0.043 A 
HETATM   25 CL   UNL     1     -42.467 -55.733  15.819  1.00  0.00    -0.084 Cl
ENDBRANCH  16  19
ENDBRANCH  15  16
ENDBRANCH  11  15
TORSDOF 4
ENDMDL
MODEL 8
REMARK VINA RESULT:      -5.8      2.983      6.748
REMARK  4 active torsions:
REMARK  status: ('A' for Active; 'I' for Inactive)
REMARK    1  A    between atoms: N_11  and  C_12 
REMARK    2  A    between atoms: C_12  and  C_13 
REMARK    3  A    between atoms: C_13  and  O_14 
REMARK    4  A    between atoms: C_13  and  C_15 
ROOT
HETATM    1  C   UNL     1     -45.140 -50.170  16.792  1.00  0.00     0.164 C 
HETATM    2  N   UNL     1     -45.082 -51.253  15.830  1.00  0.00    -0.269 N 
HETATM    3  C   UNL     1     -46.001 -52.314  15.960  1.00  0.00     0.332 A 
HETATM    4  O   UNL     1     -46.842 -52.329  16.863  1.00  0.00    -0.246 OA
HETATM    5  N   UNL     1     -45.913 -53.348  15.025  1.00  0.00    -0.287 N 
HETATM    6  C   UNL     1     -46.835 -54.471  15.078  1.00  0.00     0.163 C 
HETATM    7  C   UNL     1     -44.964 -53.284  14.034  1.00  0.00     0.145 A 
HETATM    8  N   UNL     1     -44.754 -54.208  13.055  1.00  0.00    -0.336 N 
ATOM      9  HN  UNL     1     -45.253 -55.086  12.910  1.00  0.00     0.168 HD
HETATM   10  C   UNL     1     -43.763 -53.715  12.339  1.00  0.00     0.185 A 
HETATM   11  N   UNL     1     -43.337 -52.507  12.831  1.00  0.00    -0.333 N 
HETATM   12  C   UNL     1     -44.102 -52.235  13.932  1.00  0.00     0.149 A 
HETATM   13  C   UNL     1     -44.113 -51.133  14.828  1.00  0.00     0.282 A 
HETATM   14  O   UNL     1     -43.345 -50.178  14.723  1.00  0.00    -0.265 OA
ENDROOT
BRANCH  11  15
HETATM   15  C   UNL     1     -42.265 -51.692  12.285  1.00  0.00     0.167 C 
BRANCH  15  16
HETATM   16  C   UNL     1     -40.876 -52.321  12.503  1.00  0.00     0.171 C 
BRANCH  16  17
HETATM   17  O   UNL     1     -40.500 -53.184  11.426  1.00  0.00    -0.389 OA
HETATM   18  H   UNL     1     -39.525 -53.210  11.371  1.00  0.00     0.210 HD
ENDBRANCH  16  17
BRANCH  16  19
HETATM   19  C   UNL     1     -39.774 -51.290  12.661  1.00  0.00    -0.006 A 
HETATM   20  C   UNL     1     -39.679 -50.227  11.737  1.00  0.00     0.011 A 
HETATM   21  C   UNL     1     -38.637 -49.299  11.802  1.00  0.00     0.001 A 
HETATM   22  C   UNL     1     -37.667 -49.410  12.793  1.00  0.00     0.002 A 
HETATM   23  C   UNL     1     -37.749 -50.443  13.725  1.00  0.00     0.024 A 
HETATM   24  C   UNL     1     -38.794 -51.374  13.664  1.00  0.00     0.043 A 
HETATM   25 CL   UNL     1     -38.808 -52.606  14.877  1.00  0.00    -0.084 Cl
ENDBRANCH  16  19
ENDBRANCH  15  16
ENDBRANCH  11  15
TORSDOF 4
ENDMDL
MODEL 9
REMARK VINA RESULT:      -5.8      2.910      6.609
REMARK  4 active torsions:
REMARK  status: ('A' for Active; 'I' for Inactive)
REMARK    1  A    between atoms: N_11  and  C_12 
REMARK    2  A    between atoms: C_12  and  C_13 
REMARK    3  A    between atoms: C_13  and  O_14 
REMARK    4  A    between atoms: C_13  and  C_15 
ROOT
HETATM    1  C   UNL     1     -46.115 -51.697  12.898  1.00  0.00     0.164 C 
HETATM    2  N   UNL     1     -45.405 -52.506  13.870  1.00  0.00    -0.269 N 
HETATM    3  C   UNL     1     -46.061 -52.836  15.074  1.00  0.00     0.332 A 
HETATM    4  O   UNL     1     -47.213 -52.455  15.303  1.00  0.00    -0.246 OA
HETATM    5  N   UNL     1     -45.349 -53.607  15.994  1.00  0.00    -0.287 N 
HETATM    6  C   UNL     1     -45.958 -54.006  17.252  1.00  0.00     0.163 C 
HETATM    7  C   UNL     1     -44.071 -54.013  15.691  1.00  0.00     0.145 A 
HETATM    8  N   UNL     1     -43.253 -54.764  16.480  1.00  0.00    -0.336 N 
ATOM      9  HN  UNL     1     -43.450 -55.130  17.412  1.00  0.00     0.168 HD
HETATM   10  C   UNL     1     -42.151 -54.909  15.772  1.00  0.00     0.185 A 
HETATM   11  N   UNL     1     -42.242 -54.276  14.558  1.00  0.00    -0.333 N 
HETATM   12  C   UNL     1     -43.475 -53.686  14.511  1.00  0.00     0.149 A 
HETATM   13  C   UNL     1     -44.117 -52.912  13.507  1.00  0.00     0.282 A 
HETATM   14  O   UNL     1     -43.583 -52.633  12.435  1.00  0.00    -0.265 OA
ENDROOT
BRANCH  11  15
HETATM   15  C   UNL     1     -41.212 -54.235  13.535  1.00  0.00     0.167 C 
BRANCH  15  16
HETATM   16  C   UNL     1     -39.791 -54.205  14.130  1.00  0.00     0.171 C 
BRANCH  16  17
HETATM   17  O   UNL     1     -38.821 -54.766  13.240  1.00  0.00    -0.389 OA
HETATM   18  H   UNL     1     -37.962 -54.330  13.399  1.00  0.00     0.210 HD
ENDBRANCH  16  17
BRANCH  16  19
HETATM   19  C   UNL     1     -39.323 -52.806  14.483  1.00  0.00    -0.006 A 
HETATM   20  C   UNL     1     -39.294 -51.809  13.483  1.00  0.00     0.011 A 
HETATM   21  C   UNL     1     -38.800 -50.530  13.748  1.00  0.00     0.001 A 
HETATM   22  C   UNL     1     -38.327 -50.215  15.018  1.00  0.00     0.002 A 
HETATM   23  C   UNL     1     -38.360 -51.178  16.024  1.00  0.00     0.024 A 
HETATM   24  C   UNL     1     -38.856 -52.462  15.764  1.00  0.00     0.043 A 
HETATM   25 CL   UNL     1     -38.865 -53.575  17.087  1.00  0.00    -0.084 Cl
ENDBRANCH  16  19
ENDBRANCH  15  16
ENDBRANCH  11  15
TORSDOF 4
ENDMDL
