MODEL 1
REMARK VINA RESULT:      -6.8      0.000      0.000
REMARK  4 active torsions:
REMARK  status: ('A' for Active; 'I' for Inactive)
REMARK       I    between atoms: N_2  and  C_3 
REMARK    1  A    between atoms: C_3  and  C_5 
REMARK    2  A    between atoms: N_10  and  C_11 
REMARK    3  A    between atoms: C_11  and  C_12 
REMARK       I    between atoms: C_12  and  N_14 
REMARK       I    between atoms: N_14  and  C_15 
REMARK       I    between atoms: C_15  and  N_17 
REMARK    4  A    between atoms: N_17  and  C_18 
ROOT
HETATM    1  C   UNL     1     -42.028 -48.282  11.299  1.00  0.00     0.243 C 
HETATM    2  O   UNL     1     -41.990 -47.893  10.130  1.00  0.00    -0.271 OA
HETATM    3  N   UNL     1     -42.855 -49.345  11.615  1.00  0.00    -0.278 N 
HETATM    4  C   UNL     1     -43.315 -49.645  12.867  1.00  0.00     0.323 C 
HETATM    5  O   UNL     1     -43.020 -49.026  13.875  1.00  0.00    -0.247 OA
HETATM    6  N   UNL     1     -44.079 -50.787  12.923  1.00  0.00    -0.338 N 
HETATM    7  H   UNL     1     -43.317 -49.755  10.819  1.00  0.00     0.173 HD
HETATM    8  H   UNL     1     -44.681 -51.001  12.140  1.00  0.00     0.164 HD
ENDROOT
BRANCH   1   9
HETATM    9  C   UNL     1     -41.263 -47.568  12.421  1.00  0.00     0.234 C 
BRANCH   9  10
HETATM   10  N   UNL     1     -39.990 -48.137  12.875  1.00  0.00    -0.315 N 
HETATM   11  C   UNL     1     -39.564 -47.748  14.144  1.00  0.00     0.247 A 
HETATM   12  C   UNL     1     -38.278 -48.331  14.610  1.00  0.00     0.075 A 
HETATM   13  O   UNL     1     -40.173 -46.982  14.886  1.00  0.00    -0.268 OA
HETATM   14  C   UNL     1     -37.581 -49.159  13.822  1.00  0.00     0.024 A 
HETATM   15  C   UNL     1     -38.061 -49.498  12.499  1.00  0.00     0.047 A 
HETATM   16  C   UNL     1     -39.212 -48.957  12.061  1.00  0.00     0.111 A 
BRANCH  15  17
HETATM   17  C   UNL     1     -37.319 -50.417  11.574  1.00  0.00     0.252 C 
HETATM   18  N   UNL     1     -37.168 -49.930  10.294  1.00  0.00    -0.361 N 
HETATM   19  C   UNL     1     -36.404 -50.647   9.306  1.00  0.00     0.149 C 
HETATM   20  H   UNL     1     -37.409 -48.969  10.099  1.00  0.00     0.162 HD
HETATM   21  O   UNL     1     -36.844 -51.481  11.952  1.00  0.00    -0.268 OA
ENDBRANCH  15  17
ENDBRANCH   9  10
ENDBRANCH   1   9
BRANCH   6  22
HETATM   22  C   UNL     1     -44.498 -51.237  14.253  1.00  0.00     0.086 C 
HETATM   23  C   UNL     1     -43.784 -52.518  14.682  1.00  0.00     0.025 C 
HETATM   24  C   UNL     1     -44.356 -53.774  14.036  1.00  0.00     0.002 C 
HETATM   25  C   UNL     1     -45.870 -53.859  14.210  1.00  0.00     0.000 C 
HETATM   26  C   UNL     1     -46.565 -52.611  13.682  1.00  0.00     0.002 C 
HETATM   27  C   UNL     1     -46.026 -51.354  14.358  1.00  0.00     0.025 C 
ENDBRANCH   6  22
TORSDOF 4
ENDMDL
MODEL 2
REMARK VINA RESULT:      -6.8      2.302      4.252
REMARK  4 active torsions:
REMARK  status: ('A' for Active; 'I' for Inactive)
REMARK       I    between atoms: N_2  and  C_3 
REMARK    1  A    between atoms: C_3  and  C_5 
REMARK    2  A    between atoms: N_10  and  C_11 
REMARK    3  A    between atoms: C_11  and  C_12 
REMARK       I    between atoms: C_12  and  N_14 
REMARK       I    between atoms: N_14  and  C_15 
REMARK       I    between atoms: C_15  and  N_17 
REMARK    4  A    between atoms: N_17  and  C_18 
ROOT
HETATM    1  C   UNL     1     -40.021 -51.617  13.734  1.00  0.00     0.243 C 
HETATM    2  O   UNL     1     -39.088 -51.683  14.535  1.00  0.00    -0.271 OA
HETATM    3  N   UNL     1     -41.278 -52.024  14.148  1.00  0.00    -0.278 N 
HETATM    4  C   UNL     1     -42.304 -52.388  13.321  1.00  0.00     0.323 C 
HETATM    5  O   UNL     1     -42.249 -52.364  12.103  1.00  0.00    -0.247 OA
HETATM    6  N   UNL     1     -43.470 -52.699  13.982  1.00  0.00    -0.338 N 
HETATM    7  H   UNL     1     -41.323 -52.285  15.120  1.00  0.00     0.173 HD
HETATM    8  H   UNL     1     -43.405 -53.161  14.878  1.00  0.00     0.164 HD
ENDROOT
BRANCH   1   9
HETATM    9  C   UNL     1     -39.815 -51.191  12.274  1.00  0.00     0.234 C 
BRANCH   9  10
HETATM   10  N   UNL     1     -40.062 -49.792  11.910  1.00  0.00    -0.315 N 
HETATM   11  C   UNL     1     -39.082 -48.878  12.295  1.00  0.00     0.247 A 
HETATM   12  C   UNL     1     -39.326 -47.460  11.920  1.00  0.00     0.075 A 
HETATM   13  O   UNL     1     -38.052 -49.164  12.899  1.00  0.00    -0.268 OA
HETATM   14  C   UNL     1     -40.445 -47.111  11.273  1.00  0.00     0.024 A 
HETATM   15  C   UNL     1     -41.442 -48.104  10.931  1.00  0.00     0.047 A 
HETATM   16  C   UNL     1     -41.239 -49.385  11.287  1.00  0.00     0.111 A 
BRANCH  15  17
HETATM   17  C   UNL     1     -42.713 -47.766  10.211  1.00  0.00     0.252 C 
HETATM   18  N   UNL     1     -42.656 -47.947   8.846  1.00  0.00    -0.361 N 
HETATM   19  C   UNL     1     -43.816 -47.753   8.016  1.00  0.00     0.149 C 
HETATM   20  H   UNL     1     -41.861 -48.423   8.444  1.00  0.00     0.162 HD
HETATM   21  O   UNL     1     -43.726 -47.414  10.803  1.00  0.00    -0.268 OA
ENDBRANCH  15  17
ENDBRANCH   9  10
ENDBRANCH   1   9
BRANCH   6  22
HETATM   22  C   UNL     1     -44.645 -52.974  13.153  1.00  0.00     0.086 C 
HETATM   23  C   UNL     1     -45.602 -51.783  13.091  1.00  0.00     0.025 C 
HETATM   24  C   UNL     1     -46.467 -51.640  14.337  1.00  0.00     0.002 C 
HETATM   25  C   UNL     1     -47.176 -52.945  14.685  1.00  0.00     0.000 C 
HETATM   26  C   UNL     1     -46.189 -54.095  14.839  1.00  0.00     0.002 C 
HETATM   27  C   UNL     1     -45.350 -54.271  13.577  1.00  0.00     0.025 C 
ENDBRANCH   6  22
TORSDOF 4
ENDMDL
MODEL 3
REMARK VINA RESULT:      -6.8      2.813      6.317
REMARK  4 active torsions:
REMARK  status: ('A' for Active; 'I' for Inactive)
REMARK       I    between atoms: N_2  and  C_3 
REMARK    1  A    between atoms: C_3  and  C_5 
REMARK    2  A    between atoms: N_10  and  C_11 
REMARK    3  A    between atoms: C_11  and  C_12 
REMARK       I    between atoms: C_12  and  N_14 
REMARK       I    between atoms: N_14  and  C_15 
REMARK       I    between atoms: C_15  and  N_17 
REMARK    4  A    between atoms: N_17  and  C_18 
ROOT
HETATM    1  C   UNL     1     -39.277 -50.032  11.816  1.00  0.00     0.243 C 
HETATM    2  O   UNL     1     -38.171 -50.381  11.396  1.00  0.00    -0.271 OA
HETATM    3  N   UNL     1     -40.002 -49.111  11.080  1.00  0.00    -0.278 N 
HETATM    4  C   UNL     1     -41.019 -48.336  11.565  1.00  0.00     0.323 C 
HETATM    5  O   UNL     1     -41.440 -48.389  12.708  1.00  0.00    -0.247 OA
HETATM    6  N   UNL     1     -41.615 -47.539  10.616  1.00  0.00    -0.338 N 
HETATM    7  H   UNL     1     -39.568 -48.851  10.209  1.00  0.00     0.173 HD
HETATM    8  H   UNL     1     -41.037 -47.148   9.885  1.00  0.00     0.164 HD
ENDROOT
BRANCH   1   9
HETATM    9  C   UNL     1     -39.826 -50.514  13.165  1.00  0.00     0.234 C 
BRANCH   9  10
HETATM   10  N   UNL     1     -40.566 -51.779  13.209  1.00  0.00    -0.315 N 
HETATM   11  C   UNL     1     -39.811 -52.920  13.480  1.00  0.00     0.247 A 
HETATM   12  C   UNL     1     -40.560 -54.203  13.534  1.00  0.00     0.075 A 
HETATM   13  O   UNL     1     -38.600 -52.930  13.682  1.00  0.00    -0.268 OA
HETATM   14  C   UNL     1     -41.879 -54.231  13.306  1.00  0.00     0.024 A 
HETATM   15  C   UNL     1     -42.601 -53.014  12.996  1.00  0.00     0.047 A 
HETATM   16  C   UNL     1     -41.927 -51.853  12.923  1.00  0.00     0.111 A 
BRANCH  15  17
HETATM   17  C   UNL     1     -44.077 -52.990  12.728  1.00  0.00     0.252 C 
HETATM   18  N   UNL     1     -44.671 -51.766  12.947  1.00  0.00    -0.361 N 
HETATM   19  C   UNL     1     -46.064 -51.548  12.655  1.00  0.00     0.149 C 
HETATM   20  H   UNL     1     -44.090 -50.957  13.112  1.00  0.00     0.162 HD
HETATM   21  O   UNL     1     -44.679 -53.966  12.298  1.00  0.00    -0.268 OA
ENDBRANCH  15  17
ENDBRANCH   9  10
ENDBRANCH   1   9
BRANCH   6  22
HETATM   22  C   UNL     1     -42.794 -46.779  11.038  1.00  0.00     0.086 C 
HETATM   23  C   UNL     1     -44.082 -47.591  10.913  1.00  0.00     0.025 C 
HETATM   24  C   UNL     1     -44.604 -47.679   9.484  1.00  0.00     0.002 C 
HETATM   25  C   UNL     1     -44.714 -46.302   8.838  1.00  0.00     0.000 C 
HETATM   26  C   UNL     1     -43.388 -45.553   8.886  1.00  0.00     0.002 C 
HETATM   27  C   UNL     1     -42.883 -45.424  10.320  1.00  0.00     0.025 C 
ENDBRANCH   6  22
TORSDOF 4
ENDMDL
MODEL 4
REMARK VINA RESULT:      -6.7      2.656      4.830
REMARK  4 active torsions:
REMARK  status: ('A' for Active; 'I' for Inactive)
REMARK       I    between atoms: N_2  and  C_3 
REMARK    1  A    between atoms: C_3  and  C_5 
REMARK    2  A    between atoms: N_10  and  C_11 
REMARK    3  A    between atoms: C_11  and  C_12 
REMARK       I    between atoms: C_12  and  N_14 
REMARK       I    between atoms: N_14  and  C_15 
REMARK       I    between atoms: C_15  and  N_17 
REMARK    4  A    between atoms: N_17  and  C_18 
ROOT
HETATM    1  C   UNL     1     -40.906 -49.023  13.680  1.00  0.00     0.243 C 
HETATM    2  O   UNL     1     -40.458 -48.350  14.610  1.00  0.00    -0.271 OA
HETATM    3  N   UNL     1     -41.817 -50.025  13.968  1.00  0.00    -0.278 N 
HETATM    4  C   UNL     1     -42.104 -51.089  13.159  1.00  0.00     0.323 C 
HETATM    5  O   UNL     1     -41.614 -51.269  12.057  1.00  0.00    -0.247 OA
HETATM    6  N   UNL     1     -43.088 -51.915  13.651  1.00  0.00    -0.338 N 
HETATM    7  H   UNL     1     -42.084 -50.068  14.938  1.00  0.00     0.173 HD
HETATM    8  H   UNL     1     -43.138 -52.060  14.650  1.00  0.00     0.164 HD
ENDROOT
BRANCH   1   9
HETATM    9  C   UNL     1     -40.416 -48.848  12.237  1.00  0.00     0.234 C 
BRANCH   9  10
HETATM   10  N   UNL     1     -41.070 -47.844  11.391  1.00  0.00    -0.315 N 
HETATM   11  C   UNL     1     -40.586 -46.541  11.504  1.00  0.00     0.247 A 
HETATM   12  C   UNL     1     -41.242 -45.522  10.642  1.00  0.00     0.075 A 
HETATM   13  O   UNL     1     -39.669 -46.192  12.243  1.00  0.00    -0.268 OA
HETATM   14  C   UNL     1     -42.253 -45.864   9.834  1.00  0.00     0.024 A 
HETATM   15  C   UNL     1     -42.733 -47.230   9.788  1.00  0.00     0.047 A 
HETATM   16  C   UNL     1     -42.160 -48.153  10.582  1.00  0.00     0.111 A 
BRANCH  15  17
HETATM   17  C   UNL     1     -43.864 -47.666   8.905  1.00  0.00     0.252 C 
HETATM   18  N   UNL     1     -45.073 -47.791   9.554  1.00  0.00    -0.361 N 
HETATM   19  C   UNL     1     -46.279 -48.116   8.835  1.00  0.00     0.149 C 
HETATM   20  H   UNL     1     -45.165 -47.448  10.499  1.00  0.00     0.162 HD
HETATM   21  O   UNL     1     -43.723 -47.839   7.700  1.00  0.00    -0.268 OA
ENDBRANCH  15  17
ENDBRANCH   9  10
ENDBRANCH   1   9
BRANCH   6  22
HETATM   22  C   UNL     1     -43.535 -53.003  12.778  1.00  0.00     0.086 C 
HETATM   23  C   UNL     1     -45.038 -52.947  12.508  1.00  0.00     0.025 C 
HETATM   24  C   UNL     1     -45.878 -53.479  13.663  1.00  0.00     0.002 C 
HETATM   25  C   UNL     1     -45.413 -54.861  14.110  1.00  0.00     0.000 C 
HETATM   26  C   UNL     1     -43.933 -54.864  14.469  1.00  0.00     0.002 C 
HETATM   27  C   UNL     1     -43.083 -54.374  13.301  1.00  0.00     0.025 C 
ENDBRANCH   6  22
TORSDOF 4
ENDMDL
MODEL 5
REMARK VINA RESULT:      -6.4      1.781      3.508
REMARK  4 active torsions:
REMARK  status: ('A' for Active; 'I' for Inactive)
REMARK       I    between atoms: N_2  and  C_3 
REMARK    1  A    between atoms: C_3  and  C_5 
REMARK    2  A    between atoms: N_10  and  C_11 
REMARK    3  A    between atoms: C_11  and  C_12 
REMARK       I    between atoms: C_12  and  N_14 
REMARK       I    between atoms: N_14  and  C_15 
REMARK       I    between atoms: C_15  and  N_17 
REMARK    4  A    between atoms: N_17  and  C_18 
ROOT
HETATM    1  C   UNL     1     -41.337 -48.658  11.033  1.00  0.00     0.243 C 
HETATM    2  O   UNL     1     -41.424 -47.670  10.301  1.00  0.00    -0.271 OA
HETATM    3  N   UNL     1     -42.502 -49.221  11.524  1.00  0.00    -0.278 N 
HETATM    4  C   UNL     1     -42.586 -50.032  12.622  1.00  0.00     0.323 C 
HETATM    5  O   UNL     1     -41.630 -50.391  13.288  1.00  0.00    -0.247 OA
HETATM    6  N   UNL     1     -43.853 -50.507  12.869  1.00  0.00    -0.338 N 
HETATM    7  H   UNL     1     -43.343 -48.793  11.173  1.00  0.00     0.173 HD
HETATM    8  H   UNL     1     -44.639 -49.903  12.672  1.00  0.00     0.164 HD
ENDROOT
BRANCH   1   9
HETATM    9  C   UNL     1     -39.983 -49.217  11.490  1.00  0.00     0.234 C 
BRANCH   9  10
HETATM   10  N   UNL     1     -39.238 -48.493  12.526  1.00  0.00    -0.315 N 
HETATM   11  C   UNL     1     -38.281 -49.233  13.219  1.00  0.00     0.247 A 
HETATM   12  C   UNL     1     -37.518 -48.500  14.264  1.00  0.00     0.075 A 
HETATM   13  O   UNL     1     -38.026 -50.417  13.019  1.00  0.00    -0.268 OA
HETATM   14  C   UNL     1     -37.779 -47.211  14.517  1.00  0.00     0.024 A 
HETATM   15  C   UNL     1     -38.811 -46.508  13.785  1.00  0.00     0.047 A 
HETATM   16  C   UNL     1     -39.520 -47.170  12.854  1.00  0.00     0.111 A 
BRANCH  15  17
HETATM   17  C   UNL     1     -39.146 -45.066  14.031  1.00  0.00     0.252 C 
HETATM   18  N   UNL     1     -39.327 -44.324  12.885  1.00  0.00    -0.361 N 
HETATM   19  C   UNL     1     -39.739 -42.944  12.945  1.00  0.00     0.149 C 
HETATM   20  H   UNL     1     -39.381 -44.795  11.994  1.00  0.00     0.162 HD
HETATM   21  O   UNL     1     -39.296 -44.614  15.160  1.00  0.00    -0.268 OA
ENDBRANCH  15  17
ENDBRANCH   9  10
ENDBRANCH   1   9
BRANCH   6  22
HETATM   22  C   UNL     1     -43.993 -51.483  13.953  1.00  0.00     0.086 C 
HETATM   23  C   UNL     1     -44.172 -52.908  13.429  1.00  0.00     0.025 C 
HETATM   24  C   UNL     1     -45.585 -53.197  12.936  1.00  0.00     0.002 C 
HETATM   25  C   UNL     1     -46.634 -52.817  13.976  1.00  0.00     0.000 C 
HETATM   26  C   UNL     1     -46.496 -51.362  14.406  1.00  0.00     0.002 C 
HETATM   27  C   UNL     1     -45.096 -51.079  14.942  1.00  0.00     0.025 C 
ENDBRANCH   6  22
TORSDOF 4
ENDMDL
MODEL 6
REMARK VINA RESULT:      -6.4      2.926      7.180
REMARK  4 active torsions:
REMARK  status: ('A' for Active; 'I' for Inactive)
REMARK       I    between atoms: N_2  and  C_3 
REMARK    1  A    between atoms: C_3  and  C_5 
REMARK    2  A    between atoms: N_10  and  C_11 
REMARK    3  A    between atoms: C_11  and  C_12 
REMARK       I    between atoms: C_12  and  N_14 
REMARK       I    between atoms: N_14  and  C_15 
REMARK       I    between atoms: C_15  and  N_17 
REMARK    4  A    between atoms: N_17  and  C_18 
ROOT
HETATM    1  C   UNL     1     -39.517 -50.012  13.516  1.00  0.00     0.243 C 
HETATM    2  O   UNL     1     -39.226 -50.323  14.673  1.00  0.00    -0.271 OA
HETATM    3  N   UNL     1     -39.618 -48.669  13.198  1.00  0.00    -0.278 N 
HETATM    4  C   UNL     1     -40.293 -48.159  12.124  1.00  0.00     0.323 C 
HETATM    5  O   UNL     1     -40.863 -48.835  11.284  1.00  0.00    -0.247 OA
HETATM    6  N   UNL     1     -40.195 -46.792  12.000  1.00  0.00    -0.338 N 
HETATM    7  H   UNL     1     -39.374 -48.050  13.955  1.00  0.00     0.173 HD
HETATM    8  H   UNL     1     -40.168 -46.235  12.843  1.00  0.00     0.164 HD
ENDROOT
BRANCH   1   9
HETATM    9  C   UNL     1     -39.859 -51.062  12.451  1.00  0.00     0.234 C 
BRANCH   9  10
HETATM   10  N   UNL     1     -40.731 -52.181  12.825  1.00  0.00    -0.315 N 
HETATM   11  C   UNL     1     -40.094 -53.299  13.361  1.00  0.00     0.247 A 
HETATM   12  C   UNL     1     -40.976 -54.432  13.749  1.00  0.00     0.075 A 
HETATM   13  O   UNL     1     -38.884 -53.402  13.539  1.00  0.00    -0.268 OA
HETATM   14  C   UNL     1     -42.300 -54.359  13.557  1.00  0.00     0.024 A 
HETATM   15  C   UNL     1     -42.897 -53.181  12.963  1.00  0.00     0.047 A 
HETATM   16  C   UNL     1     -42.103 -52.162  12.589  1.00  0.00     0.111 A 
BRANCH  15  17
HETATM   17  C   UNL     1     -44.372 -53.050  12.722  1.00  0.00     0.252 C 
HETATM   18  N   UNL     1     -44.860 -51.773  12.887  1.00  0.00    -0.361 N 
HETATM   19  C   UNL     1     -46.238 -51.456  12.609  1.00  0.00     0.149 C 
HETATM   20  H   UNL     1     -44.212 -51.006  12.996  1.00  0.00     0.162 HD
HETATM   21  O   UNL     1     -45.061 -53.995  12.357  1.00  0.00    -0.268 OA
ENDBRANCH  15  17
ENDBRANCH   9  10
ENDBRANCH   1   9
BRANCH   6  22
HETATM   22  C   UNL     1     -40.786 -46.193  10.802  1.00  0.00     0.086 C 
HETATM   23  C   UNL     1     -39.925 -45.066  10.233  1.00  0.00     0.025 C 
HETATM   24  C   UNL     1     -40.063 -43.756  11.001  1.00  0.00     0.002 C 
HETATM   25  C   UNL     1     -41.525 -43.352  11.169  1.00  0.00     0.000 C 
HETATM   26  C   UNL     1     -42.339 -44.457  11.830  1.00  0.00     0.002 C 
HETATM   27  C   UNL     1     -42.239 -45.759  11.040  1.00  0.00     0.025 C 
ENDBRANCH   6  22
TORSDOF 4
ENDMDL
MODEL 7
REMARK VINA RESULT:      -6.2      3.749      6.901
REMARK  4 active torsions:
REMARK  status: ('A' for Active; 'I' for Inactive)
REMARK       I    between atoms: N_2  and  C_3 
REMARK    1  A    between atoms: C_3  and  C_5 
REMARK    2  A    between atoms: N_10  and  C_11 
REMARK    3  A    between atoms: C_11  and  C_12 
REMARK       I    between atoms: C_12  and  N_14 
REMARK       I    between atoms: N_14  and  C_15 
REMARK       I    between atoms: C_15  and  N_17 
REMARK    4  A    between atoms: N_17  and  C_18 
ROOT
HETATM    1  C   UNL     1     -40.910 -51.656  12.651  1.00  0.00     0.243 C 
HETATM    2  O   UNL     1     -39.937 -52.349  12.351  1.00  0.00    -0.271 OA
HETATM    3  N   UNL     1     -41.355 -50.713  11.742  1.00  0.00    -0.278 N 
HETATM    4  C   UNL     1     -42.129 -49.627  12.044  1.00  0.00     0.323 C 
HETATM    5  O   UNL     1     -42.557 -49.374  13.157  1.00  0.00    -0.247 OA
HETATM    6  N   UNL     1     -42.483 -48.871  10.950  1.00  0.00    -0.338 N 
HETATM    7  H   UNL     1     -40.862 -50.727  10.864  1.00  0.00     0.173 HD
HETATM    8  H   UNL     1     -41.816 -48.776  10.197  1.00  0.00     0.164 HD
ENDROOT
BRANCH   1   9
HETATM    9  C   UNL     1     -41.578 -51.742  14.030  1.00  0.00     0.234 C 
BRANCH   9  10
HETATM   10  N   UNL     1     -41.907 -53.066  14.569  1.00  0.00    -0.315 N 
HETATM   11  C   UNL     1     -43.187 -53.540  14.284  1.00  0.00     0.247 A 
HETATM   12  C   UNL     1     -43.521 -54.886  14.821  1.00  0.00     0.075 A 
HETATM   13  O   UNL     1     -44.030 -52.937  13.625  1.00  0.00    -0.268 OA
HETATM   14  C   UNL     1     -42.630 -55.566  15.554  1.00  0.00     0.024 A 
HETATM   15  C   UNL     1     -41.327 -55.002  15.843  1.00  0.00     0.047 A 
HETATM   16  C   UNL     1     -41.026 -53.776  15.380  1.00  0.00     0.111 A 
BRANCH  15  17
HETATM   17  C   UNL     1     -40.295 -55.719  16.662  1.00  0.00     0.252 C 
HETATM   18  N   UNL     1     -40.584 -57.044  16.903  1.00  0.00    -0.361 N 
HETATM   19  C   UNL     1     -39.655 -57.898  17.599  1.00  0.00     0.149 C 
HETATM   20  H   UNL     1     -41.350 -57.481  16.411  1.00  0.00     0.162 HD
HETATM   21  O   UNL     1     -39.260 -55.175  17.031  1.00  0.00    -0.268 OA
ENDBRANCH  15  17
ENDBRANCH   9  10
ENDBRANCH   1   9
BRANCH   6  22
HETATM   22  C   UNL     1     -43.416 -47.767  11.183  1.00  0.00     0.086 C 
HETATM   23  C   UNL     1     -44.575 -47.768  10.186  1.00  0.00     0.025 C 
HETATM   24  C   UNL     1     -44.196 -47.209   8.820  1.00  0.00     0.002 C 
HETATM   25  C   UNL     1     -43.522 -45.845   8.936  1.00  0.00     0.000 C 
HETATM   26  C   UNL     1     -42.310 -45.896   9.857  1.00  0.00     0.002 C 
HETATM   27  C   UNL     1     -42.693 -46.414  11.240  1.00  0.00     0.025 C 
ENDBRANCH   6  22
TORSDOF 4
ENDMDL
MODEL 8
REMARK VINA RESULT:      -6.1      2.637      4.187
REMARK  4 active torsions:
REMARK  status: ('A' for Active; 'I' for Inactive)
REMARK       I    between atoms: N_2  and  C_3 
REMARK    1  A    between atoms: C_3  and  C_5 
REMARK    2  A    between atoms: N_10  and  C_11 
REMARK    3  A    between atoms: C_11  and  C_12 
REMARK       I    between atoms: C_12  and  N_14 
REMARK       I    between atoms: N_14  and  C_15 
REMARK       I    between atoms: C_15  and  N_17 
REMARK    4  A    between atoms: N_17  and  C_18 
ROOT
HETATM    1  C   UNL     1     -41.705 -48.277  10.865  1.00  0.00     0.243 C 
HETATM    2  O   UNL     1     -41.950 -47.489   9.950  1.00  0.00    -0.271 OA
HETATM    3  N   UNL     1     -42.714 -49.119  11.299  1.00  0.00    -0.278 N 
HETATM    4  C   UNL     1     -42.751 -49.749  12.512  1.00  0.00     0.323 C 
HETATM    5  O   UNL     1     -41.873 -49.673  13.355  1.00  0.00    -0.247 OA
HETATM    6  N   UNL     1     -43.838 -50.576  12.679  1.00  0.00    -0.338 N 
HETATM    7  H   UNL     1     -43.565 -49.048  10.764  1.00  0.00     0.173 HD
HETATM    8  H   UNL     1     -44.719 -50.301  12.267  1.00  0.00     0.164 HD
ENDROOT
BRANCH   1   9
HETATM    9  C   UNL     1     -40.355 -48.287  11.594  1.00  0.00     0.234 C 
BRANCH   9  10
HETATM   10  N   UNL     1     -39.907 -47.057  12.255  1.00  0.00    -0.315 N 
HETATM   11  C   UNL     1     -39.120 -47.227  13.394  1.00  0.00     0.247 A 
HETATM   12  C   UNL     1     -38.656 -45.982  14.061  1.00  0.00     0.075 A 
HETATM   13  O   UNL     1     -38.784 -48.312  13.861  1.00  0.00    -0.268 OA
HETATM   14  C   UNL     1     -39.013 -44.782  13.586  1.00  0.00     0.024 A 
HETATM   15  C   UNL     1     -39.862 -44.673  12.418  1.00  0.00     0.047 A 
HETATM   16  C   UNL     1     -40.304 -45.795  11.822  1.00  0.00     0.111 A 
BRANCH  15  17
HETATM   17  C   UNL     1     -40.295 -43.355  11.847  1.00  0.00     0.252 C 
HETATM   18  N   UNL     1     -40.088 -42.280  12.684  1.00  0.00    -0.361 N 
HETATM   19  C   UNL     1     -40.366 -40.934  12.256  1.00  0.00     0.149 C 
HETATM   20  H   UNL     1     -39.540 -42.406  13.524  1.00  0.00     0.162 HD
HETATM   21  O   UNL     1     -40.742 -43.250  10.711  1.00  0.00    -0.268 OA
ENDBRANCH  15  17
ENDBRANCH   9  10
ENDBRANCH   1   9
BRANCH   6  22
HETATM   22  C   UNL     1     -43.875 -51.379  13.903  1.00  0.00     0.086 C 
HETATM   23  C   UNL     1     -43.935 -52.878  13.610  1.00  0.00     0.025 C 
HETATM   24  C   UNL     1     -45.324 -53.359  13.208  1.00  0.00     0.002 C 
HETATM   25  C   UNL     1     -46.387 -52.912  14.208  1.00  0.00     0.000 C 
HETATM   26  C   UNL     1     -46.371 -51.402  14.405  1.00  0.00     0.002 C 
HETATM   27  C   UNL     1     -44.993 -50.921  14.850  1.00  0.00     0.025 C 
ENDBRANCH   6  22
TORSDOF 4
ENDMDL
MODEL 9
REMARK VINA RESULT:      -6.0      3.137      7.197
REMARK  4 active torsions:
REMARK  status: ('A' for Active; 'I' for Inactive)
REMARK       I    between atoms: N_2  and  C_3 
REMARK    1  A    between atoms: C_3  and  C_5 
REMARK    2  A    between atoms: N_10  and  C_11 
REMARK    3  A    between atoms: C_11  and  C_12 
REMARK       I    between atoms: C_12  and  N_14 
REMARK       I    between atoms: N_14  and  C_15 
REMARK       I    between atoms: C_15  and  N_17 
REMARK    4  A    between atoms: N_17  and  C_18 
ROOT
HETATM    1  C   UNL     1     -40.387 -49.415  11.638  1.00  0.00     0.243 C 
HETATM    2  O   UNL     1     -40.053 -50.048  10.635  1.00  0.00    -0.271 OA
HETATM    3  N   UNL     1     -40.505 -48.040  11.543  1.00  0.00    -0.278 N 
HETATM    4  C   UNL     1     -40.472 -47.169  12.597  1.00  0.00     0.323 C 
HETATM    5  O   UNL     1     -40.371 -47.504  13.765  1.00  0.00    -0.247 OA
HETATM    6  N   UNL     1     -40.667 -45.854  12.241  1.00  0.00    -0.338 N 
HETATM    7  H   UNL     1     -40.362 -47.680  10.613  1.00  0.00     0.173 HD
HETATM    8  H   UNL     1     -40.292 -45.535  11.358  1.00  0.00     0.164 HD
ENDROOT
BRANCH   1   9
HETATM    9  C   UNL     1     -40.581 -50.093  13.001  1.00  0.00     0.234 C 
BRANCH   9  10
HETATM   10  N   UNL     1     -41.104 -51.462  13.035  1.00  0.00    -0.315 N 
HETATM   11  C   UNL     1     -40.163 -52.470  13.248  1.00  0.00     0.247 A 
HETATM   12  C   UNL     1     -40.691 -53.859  13.292  1.00  0.00     0.075 A 
HETATM   13  O   UNL     1     -38.960 -52.286  13.409  1.00  0.00    -0.268 OA
HETATM   14  C   UNL     1     -41.996 -54.097  13.108  1.00  0.00     0.024 A 
HETATM   15  C   UNL     1     -42.917 -53.009  12.857  1.00  0.00     0.047 A 
HETATM   16  C   UNL     1     -42.444 -51.751  12.793  1.00  0.00     0.111 A 
BRANCH  15  17
HETATM   17  C   UNL     1     -44.387 -53.220  12.640  1.00  0.00     0.252 C 
HETATM   18  N   UNL     1     -45.118 -52.056  12.550  1.00  0.00    -0.361 N 
HETATM   19  C   UNL     1     -46.528 -52.079  12.255  1.00  0.00     0.149 C 
HETATM   20  H   UNL     1     -44.634 -51.172  12.476  1.00  0.00     0.162 HD
HETATM   21  O   UNL     1     -44.873 -54.336  12.502  1.00  0.00    -0.268 OA
ENDBRANCH  15  17
ENDBRANCH   9  10
ENDBRANCH   1   9
BRANCH   6  22
HETATM   22  C   UNL     1     -40.772 -44.883  13.332  1.00  0.00     0.086 C 
HETATM   23  C   UNL     1     -42.209 -44.410  13.551  1.00  0.00     0.025 C 
HETATM   24  C   UNL     1     -42.663 -43.372  12.533  1.00  0.00     0.002 C 
HETATM   25  C   UNL     1     -41.674 -42.215  12.426  1.00  0.00     0.000 C 
HETATM   26  C   UNL     1     -40.268 -42.708  12.109  1.00  0.00     0.002 C 
HETATM   27  C   UNL     1     -39.791 -43.715  13.150  1.00  0.00     0.025 C 
ENDBRANCH   6  22
TORSDOF 4
ENDMDL
