MODEL 1
REMARK VINA RESULT:      -6.0      0.000      0.000
REMARK  4 active torsions:
REMARK  status: ('A' for Active; 'I' for Inactive)
REMARK    1  A    between atoms: C_2  and  S_3 
REMARK    2  A    between atoms: S_3  and  C_4 
REMARK    3  A    between atoms: C_8  and  N_10 
REMARK       I    between atoms: N_10  and  C_11 
REMARK       I    between atoms: C_11  and  N_13 
REMARK    4  A    between atoms: N_13  and  C_14 
ROOT
HETATM    1  N   UNL     1     -40.384 -47.333  11.127  1.00  0.00    -0.338 N 
HETATM    2  C   UNL     1     -41.563 -47.864  10.640  1.00  0.00     0.321 C 
HETATM    3  O   UNL     1     -42.089 -48.842  11.159  1.00  0.00    -0.247 OA
HETATM    4  N   UNL     1     -42.082 -47.171   9.575  1.00  0.00    -0.306 N 
HETATM    5  H   UNL     1     -39.760 -46.968  10.424  1.00  0.00     0.164 HD
HETATM    6  H   UNL     1     -41.568 -46.400   9.180  1.00  0.00     0.171 HD
ENDROOT
BRANCH   1   7
HETATM    7  C   UNL     1     -39.779 -47.985  12.296  1.00  0.00     0.087 C 
HETATM    8  C   UNL     1     -39.217 -46.936  13.273  1.00  0.00     0.025 C 
HETATM    9  C   UNL     1     -38.642 -47.597  14.518  1.00  0.00     0.003 C 
HETATM   10  C   UNL     1     -37.550 -48.599  14.151  1.00  0.00     0.015 C 
HETATM   11  C   UNL     1     -37.994 -49.642  13.108  1.00  0.00     0.049 C 
HETATM   12  C   UNL     1     -38.664 -48.963  11.897  1.00  0.00     0.040 C 
BRANCH  11  13
HETATM   13  S   UNL     1     -39.046 -50.904  13.949  1.00  0.00    -0.165 SA
BRANCH  13  14
HETATM   14  C   UNL     1     -40.046 -51.571  12.577  1.00  0.00     0.070 C 
HETATM   15  C   UNL     1     -41.482 -51.890  12.949  1.00  0.00     0.016 C 
ENDBRANCH  13  14
ENDBRANCH  11  13
ENDBRANCH   1   7
BRANCH   4  16
HETATM   16  C   UNL     1     -43.326 -47.475   9.038  1.00  0.00     0.070 A 
HETATM   17  C   UNL     1     -43.669 -48.002   7.770  1.00  0.00     0.138 A 
HETATM   18  N   UNL     1     -44.987 -48.159   7.618  1.00  0.00    -0.308 N 
HETATM   19  N   UNL     1     -45.488 -47.728   8.785  1.00  0.00    -0.306 N 
ATOM     20  HN  UNL     1     -45.491 -48.521   6.809  1.00  0.00     0.186 HD
HETATM   21  C   UNL     1     -46.918 -47.709   8.972  1.00  0.00     0.177 C 
HETATM   22  C   UNL     1     -44.534 -47.328   9.682  1.00  0.00     0.140 A 
ENDBRANCH   4  16
TORSDOF 4
ENDMDL
MODEL 2
REMARK VINA RESULT:      -5.9      3.559      6.287
REMARK  4 active torsions:
REMARK  status: ('A' for Active; 'I' for Inactive)
REMARK    1  A    between atoms: C_2  and  S_3 
REMARK    2  A    between atoms: S_3  and  C_4 
REMARK    3  A    between atoms: C_8  and  N_10 
REMARK       I    between atoms: N_10  and  C_11 
REMARK       I    between atoms: C_11  and  N_13 
REMARK    4  A    between atoms: N_13  and  C_14 
ROOT
HETATM    1  N   UNL     1     -41.978 -52.511  12.163  1.00  0.00    -0.338 N 
HETATM    2  C   UNL     1     -41.896 -51.132  12.142  1.00  0.00     0.321 C 
HETATM    3  O   UNL     1     -42.579 -50.437  12.885  1.00  0.00    -0.247 OA
HETATM    4  N   UNL     1     -40.965 -50.648  11.257  1.00  0.00    -0.306 N 
HETATM    5  H   UNL     1     -41.872 -52.957  11.264  1.00  0.00     0.164 HD
HETATM    6  H   UNL     1     -40.471 -51.283  10.650  1.00  0.00     0.171 HD
ENDROOT
BRANCH   1   7
HETATM    7  C   UNL     1     -42.917 -53.120  13.113  1.00  0.00     0.087 C 
HETATM    8  C   UNL     1     -42.252 -54.290  13.861  1.00  0.00     0.025 C 
HETATM    9  C   UNL     1     -43.197 -54.890  14.894  1.00  0.00     0.003 C 
HETATM   10  C   UNL     1     -44.493 -55.364  14.240  1.00  0.00     0.015 C 
HETATM   11  C   UNL     1     -45.190 -54.282  13.394  1.00  0.00     0.049 C 
HETATM   12  C   UNL     1     -44.196 -53.614  12.422  1.00  0.00     0.040 C 
BRANCH  11  13
HETATM   13  S   UNL     1     -46.045 -53.106  14.532  1.00  0.00    -0.165 SA
BRANCH  13  14
HETATM   14  C   UNL     1     -46.089 -51.566  13.557  1.00  0.00     0.070 C 
HETATM   15  C   UNL     1     -46.928 -51.649  12.295  1.00  0.00     0.016 C 
ENDBRANCH  13  14
ENDBRANCH  11  13
ENDBRANCH   1   7
BRANCH   4  16
HETATM   16  C   UNL     1     -40.648 -49.298  11.191  1.00  0.00     0.070 A 
HETATM   17  C   UNL     1     -39.498 -48.606  11.640  1.00  0.00     0.138 A 
HETATM   18  N   UNL     1     -39.558 -47.294  11.395  1.00  0.00    -0.308 N 
HETATM   19  N   UNL     1     -40.749 -47.144  10.796  1.00  0.00    -0.306 N 
ATOM     20  HN  UNL     1     -38.866 -46.578  11.613  1.00  0.00     0.186 HD
HETATM   21  C   UNL     1     -41.185 -45.822  10.419  1.00  0.00     0.177 C 
HETATM   22  C   UNL     1     -41.434 -48.318  10.627  1.00  0.00     0.140 A 
ENDBRANCH   4  16
TORSDOF 4
ENDMDL
MODEL 3
REMARK VINA RESULT:      -5.9      1.527      2.134
REMARK  4 active torsions:
REMARK  status: ('A' for Active; 'I' for Inactive)
REMARK    1  A    between atoms: C_2  and  S_3 
REMARK    2  A    between atoms: S_3  and  C_4 
REMARK    3  A    between atoms: C_8  and  N_10 
REMARK       I    between atoms: N_10  and  C_11 
REMARK       I    between atoms: C_11  and  N_13 
REMARK    4  A    between atoms: N_13  and  C_14 
ROOT
HETATM    1  N   UNL     1     -40.455 -49.258  10.585  1.00  0.00    -0.338 N 
HETATM    2  C   UNL     1     -41.660 -48.584  10.636  1.00  0.00     0.321 C 
HETATM    3  O   UNL     1     -42.234 -48.375  11.698  1.00  0.00    -0.247 OA
HETATM    4  N   UNL     1     -42.104 -48.153   9.410  1.00  0.00    -0.306 N 
HETATM    5  H   UNL     1     -40.334 -49.852   9.779  1.00  0.00     0.164 HD
HETATM    6  H   UNL     1     -41.594 -48.401   8.577  1.00  0.00     0.171 HD
ENDROOT
BRANCH   1   7
HETATM    7  C   UNL     1     -39.881 -49.717  11.856  1.00  0.00     0.087 C 
HETATM    8  C   UNL     1     -38.373 -49.408  11.916  1.00  0.00     0.025 C 
HETATM    9  C   UNL     1     -37.779 -49.824  13.254  1.00  0.00     0.003 C 
HETATM   10  C   UNL     1     -38.014 -51.309  13.519  1.00  0.00     0.015 C 
HETATM   11  C   UNL     1     -39.490 -51.733  13.397  1.00  0.00     0.049 C 
HETATM   12  C   UNL     1     -40.106 -51.219  12.081  1.00  0.00     0.040 C 
BRANCH  11  13
HETATM   13  S   UNL     1     -40.386 -51.190  14.917  1.00  0.00    -0.165 SA
BRANCH  13  14
HETATM   14  C   UNL     1     -41.234 -52.714  15.448  1.00  0.00     0.070 C 
HETATM   15  C   UNL     1     -41.021 -53.902  14.527  1.00  0.00     0.016 C 
ENDBRANCH  13  14
ENDBRANCH  11  13
ENDBRANCH   1   7
BRANCH   4  16
HETATM   16  C   UNL     1     -43.226 -47.346   9.278  1.00  0.00     0.070 A 
HETATM   17  C   UNL     1     -43.340 -45.936   9.248  1.00  0.00     0.138 A 
HETATM   18  N   UNL     1     -44.603 -45.525   9.105  1.00  0.00    -0.308 N 
HETATM   19  N   UNL     1     -45.298 -46.670   9.050  1.00  0.00    -0.306 N 
ATOM     20  HN  UNL     1     -44.954 -44.569   9.051  1.00  0.00     0.186 HD
HETATM   21  C   UNL     1     -46.735 -46.615   8.941  1.00  0.00     0.177 C 
HETATM   22  C   UNL     1     -44.519 -47.794   9.126  1.00  0.00     0.140 A 
ENDBRANCH   4  16
TORSDOF 4
ENDMDL
MODEL 4
REMARK VINA RESULT:      -5.9      2.711      4.120
REMARK  4 active torsions:
REMARK  status: ('A' for Active; 'I' for Inactive)
REMARK    1  A    between atoms: C_2  and  S_3 
REMARK    2  A    between atoms: S_3  and  C_4 
REMARK    3  A    between atoms: C_8  and  N_10 
REMARK       I    between atoms: N_10  and  C_11 
REMARK       I    between atoms: C_11  and  N_13 
REMARK    4  A    between atoms: N_13  and  C_14 
ROOT
HETATM    1  N   UNL     1     -40.643 -50.794  11.400  1.00  0.00    -0.338 N 
HETATM    2  C   UNL     1     -41.471 -49.691  11.483  1.00  0.00     0.321 C 
HETATM    3  O   UNL     1     -42.196 -49.505  12.454  1.00  0.00    -0.247 OA
HETATM    4  N   UNL     1     -41.362 -48.837  10.415  1.00  0.00    -0.306 N 
HETATM    5  H   UNL     1     -40.534 -51.175  10.472  1.00  0.00     0.164 HD
HETATM    6  H   UNL     1     -40.773 -49.081   9.635  1.00  0.00     0.171 HD
ENDROOT
BRANCH   1   7
HETATM    7  C   UNL     1     -40.660 -51.741  12.522  1.00  0.00     0.087 C 
HETATM    8  C   UNL     1     -39.320 -51.711  13.280  1.00  0.00     0.025 C 
HETATM    9  C   UNL     1     -39.347 -52.644  14.482  1.00  0.00     0.003 C 
HETATM   10  C   UNL     1     -39.668 -54.075  14.058  1.00  0.00     0.015 C 
HETATM   11  C   UNL     1     -40.953 -54.196  13.216  1.00  0.00     0.049 C 
HETATM   12  C   UNL     1     -40.955 -53.176  12.060  1.00  0.00     0.040 C 
BRANCH  11  13
HETATM   13  S   UNL     1     -42.409 -54.069  14.343  1.00  0.00    -0.165 SA
BRANCH  13  14
HETATM   14  C   UNL     1     -43.807 -53.944  13.179  1.00  0.00     0.070 C 
HETATM   15  C   UNL     1     -45.047 -54.708  13.607  1.00  0.00     0.016 C 
ENDBRANCH  13  14
ENDBRANCH  11  13
ENDBRANCH   1   7
BRANCH   4  16
HETATM   16  C   UNL     1     -42.016 -47.612  10.385  1.00  0.00     0.070 A 
HETATM   17  C   UNL     1     -43.252 -47.250   9.798  1.00  0.00     0.138 A 
HETATM   18  N   UNL     1     -43.551 -45.962   9.983  1.00  0.00    -0.308 N 
HETATM   19  N   UNL     1     -42.506 -45.497  10.682  1.00  0.00    -0.306 N 
ATOM     20  HN  UNL     1     -44.377 -45.453   9.667  1.00  0.00     0.186 HD
HETATM   21  C   UNL     1     -42.460 -44.098  11.032  1.00  0.00     0.177 C 
HETATM   22  C   UNL     1     -41.566 -46.450  10.971  1.00  0.00     0.140 A 
ENDBRANCH   4  16
TORSDOF 4
ENDMDL
MODEL 5
REMARK VINA RESULT:      -5.8      3.352      5.882
REMARK  4 active torsions:
REMARK  status: ('A' for Active; 'I' for Inactive)
REMARK    1  A    between atoms: C_2  and  S_3 
REMARK    2  A    between atoms: S_3  and  C_4 
REMARK    3  A    between atoms: C_8  and  N_10 
REMARK       I    between atoms: N_10  and  C_11 
REMARK       I    between atoms: C_11  and  N_13 
REMARK    4  A    between atoms: N_13  and  C_14 
ROOT
HETATM    1  N   UNL     1     -41.601 -52.170  12.330  1.00  0.00    -0.338 N 
HETATM    2  C   UNL     1     -41.817 -50.810  12.205  1.00  0.00     0.321 C 
HETATM    3  O   UNL     1     -42.535 -50.200  12.989  1.00  0.00    -0.247 OA
HETATM    4  N   UNL     1     -41.126 -50.235  11.168  1.00  0.00    -0.306 N 
HETATM    5  H   UNL     1     -41.515 -52.668  11.458  1.00  0.00     0.164 HD
HETATM    6  H   UNL     1     -40.588 -50.812  10.542  1.00  0.00     0.171 HD
ENDROOT
BRANCH   1   7
HETATM    7  C   UNL     1     -42.265 -52.862  13.442  1.00  0.00     0.087 C 
HETATM    8  C   UNL     1     -41.306 -53.868  14.106  1.00  0.00     0.025 C 
HETATM    9  C   UNL     1     -41.963 -54.548  15.299  1.00  0.00     0.003 C 
HETATM   10  C   UNL     1     -43.250 -55.256  14.885  1.00  0.00     0.015 C 
HETATM   11  C   UNL     1     -44.242 -54.348  14.133  1.00  0.00     0.049 C 
HETATM   12  C   UNL     1     -43.538 -53.591  12.989  1.00  0.00     0.040 C 
BRANCH  11  13
HETATM   13  S   UNL     1     -45.087 -53.257  15.359  1.00  0.00    -0.165 SA
BRANCH  13  14
HETATM   14  C   UNL     1     -46.631 -52.809  14.498  1.00  0.00     0.070 C 
HETATM   15  C   UNL     1     -46.579 -51.475  13.777  1.00  0.00     0.016 C 
ENDBRANCH  13  14
ENDBRANCH  11  13
ENDBRANCH   1   7
BRANCH   4  16
HETATM   16  C   UNL     1     -41.114 -48.861  10.967  1.00  0.00     0.070 A 
HETATM   17  C   UNL     1     -41.961 -48.044  10.181  1.00  0.00     0.138 A 
HETATM   18  N   UNL     1     -41.631 -46.752  10.242  1.00  0.00    -0.308 N 
HETATM   19  N   UNL     1     -40.569 -46.740  11.062  1.00  0.00    -0.306 N 
ATOM     20  HN  UNL     1     -42.078 -45.962   9.777  1.00  0.00     0.186 HD
HETATM   21  C   UNL     1     -39.903 -45.490  11.332  1.00  0.00     0.177 C 
HETATM   22  C   UNL     1     -40.231 -47.976  11.544  1.00  0.00     0.140 A 
ENDBRANCH   4  16
TORSDOF 4
ENDMDL
MODEL 6
REMARK VINA RESULT:      -5.3      3.764      5.813
REMARK  4 active torsions:
REMARK  status: ('A' for Active; 'I' for Inactive)
REMARK    1  A    between atoms: C_2  and  S_3 
REMARK    2  A    between atoms: S_3  and  C_4 
REMARK    3  A    between atoms: C_8  and  N_10 
REMARK       I    between atoms: N_10  and  C_11 
REMARK       I    between atoms: C_11  and  N_13 
REMARK    4  A    between atoms: N_13  and  C_14 
ROOT
HETATM    1  N   UNL     1     -41.485 -50.071  11.182  1.00  0.00    -0.338 N 
HETATM    2  C   UNL     1     -42.046 -50.841  12.183  1.00  0.00     0.321 C 
HETATM    3  O   UNL     1     -42.460 -50.340  13.222  1.00  0.00    -0.247 OA
HETATM    4  N   UNL     1     -42.124 -52.176  11.874  1.00  0.00    -0.306 N 
HETATM    5  H   UNL     1     -40.724 -50.508  10.686  1.00  0.00     0.164 HD
HETATM    6  H   UNL     1     -41.724 -52.516  11.015  1.00  0.00     0.171 HD
ENDROOT
BRANCH   1   7
HETATM    7  C   UNL     1     -41.402 -48.622  11.408  1.00  0.00     0.087 C 
HETATM    8  C   UNL     1     -41.968 -47.850  10.201  1.00  0.00     0.025 C 
HETATM    9  C   UNL     1     -41.944 -46.348  10.449  1.00  0.00     0.003 C 
HETATM   10  C   UNL     1     -40.527 -45.867  10.753  1.00  0.00     0.015 C 
HETATM   11  C   UNL     1     -39.842 -46.641  11.895  1.00  0.00     0.049 C 
HETATM   12  C   UNL     1     -39.962 -48.163  11.680  1.00  0.00     0.040 C 
BRANCH  11  13
HETATM   13  S   UNL     1     -40.526 -46.045  13.503  1.00  0.00    -0.165 SA
BRANCH  13  14
HETATM   14  C   UNL     1     -39.802 -47.212  14.703  1.00  0.00     0.070 C 
HETATM   15  C   UNL     1     -38.315 -47.020  14.941  1.00  0.00     0.016 C 
ENDBRANCH  13  14
ENDBRANCH  11  13
ENDBRANCH   1   7
BRANCH   4  16
HETATM   16  C   UNL     1     -42.776 -53.083  12.699  1.00  0.00     0.070 A 
HETATM   17  C   UNL     1     -42.308 -53.787  13.833  1.00  0.00     0.138 A 
HETATM   18  N   UNL     1     -43.241 -54.579  14.369  1.00  0.00    -0.308 N 
HETATM   19  N   UNL     1     -44.305 -54.387  13.574  1.00  0.00    -0.306 N 
ATOM     20  HN  UNL     1     -43.164 -55.184  15.186  1.00  0.00     0.186 HD
HETATM   21  C   UNL     1     -45.515 -55.130  13.827  1.00  0.00     0.177 C 
HETATM   22  C   UNL     1     -44.088 -53.482  12.570  1.00  0.00     0.140 A 
ENDBRANCH   4  16
TORSDOF 4
ENDMDL
MODEL 7
REMARK VINA RESULT:      -5.1      3.936      5.433
REMARK  4 active torsions:
REMARK  status: ('A' for Active; 'I' for Inactive)
REMARK    1  A    between atoms: C_2  and  S_3 
REMARK    2  A    between atoms: S_3  and  C_4 
REMARK    3  A    between atoms: C_8  and  N_10 
REMARK       I    between atoms: N_10  and  C_11 
REMARK       I    between atoms: C_11  and  N_13 
REMARK    4  A    between atoms: N_13  and  C_14 
ROOT
HETATM    1  N   UNL     1     -41.255 -51.594  11.859  1.00  0.00    -0.338 N 
HETATM    2  C   UNL     1     -42.370 -51.882  12.623  1.00  0.00     0.321 C 
HETATM    3  O   UNL     1     -42.564 -51.340  13.705  1.00  0.00    -0.247 OA
HETATM    4  N   UNL     1     -43.225 -52.780  12.035  1.00  0.00    -0.306 N 
HETATM    5  H   UNL     1     -40.875 -52.376  11.349  1.00  0.00     0.164 HD
HETATM    6  H   UNL     1     -42.974 -53.213  11.160  1.00  0.00     0.171 HD
ENDROOT
BRANCH   1   7
HETATM    7  C   UNL     1     -40.306 -50.608  12.391  1.00  0.00     0.087 C 
HETATM    8  C   UNL     1     -39.728 -49.742  11.256  1.00  0.00     0.025 C 
HETATM    9  C   UNL     1     -38.789 -48.675  11.802  1.00  0.00     0.003 C 
HETATM   10  C   UNL     1     -37.651 -49.305  12.601  1.00  0.00     0.015 C 
HETATM   11  C   UNL     1     -38.130 -50.261  13.710  1.00  0.00     0.049 C 
HETATM   12  C   UNL     1     -39.157 -51.273  13.163  1.00  0.00     0.040 C 
BRANCH  11  13
HETATM   13  S   UNL     1     -38.741 -49.254  15.132  1.00  0.00    -0.165 SA
BRANCH  13  14
HETATM   14  C   UNL     1     -37.224 -48.974  16.105  1.00  0.00     0.070 C 
HETATM   15  C   UNL     1     -36.153 -50.032  15.912  1.00  0.00     0.016 C 
ENDBRANCH  13  14
ENDBRANCH  11  13
ENDBRANCH   1   7
BRANCH   4  16
HETATM   16  C   UNL     1     -44.459 -53.091  12.591  1.00  0.00     0.070 A 
HETATM   17  C   UNL     1     -45.736 -52.530  12.353  1.00  0.00     0.138 A 
HETATM   18  N   UNL     1     -46.694 -53.101  13.088  1.00  0.00    -0.308 N 
HETATM   19  N   UNL     1     -46.030 -54.023  13.801  1.00  0.00    -0.306 N 
ATOM     20  HN  UNL     1     -47.691 -52.887  13.104  1.00  0.00     0.186 HD
HETATM   21  C   UNL     1     -46.751 -54.823  14.760  1.00  0.00     0.177 C 
HETATM   22  C   UNL     1     -44.690 -54.076  13.525  1.00  0.00     0.140 A 
ENDBRANCH   4  16
TORSDOF 4
ENDMDL
MODEL 8
REMARK VINA RESULT:      -5.0      4.874      7.920
REMARK  4 active torsions:
REMARK  status: ('A' for Active; 'I' for Inactive)
REMARK    1  A    between atoms: C_2  and  S_3 
REMARK    2  A    between atoms: S_3  and  C_4 
REMARK    3  A    between atoms: C_8  and  N_10 
REMARK       I    between atoms: N_10  and  C_11 
REMARK       I    between atoms: C_11  and  N_13 
REMARK    4  A    between atoms: N_13  and  C_14 
ROOT
HETATM    1  N   UNL     1     -40.082 -52.383  13.549  1.00  0.00    -0.338 N 
HETATM    2  C   UNL     1     -39.665 -51.141  13.989  1.00  0.00     0.321 C 
HETATM    3  O   UNL     1     -40.450 -50.335  14.475  1.00  0.00    -0.247 OA
HETATM    4  N   UNL     1     -38.313 -50.937  13.866  1.00  0.00    -0.306 N 
HETATM    5  H   UNL     1     -39.603 -52.726  12.731  1.00  0.00     0.164 HD
HETATM    6  H   UNL     1     -37.739 -51.634  13.419  1.00  0.00     0.171 HD
ENDROOT
BRANCH   1   7
HETATM    7  C   UNL     1     -41.508 -52.706  13.684  1.00  0.00     0.087 C 
HETATM    8  C   UNL     1     -41.693 -54.143  14.206  1.00  0.00     0.025 C 
HETATM    9  C   UNL     1     -43.166 -54.469  14.408  1.00  0.00     0.003 C 
HETATM   10  C   UNL     1     -43.951 -54.284  13.112  1.00  0.00     0.015 C 
HETATM   11  C   UNL     1     -43.760 -52.899  12.465  1.00  0.00     0.049 C 
HETATM   12  C   UNL     1     -42.264 -52.541  12.357  1.00  0.00     0.040 C 
BRANCH  11  13
HETATM   13  S   UNL     1     -44.770 -51.669  13.400  1.00  0.00    -0.165 SA
BRANCH  13  14
HETATM   14  C   UNL     1     -46.478 -52.185  13.024  1.00  0.00     0.070 C 
HETATM   15  C   UNL     1     -47.017 -51.652  11.710  1.00  0.00     0.016 C 
ENDBRANCH  13  14
ENDBRANCH  11  13
ENDBRANCH   1   7
BRANCH   4  16
HETATM   16  C   UNL     1     -37.692 -49.804  14.376  1.00  0.00     0.070 A 
HETATM   17  C   UNL     1     -37.697 -48.470  13.905  1.00  0.00     0.138 A 
HETATM   18  N   UNL     1     -36.974 -47.651  14.673  1.00  0.00    -0.308 N 
HETATM   19  N   UNL     1     -36.501 -48.461  15.633  1.00  0.00    -0.306 N 
ATOM     20  HN  UNL     1     -36.818 -46.649  14.558  1.00  0.00     0.186 HD
HETATM   21  C   UNL     1     -35.623 -47.919  16.640  1.00  0.00     0.177 C 
HETATM   22  C   UNL     1     -36.921 -49.759  15.515  1.00  0.00     0.140 A 
ENDBRANCH   4  16
TORSDOF 4
ENDMDL
MODEL 9
REMARK VINA RESULT:      -4.9      3.319      5.911
REMARK  4 active torsions:
REMARK  status: ('A' for Active; 'I' for Inactive)
REMARK    1  A    between atoms: C_2  and  S_3 
REMARK    2  A    between atoms: S_3  and  C_4 
REMARK    3  A    between atoms: C_8  and  N_10 
REMARK       I    between atoms: N_10  and  C_11 
REMARK       I    between atoms: C_11  and  N_13 
REMARK    4  A    between atoms: N_13  and  C_14 
ROOT
HETATM    1  N   UNL     1     -40.898 -48.204  10.760  1.00  0.00    -0.338 N 
HETATM    2  C   UNL     1     -40.976 -49.214  11.699  1.00  0.00     0.321 C 
HETATM    3  O   UNL     1     -41.148 -48.973  12.888  1.00  0.00    -0.247 OA
HETATM    4  N   UNL     1     -40.887 -50.474  11.162  1.00  0.00    -0.306 N 
HETATM    5  H   UNL     1     -40.252 -48.374  10.005  1.00  0.00     0.164 HD
HETATM    6  H   UNL     1     -40.705 -50.588  10.178  1.00  0.00     0.171 HD
ENDROOT
BRANCH   1   7
HETATM    7  C   UNL     1     -41.030 -46.822  11.239  1.00  0.00     0.087 C 
HETATM    8  C   UNL     1     -42.202 -46.112  10.536  1.00  0.00     0.025 C 
HETATM    9  C   UNL     1     -42.387 -44.698  11.069  1.00  0.00     0.003 C 
HETATM   10  C   UNL     1     -41.110 -43.878  10.902  1.00  0.00     0.015 C 
HETATM   11  C   UNL     1     -39.861 -44.551  11.500  1.00  0.00     0.049 C 
HETATM   12  C   UNL     1     -39.741 -46.014  11.029  1.00  0.00     0.040 C 
BRANCH  11  13
HETATM   13  S   UNL     1     -39.903 -44.345  13.334  1.00  0.00    -0.165 SA
BRANCH  13  14
HETATM   14  C   UNL     1     -38.756 -45.640  13.909  1.00  0.00     0.070 C 
HETATM   15  C   UNL     1     -39.377 -46.649  14.859  1.00  0.00     0.016 C 
ENDBRANCH  13  14
ENDBRANCH  11  13
ENDBRANCH   1   7
BRANCH   4  16
HETATM   16  C   UNL     1     -41.076 -51.615  11.931  1.00  0.00     0.070 A 
HETATM   17  C   UNL     1     -42.239 -52.394  12.140  1.00  0.00     0.138 A 
HETATM   18  N   UNL     1     -42.025 -53.429  12.956  1.00  0.00    -0.308 N 
HETATM   19  N   UNL     1     -40.727 -53.310  13.275  1.00  0.00    -0.306 N 
ATOM     20  HN  UNL     1     -42.688 -54.140  13.263  1.00  0.00     0.186 HD
HETATM   21  C   UNL     1     -40.141 -54.252  14.197  1.00  0.00     0.177 C 
HETATM   22  C   UNL     1     -40.104 -52.252  12.669  1.00  0.00     0.140 A 
ENDBRANCH   4  16
TORSDOF 4
ENDMDL
