MODEL 1
REMARK VINA RESULT:      -5.9      0.000      0.000
REMARK  5 active torsions:
REMARK  status: ('A' for Active; 'I' for Inactive)
REMARK    1  A    between atoms: N_2  and  C_4 
REMARK    2  A    between atoms: C_10  and  N_11 
REMARK       I    between atoms: N_11  and  C_12 
REMARK    3  A    between atoms: C_12  and  C_14 
REMARK    4  A    between atoms: C_14  and  O_15 
REMARK    5  A    between atoms: O_15  and  C_16 
ROOT
HETATM    1  N   UNL     1     -41.747 -50.631  11.540  1.00  0.00    -0.323 N 
HETATM    2  C   UNL     1     -42.454 -51.054  12.657  1.00  0.00     0.245 C 
HETATM    3  O   UNL     1     -42.709 -50.345  13.627  1.00  0.00    -0.271 OA
HETATM    4  H   UNL     1     -41.239 -51.318  10.992  1.00  0.00     0.169 HD
ENDROOT
BRANCH   1   5
HETATM    5  C   UNL     1     -41.294 -49.306  11.376  1.00  0.00     0.073 A 
HETATM    6  C   UNL     1     -39.948 -48.974  11.656  1.00  0.00     0.108 A 
HETATM    7  N   UNL     1     -39.495 -47.711  11.449  1.00  0.00    -0.355 N 
HETATM    8  C   UNL     1     -40.359 -46.784  10.971  1.00  0.00     0.089 A 
ATOM      9  HN  UNL     1     -38.526 -47.465  11.650  1.00  0.00     0.166 HD
HETATM   10  C   UNL     1     -41.679 -47.044  10.659  1.00  0.00     0.019 A 
HETATM   11  C   UNL     1     -42.155 -48.326  10.871  1.00  0.00     0.034 A 
BRANCH   6  12
HETATM   12  N   UNL     1     -39.064 -49.953  12.195  1.00  0.00    -0.276 NA
HETATM   13  C   UNL     1     -37.771 -49.959  11.493  1.00  0.00     0.118 C 
HETATM   14  C   UNL     1     -38.920 -49.830  13.654  1.00  0.00     0.118 C 
ENDBRANCH   6  12
ENDBRANCH   1   5
BRANCH   2  15
HETATM   15  C   UNL     1     -42.850 -52.528  12.575  1.00  0.00     0.271 C 
BRANCH  15  16
HETATM   16  O   UNL     1     -43.860 -52.852  13.518  1.00  0.00    -0.377 OA
BRANCH  16  17
HETATM   17  C   UNL     1     -45.106 -53.261  12.950  1.00  0.00     0.122 C 
HETATM   18  C   UNL     1     -46.080 -52.085  12.791  1.00  0.00     0.032 C 
HETATM   19  C   UNL     1     -46.381 -51.444  14.148  1.00  0.00     0.002 C 
HETATM   20  C   UNL     1     -46.999 -52.464  15.098  1.00  0.00     0.000 C 
HETATM   21  C   UNL     1     -46.124 -53.708  15.247  1.00  0.00     0.002 C 
HETATM   22  C   UNL     1     -45.723 -54.305  13.893  1.00  0.00     0.032 C 
ENDBRANCH  16  17
ENDBRANCH  15  16
ENDBRANCH   2  15
TORSDOF 5
ENDMDL
MODEL 2
REMARK VINA RESULT:      -5.8      1.754      3.213
REMARK  5 active torsions:
REMARK  status: ('A' for Active; 'I' for Inactive)
REMARK    1  A    between atoms: N_2  and  C_4 
REMARK    2  A    between atoms: C_10  and  N_11 
REMARK       I    between atoms: N_11  and  C_12 
REMARK    3  A    between atoms: C_12  and  C_14 
REMARK    4  A    between atoms: C_14  and  O_15 
REMARK    5  A    between atoms: O_15  and  C_16 
ROOT
HETATM    1  N   UNL     1     -42.058 -49.396  11.437  1.00  0.00    -0.323 N 
HETATM    2  C   UNL     1     -42.816 -49.595  12.582  1.00  0.00     0.245 C 
HETATM    3  O   UNL     1     -43.096 -48.716  13.392  1.00  0.00    -0.271 OA
HETATM    4  H   UNL     1     -41.542 -50.178  11.047  1.00  0.00     0.169 HD
ENDROOT
BRANCH   1   5
HETATM    5  C   UNL     1     -41.575 -48.129  11.049  1.00  0.00     0.073 A 
HETATM    6  C   UNL     1     -42.281 -47.361  10.092  1.00  0.00     0.108 A 
HETATM    7  N   UNL     1     -41.848 -46.119   9.756  1.00  0.00    -0.355 N 
HETATM    8  C   UNL     1     -40.733 -45.637  10.356  1.00  0.00     0.089 A 
ATOM      9  HN  UNL     1     -42.351 -45.561   9.067  1.00  0.00     0.166 HD
HETATM   10  C   UNL     1     -40.009 -46.324  11.309  1.00  0.00     0.019 A 
HETATM   11  C   UNL     1     -40.435 -47.594  11.657  1.00  0.00     0.034 A 
BRANCH   6  12
HETATM   12  N   UNL     1     -43.430 -47.900   9.445  1.00  0.00    -0.276 NA
HETATM   13  C   UNL     1     -44.675 -47.386  10.036  1.00  0.00     0.118 C 
HETATM   14  C   UNL     1     -43.378 -47.727   7.985  1.00  0.00     0.118 C 
ENDBRANCH   6  12
ENDBRANCH   1   5
BRANCH   2  15
HETATM   15  C   UNL     1     -43.236 -51.055  12.759  1.00  0.00     0.271 C 
BRANCH  15  16
HETATM   16  O   UNL     1     -44.297 -51.185  13.692  1.00  0.00    -0.377 OA
BRANCH  16  17
HETATM   17  C   UNL     1     -45.580 -51.436  13.115  1.00  0.00     0.122 C 
HETATM   18  C   UNL     1     -46.706 -51.347  14.155  1.00  0.00     0.032 C 
HETATM   19  C   UNL     1     -46.495 -52.372  15.271  1.00  0.00     0.002 C 
HETATM   20  C   UNL     1     -46.467 -53.787  14.701  1.00  0.00     0.000 C 
HETATM   21  C   UNL     1     -45.422 -53.937  13.597  1.00  0.00     0.002 C 
HETATM   22  C   UNL     1     -45.551 -52.852  12.521  1.00  0.00     0.032 C 
ENDBRANCH  16  17
ENDBRANCH  15  16
ENDBRANCH   2  15
TORSDOF 5
ENDMDL
MODEL 3
REMARK VINA RESULT:      -5.4      3.035      5.523
REMARK  5 active torsions:
REMARK  status: ('A' for Active; 'I' for Inactive)
REMARK    1  A    between atoms: N_2  and  C_4 
REMARK    2  A    between atoms: C_10  and  N_11 
REMARK       I    between atoms: N_11  and  C_12 
REMARK    3  A    between atoms: C_12  and  C_14 
REMARK    4  A    between atoms: C_14  and  O_15 
REMARK    5  A    between atoms: O_15  and  C_16 
ROOT
HETATM    1  N   UNL     1     -41.636 -49.850  11.233  1.00  0.00    -0.323 N 
HETATM    2  C   UNL     1     -42.351 -48.819  11.825  1.00  0.00     0.245 C 
HETATM    3  O   UNL     1     -42.661 -48.780  13.012  1.00  0.00    -0.271 OA
HETATM    4  H   UNL     1     -41.756 -50.026  10.241  1.00  0.00     0.169 HD
ENDROOT
BRANCH   1   5
HETATM    5  C   UNL     1     -41.131 -50.948  11.961  1.00  0.00     0.073 A 
HETATM    6  C   UNL     1     -39.867 -50.864  12.591  1.00  0.00     0.108 A 
HETATM    7  N   UNL     1     -39.402 -51.898  13.336  1.00  0.00    -0.355 N 
HETATM    8  C   UNL     1     -40.173 -53.005  13.461  1.00  0.00     0.089 A 
ATOM      9  HN  UNL     1     -38.491 -51.844  13.792  1.00  0.00     0.166 HD
HETATM   10  C   UNL     1     -41.422 -53.146  12.889  1.00  0.00     0.019 A 
HETATM   11  C   UNL     1     -41.906 -52.101  12.121  1.00  0.00     0.034 A 
BRANCH   6  12
HETATM   12  N   UNL     1     -39.054 -49.706  12.417  1.00  0.00    -0.276 NA
HETATM   13  C   UNL     1     -38.691 -49.101  13.708  1.00  0.00     0.118 C 
HETATM   14  C   UNL     1     -37.886 -49.971  11.563  1.00  0.00     0.118 C 
ENDBRANCH   6  12
ENDBRANCH   1   5
BRANCH   2  15
HETATM   15  C   UNL     1     -42.759 -47.740  10.821  1.00  0.00     0.271 C 
BRANCH  15  16
HETATM   16  O   UNL     1     -44.129 -47.845  10.468  1.00  0.00    -0.377 OA
BRANCH  16  17
HETATM   17  C   UNL     1     -44.592 -46.854   9.548  1.00  0.00     0.122 C 
HETATM   18  C   UNL     1     -46.054 -47.085   9.141  1.00  0.00     0.032 C 
HETATM   19  C   UNL     1     -46.221 -48.450   8.469  1.00  0.00     0.002 C 
HETATM   20  C   UNL     1     -45.346 -48.545   7.224  1.00  0.00     0.000 C 
HETATM   21  C   UNL     1     -43.880 -48.247   7.532  1.00  0.00     0.002 C 
HETATM   22  C   UNL     1     -43.700 -46.932   8.299  1.00  0.00     0.032 C 
ENDBRANCH  16  17
ENDBRANCH  15  16
ENDBRANCH   2  15
TORSDOF 5
ENDMDL
MODEL 4
REMARK VINA RESULT:      -5.4      2.285      6.603
REMARK  5 active torsions:
REMARK  status: ('A' for Active; 'I' for Inactive)
REMARK    1  A    between atoms: N_2  and  C_4 
REMARK    2  A    between atoms: C_10  and  N_11 
REMARK       I    between atoms: N_11  and  C_12 
REMARK    3  A    between atoms: C_12  and  C_14 
REMARK    4  A    between atoms: C_14  and  O_15 
REMARK    5  A    between atoms: O_15  and  C_16 
ROOT
HETATM    1  N   UNL     1     -42.193 -51.837  12.006  1.00  0.00    -0.323 N 
HETATM    2  C   UNL     1     -42.176 -50.519  12.440  1.00  0.00     0.245 C 
HETATM    3  O   UNL     1     -42.777 -50.105  13.428  1.00  0.00    -0.271 OA
HETATM    4  H   UNL     1     -42.032 -52.033  11.023  1.00  0.00     0.169 HD
ENDROOT
BRANCH   1   5
HETATM    5  C   UNL     1     -42.866 -52.864  12.701  1.00  0.00     0.073 A 
HETATM    6  C   UNL     1     -42.236 -53.522  13.783  1.00  0.00     0.108 A 
HETATM    7  N   UNL     1     -42.900 -54.473  14.488  1.00  0.00    -0.355 N 
HETATM    8  C   UNL     1     -44.172 -54.773  14.132  1.00  0.00     0.089 A 
ATOM      9  HN  UNL     1     -42.451 -54.952  15.268  1.00  0.00     0.166 HD
HETATM   10  C   UNL     1     -44.852 -54.158  13.100  1.00  0.00     0.019 A 
HETATM   11  C   UNL     1     -44.185 -53.190  12.369  1.00  0.00     0.034 A 
BRANCH   6  12
HETATM   12  N   UNL     1     -40.884 -53.219  14.119  1.00  0.00    -0.276 NA
HETATM   13  C   UNL     1     -40.739 -52.908  15.549  1.00  0.00     0.118 C 
HETATM   14  C   UNL     1     -39.952 -54.262  13.664  1.00  0.00     0.118 C 
ENDBRANCH   6  12
ENDBRANCH   1   5
BRANCH   2  15
HETATM   15  C   UNL     1     -41.354 -49.613  11.524  1.00  0.00     0.271 C 
BRANCH  15  16
HETATM   16  O   UNL     1     -40.022 -50.080  11.383  1.00  0.00    -0.377 OA
BRANCH  16  17
HETATM   17  C   UNL     1     -39.011 -49.126  11.714  1.00  0.00     0.122 C 
HETATM   18  C   UNL     1     -37.599 -49.666  11.442  1.00  0.00     0.032 C 
HETATM   19  C   UNL     1     -37.332 -50.926  12.268  1.00  0.00     0.002 C 
HETATM   20  C   UNL     1     -37.462 -50.627  13.758  1.00  0.00     0.000 C 
HETATM   21  C   UNL     1     -38.816 -50.009  14.101  1.00  0.00     0.002 C 
HETATM   22  C   UNL     1     -39.149 -48.806  13.210  1.00  0.00     0.032 C 
ENDBRANCH  16  17
ENDBRANCH  15  16
ENDBRANCH   2  15
TORSDOF 5
ENDMDL
MODEL 5
REMARK VINA RESULT:      -5.3      1.529      2.251
REMARK  5 active torsions:
REMARK  status: ('A' for Active; 'I' for Inactive)
REMARK    1  A    between atoms: N_2  and  C_4 
REMARK    2  A    between atoms: C_10  and  N_11 
REMARK       I    between atoms: N_11  and  C_12 
REMARK    3  A    between atoms: C_12  and  C_14 
REMARK    4  A    between atoms: C_14  and  O_15 
REMARK    5  A    between atoms: O_15  and  C_16 
ROOT
HETATM    1  N   UNL     1     -42.558 -49.586  11.774  1.00  0.00    -0.323 N 
HETATM    2  C   UNL     1     -43.219 -49.721  12.987  1.00  0.00     0.245 C 
HETATM    3  O   UNL     1     -43.223 -48.872  13.874  1.00  0.00    -0.271 OA
HETATM    4  H   UNL     1     -42.261 -50.422  11.281  1.00  0.00     0.169 HD
ENDROOT
BRANCH   1   5
HETATM    5  C   UNL     1     -41.861 -48.416  11.407  1.00  0.00     0.073 A 
HETATM    6  C   UNL     1     -40.463 -48.328  11.606  1.00  0.00     0.108 A 
HETATM    7  N   UNL     1     -39.782 -47.225  11.206  1.00  0.00    -0.355 N 
HETATM    8  C   UNL     1     -40.469 -46.218  10.615  1.00  0.00     0.089 A 
ATOM      9  HN  UNL     1     -38.774 -47.154  11.348  1.00  0.00     0.166 HD
HETATM   10  C   UNL     1     -41.828 -46.246  10.373  1.00  0.00     0.019 A 
HETATM   11  C   UNL     1     -42.536 -47.363  10.782  1.00  0.00     0.034 A 
BRANCH   6  12
HETATM   12  N   UNL     1     -39.764 -49.381  12.264  1.00  0.00    -0.276 NA
HETATM   13  C   UNL     1     -38.538 -49.751  11.541  1.00  0.00     0.118 C 
HETATM   14  C   UNL     1     -39.521 -49.085  13.684  1.00  0.00     0.118 C 
ENDBRANCH   6  12
ENDBRANCH   1   5
BRANCH   2  15
HETATM   15  C   UNL     1     -43.916 -51.074  13.125  1.00  0.00     0.271 C 
BRANCH  15  16
HETATM   16  O   UNL     1     -43.037 -52.068  13.627  1.00  0.00    -0.377 OA
BRANCH  16  17
HETATM   17  C   UNL     1     -42.992 -53.274  12.863  1.00  0.00     0.122 C 
HETATM   18  C   UNL     1     -44.253 -54.128  13.060  1.00  0.00     0.032 C 
HETATM   19  C   UNL     1     -44.417 -54.520  14.530  1.00  0.00     0.002 C 
HETATM   20  C   UNL     1     -43.209 -55.316  15.011  1.00  0.00     0.000 C 
HETATM   21  C   UNL     1     -41.900 -54.565  14.774  1.00  0.00     0.002 C 
HETATM   22  C   UNL     1     -41.764 -54.071  13.329  1.00  0.00     0.032 C 
ENDBRANCH  16  17
ENDBRANCH  15  16
ENDBRANCH   2  15
TORSDOF 5
ENDMDL
MODEL 6
REMARK VINA RESULT:      -5.1      1.554      2.974
REMARK  5 active torsions:
REMARK  status: ('A' for Active; 'I' for Inactive)
REMARK    1  A    between atoms: N_2  and  C_4 
REMARK    2  A    between atoms: C_10  and  N_11 
REMARK       I    between atoms: N_11  and  C_12 
REMARK    3  A    between atoms: C_12  and  C_14 
REMARK    4  A    between atoms: C_14  and  O_15 
REMARK    5  A    between atoms: O_15  and  C_16 
ROOT
HETATM    1  N   UNL     1     -41.019 -51.857  13.792  1.00  0.00    -0.323 N 
HETATM    2  C   UNL     1     -41.264 -52.971  13.000  1.00  0.00     0.245 C 
HETATM    3  O   UNL     1     -40.631 -53.256  11.987  1.00  0.00    -0.271 OA
HETATM    4  H   UNL     1     -41.779 -51.468  14.341  1.00  0.00     0.169 HD
ENDROOT
BRANCH   1   5
HETATM    5  C   UNL     1     -39.961 -50.959  13.543  1.00  0.00     0.073 A 
HETATM    6  C   UNL     1     -40.218 -49.707  12.934  1.00  0.00     0.108 A 
HETATM    7  N   UNL     1     -39.211 -48.818  12.741  1.00  0.00    -0.355 N 
HETATM    8  C   UNL     1     -37.963 -49.157  13.144  1.00  0.00     0.089 A 
ATOM      9  HN  UNL     1     -39.390 -47.915  12.303  1.00  0.00     0.166 HD
HETATM   10  C   UNL     1     -37.645 -50.351  13.760  1.00  0.00     0.019 A 
HETATM   11  C   UNL     1     -38.662 -51.269  13.958  1.00  0.00     0.034 A 
BRANCH   6  12
HETATM   12  N   UNL     1     -41.531 -49.385  12.483  1.00  0.00    -0.276 NA
HETATM   13  C   UNL     1     -42.232 -48.512  13.437  1.00  0.00     0.118 C 
HETATM   14  C   UNL     1     -41.532 -48.849  11.113  1.00  0.00     0.118 C 
ENDBRANCH   6  12
ENDBRANCH   1   5
BRANCH   2  15
HETATM   15  C   UNL     1     -42.450 -53.794  13.501  1.00  0.00     0.271 C 
BRANCH  15  16
HETATM   16  O   UNL     1     -43.640 -53.022  13.553  1.00  0.00    -0.377 OA
BRANCH  16  17
HETATM   17  C   UNL     1     -44.741 -53.562  12.822  1.00  0.00     0.122 C 
HETATM   18  C   UNL     1     -45.832 -52.511  12.565  1.00  0.00     0.032 C 
HETATM   19  C   UNL     1     -46.379 -51.965  13.886  1.00  0.00     0.002 C 
HETATM   20  C   UNL     1     -46.973 -53.090  14.726  1.00  0.00     0.000 C 
HETATM   21  C   UNL     1     -45.971 -54.219  14.959  1.00  0.00     0.002 C 
HETATM   22  C   UNL     1     -45.331 -54.710  13.655  1.00  0.00     0.032 C 
ENDBRANCH  16  17
ENDBRANCH  15  16
ENDBRANCH   2  15
TORSDOF 5
ENDMDL
MODEL 7
REMARK VINA RESULT:      -5.1      2.957      6.927
REMARK  5 active torsions:
REMARK  status: ('A' for Active; 'I' for Inactive)
REMARK    1  A    between atoms: N_2  and  C_4 
REMARK    2  A    between atoms: C_10  and  N_11 
REMARK       I    between atoms: N_11  and  C_12 
REMARK    3  A    between atoms: C_12  and  C_14 
REMARK    4  A    between atoms: C_14  and  O_15 
REMARK    5  A    between atoms: O_15  and  C_16 
ROOT
HETATM    1  N   UNL     1     -41.837 -53.517  14.769  1.00  0.00    -0.323 N 
HETATM    2  C   UNL     1     -40.867 -53.820  13.824  1.00  0.00     0.245 C 
HETATM    3  O   UNL     1     -41.103 -54.273  12.707  1.00  0.00    -0.271 OA
HETATM    4  H   UNL     1     -41.588 -53.537  15.752  1.00  0.00     0.169 HD
ENDROOT
BRANCH   1   5
HETATM    5  C   UNL     1     -43.219 -53.644  14.516  1.00  0.00     0.073 A 
HETATM    6  C   UNL     1     -44.015 -52.492  14.316  1.00  0.00     0.108 A 
HETATM    7  N   UNL     1     -45.334 -52.612  14.020  1.00  0.00    -0.355 N 
HETATM    8  C   UNL     1     -45.864 -53.855  13.922  1.00  0.00     0.089 A 
ATOM      9  HN  UNL     1     -45.913 -51.786  13.875  1.00  0.00     0.166 HD
HETATM   10  C   UNL     1     -45.143 -55.020  14.087  1.00  0.00     0.019 A 
HETATM   11  C   UNL     1     -43.798 -54.911  14.395  1.00  0.00     0.034 A 
BRANCH   6  12
HETATM   12  N   UNL     1     -43.447 -51.193  14.460  1.00  0.00    -0.276 NA
HETATM   13  C   UNL     1     -43.540 -50.420  13.213  1.00  0.00     0.118 C 
HETATM   14  C   UNL     1     -43.995 -50.473  15.620  1.00  0.00     0.118 C 
ENDBRANCH   6  12
ENDBRANCH   1   5
BRANCH   2  15
HETATM   15  C   UNL     1     -39.450 -53.570  14.339  1.00  0.00     0.271 C 
BRANCH  15  16
HETATM   16  O   UNL     1     -38.732 -52.687  13.491  1.00  0.00    -0.377 OA
BRANCH  16  17
HETATM   17  C   UNL     1     -38.540 -51.372  14.015  1.00  0.00     0.122 C 
HETATM   18  C   UNL     1     -39.729 -50.450  13.708  1.00  0.00     0.032 C 
HETATM   19  C   UNL     1     -39.937 -50.318  12.198  1.00  0.00     0.002 C 
HETATM   20  C   UNL     1     -38.691 -49.744  11.533  1.00  0.00     0.000 C 
HETATM   21  C   UNL     1     -37.442 -50.563  11.858  1.00  0.00     0.002 C 
HETATM   22  C   UNL     1     -37.273 -50.796  13.364  1.00  0.00     0.032 C 
ENDBRANCH  16  17
ENDBRANCH  15  16
ENDBRANCH   2  15
TORSDOF 5
ENDMDL
MODEL 8
REMARK VINA RESULT:      -5.1      2.385      6.889
REMARK  5 active torsions:
REMARK  status: ('A' for Active; 'I' for Inactive)
REMARK    1  A    between atoms: N_2  and  C_4 
REMARK    2  A    between atoms: C_10  and  N_11 
REMARK       I    between atoms: N_11  and  C_12 
REMARK    3  A    between atoms: C_12  and  C_14 
REMARK    4  A    between atoms: C_14  and  O_15 
REMARK    5  A    between atoms: O_15  and  C_16 
ROOT
HETATM    1  N   UNL     1     -43.317 -51.941  12.615  1.00  0.00    -0.323 N 
HETATM    2  C   UNL     1     -42.362 -50.948  12.781  1.00  0.00     0.245 C 
HETATM    3  O   UNL     1     -42.424 -50.058  13.625  1.00  0.00    -0.271 OA
HETATM    4  H   UNL     1     -43.423 -52.374  11.704  1.00  0.00     0.169 HD
ENDROOT
BRANCH   1   5
HETATM    5  C   UNL     1     -44.444 -52.067  13.454  1.00  0.00     0.073 A 
HETATM    6  C   UNL     1     -44.366 -52.832  14.642  1.00  0.00     0.108 A 
HETATM    7  N   UNL     1     -45.432 -52.911  15.478  1.00  0.00    -0.355 N 
HETATM    8  C   UNL     1     -46.564 -52.244  15.149  1.00  0.00     0.089 A 
ATOM      9  HN  UNL     1     -45.382 -53.461  16.335  1.00  0.00     0.166 HD
HETATM   10  C   UNL     1     -46.703 -51.466  14.017  1.00  0.00     0.019 A 
HETATM   11  C   UNL     1     -45.625 -51.381  13.152  1.00  0.00     0.034 A 
BRANCH   6  12
HETATM   12  N   UNL     1     -43.179 -53.557  14.952  1.00  0.00    -0.276 NA
HETATM   13  C   UNL     1     -42.606 -53.131  16.238  1.00  0.00     0.118 C 
HETATM   14  C   UNL     1     -43.379 -55.012  14.870  1.00  0.00     0.118 C 
ENDBRANCH   6  12
ENDBRANCH   1   5
BRANCH   2  15
HETATM   15  C   UNL     1     -41.229 -51.050  11.759  1.00  0.00     0.271 C 
BRANCH  15  16
HETATM   16  O   UNL     1     -39.958 -50.897  12.370  1.00  0.00    -0.377 OA
BRANCH  16  17
HETATM   17  C   UNL     1     -39.056 -50.033  11.676  1.00  0.00     0.122 C 
HETATM   18  C   UNL     1     -37.599 -50.259  12.103  1.00  0.00     0.032 C 
HETATM   19  C   UNL     1     -37.426 -49.997  13.601  1.00  0.00     0.002 C 
HETATM   20  C   UNL     1     -37.818 -48.564  13.943  1.00  0.00     0.000 C 
HETATM   21  C   UNL     1     -39.234 -48.232  13.475  1.00  0.00     0.002 C 
HETATM   22  C   UNL     1     -39.460 -48.587  12.001  1.00  0.00     0.032 C 
ENDBRANCH  16  17
ENDBRANCH  15  16
ENDBRANCH   2  15
TORSDOF 5
ENDMDL
MODEL 9
REMARK VINA RESULT:      -5.0      1.866      2.602
REMARK  5 active torsions:
REMARK  status: ('A' for Active; 'I' for Inactive)
REMARK    1  A    between atoms: N_2  and  C_4 
REMARK    2  A    between atoms: C_10  and  N_11 
REMARK       I    between atoms: N_11  and  C_12 
REMARK    3  A    between atoms: C_12  and  C_14 
REMARK    4  A    between atoms: C_14  and  O_15 
REMARK    5  A    between atoms: O_15  and  C_16 
ROOT
HETATM    1  N   UNL     1     -41.565 -51.630  13.185  1.00  0.00    -0.323 N 
HETATM    2  C   UNL     1     -41.481 -52.979  12.873  1.00  0.00     0.245 C 
HETATM    3  O   UNL     1     -40.475 -53.529  12.432  1.00  0.00    -0.271 OA
HETATM    4  H   UNL     1     -42.471 -51.174  13.154  1.00  0.00     0.169 HD
ENDROOT
BRANCH   1   5
HETATM    5  C   UNL     1     -40.467 -50.750  13.083  1.00  0.00     0.073 A 
HETATM    6  C   UNL     1     -39.609 -50.551  14.190  1.00  0.00     0.108 A 
HETATM    7  N   UNL     1     -38.522 -49.747  14.079  1.00  0.00    -0.355 N 
HETATM    8  C   UNL     1     -38.280 -49.146  12.890  1.00  0.00     0.089 A 
ATOM      9  HN  UNL     1     -37.900 -49.598  14.874  1.00  0.00     0.166 HD
HETATM   10  C   UNL     1     -39.064 -49.310  11.765  1.00  0.00     0.019 A 
HETATM   11  C   UNL     1     -40.179 -50.123  11.866  1.00  0.00     0.034 A 
BRANCH   6  12
HETATM   12  N   UNL     1     -39.901 -51.163  15.444  1.00  0.00    -0.276 NA
HETATM   13  C   UNL     1     -38.995 -52.288  15.721  1.00  0.00     0.118 C 
HETATM   14  C   UNL     1     -39.949 -50.185  16.541  1.00  0.00     0.118 C 
ENDBRANCH   6  12
ENDBRANCH   1   5
BRANCH   2  15
HETATM   15  C   UNL     1     -42.803 -53.714  13.096  1.00  0.00     0.271 C 
BRANCH  15  16
HETATM   16  O   UNL     1     -43.870 -52.811  13.338  1.00  0.00    -0.377 OA
BRANCH  16  17
HETATM   17  C   UNL     1     -45.137 -53.222  12.821  1.00  0.00     0.122 C 
HETATM   18  C   UNL     1     -46.133 -52.057  12.745  1.00  0.00     0.032 C 
HETATM   19  C   UNL     1     -46.375 -51.457  14.132  1.00  0.00     0.002 C 
HETATM   20  C   UNL     1     -46.930 -52.513  15.082  1.00  0.00     0.000 C 
HETATM   21  C   UNL     1     -46.033 -53.747  15.153  1.00  0.00     0.002 C 
HETATM   22  C   UNL     1     -45.692 -54.301  13.764  1.00  0.00     0.032 C 
ENDBRANCH  16  17
ENDBRANCH  15  16
ENDBRANCH   2  15
TORSDOF 5
ENDMDL
