MODEL 1
REMARK VINA RESULT:      -6.0      0.000      0.000
REMARK  5 active torsions:
REMARK  status: ('A' for Active; 'I' for Inactive)
REMARK    1  A    between atoms: C_2  and  N_3 
REMARK    2  A    between atoms: C_6  and  N_7 
REMARK       I    between atoms: N_7  and  C_8 
REMARK       I    between atoms: C_8  and  N_10 
REMARK    3  A    between atoms: N_10  and  C_11 
REMARK    4  A    between atoms: C_11  and  C_12 
REMARK    5  A    between atoms: C_16  and  C_17 
ROOT
HETATM    1  N   UNL     1     -40.808 -50.216  12.097  1.00  0.00    -0.295 N 
HETATM    2  N   UNL     1     -41.939 -50.806  11.682  1.00  0.00    -0.283 N 
ATOM      3  HN  UNL     1     -42.740 -50.367  11.228  1.00  0.00     0.189 HD
HETATM    4  C   UNL     1     -41.784 -52.097  11.994  1.00  0.00     0.125 C 
HETATM    5  C   UNL     1     -40.511 -52.334  12.560  1.00  0.00     0.077 C 
HETATM    6  C   UNL     1     -39.947 -51.085  12.706  1.00  0.00     0.036 C 
ENDROOT
BRANCH   4   7
HETATM    7  N   UNL     1     -42.766 -53.049  11.827  1.00  0.00    -0.294 N 
HETATM    8  C   UNL     1     -43.842 -53.285  12.643  1.00  0.00     0.321 C 
HETATM    9  O   UNL     1     -44.596 -54.226  12.405  1.00  0.00    -0.247 OA
HETATM   10  N   UNL     1     -43.994 -52.450  13.703  1.00  0.00    -0.342 N 
HETATM   11  H   UNL     1     -43.293 -51.712  13.776  1.00  0.00     0.164 HD
HETATM   12  H   UNL     1     -42.656 -53.716  11.081  1.00  0.00     0.172 HD
BRANCH  10  13
HETATM   13  C   UNL     1     -45.039 -52.535  14.690  1.00  0.00     0.128 C 
BRANCH  13  14
HETATM   14  C   UNL     1     -46.115 -51.447  14.538  1.00  0.00    -0.005 C 
HETATM   15  C   UNL     1     -46.816 -51.504  13.176  1.00  0.00     0.011 C 
HETATM   16  C   UNL     1     -47.150 -51.605  15.655  1.00  0.00     0.011 C 
ENDBRANCH  13  14
ENDBRANCH  10  13
ENDBRANCH   4   7
BRANCH   1  17
HETATM   17  C   UNL     1     -40.693 -48.777  11.962  1.00  0.00     0.144 C 
HETATM   18  C   UNL     1     -41.401 -48.260  10.722  1.00  0.00     0.028 C 
ENDBRANCH   1  17
BRANCH   6  19
HETATM   19  C   UNL     1     -38.686 -50.715  13.468  1.00  0.00     0.037 A 
HETATM   20  C   UNL     1     -37.785 -49.594  13.010  1.00  0.00     0.011 A 
HETATM   21  C   UNL     1     -37.375 -51.005  12.761  1.00  0.00     0.011 A 
ENDBRANCH   6  19
TORSDOF 5
ENDMDL
MODEL 2
REMARK VINA RESULT:      -5.9      1.300      1.777
REMARK  5 active torsions:
REMARK  status: ('A' for Active; 'I' for Inactive)
REMARK    1  A    between atoms: C_2  and  N_3 
REMARK    2  A    between atoms: C_6  and  N_7 
REMARK       I    between atoms: N_7  and  C_8 
REMARK       I    between atoms: C_8  and  N_10 
REMARK    3  A    between atoms: N_10  and  C_11 
REMARK    4  A    between atoms: C_11  and  C_12 
REMARK    5  A    between atoms: C_16  and  C_17 
ROOT
HETATM    1  N   UNL     1     -39.665 -50.813  12.099  1.00  0.00    -0.295 N 
HETATM    2  N   UNL     1     -40.771 -51.114  11.402  1.00  0.00    -0.283 N 
ATOM      3  HN  UNL     1     -41.144 -50.630  10.586  1.00  0.00     0.189 HD
HETATM    4  C   UNL     1     -41.276 -52.190  12.014  1.00  0.00     0.125 C 
HETATM    5  C   UNL     1     -40.443 -52.609  13.076  1.00  0.00     0.077 C 
HETATM    6  C   UNL     1     -39.467 -51.641  13.168  1.00  0.00     0.036 C 
ENDROOT
BRANCH   4   7
HETATM    7  N   UNL     1     -42.479 -52.770  11.674  1.00  0.00    -0.294 N 
HETATM    8  C   UNL     1     -43.579 -52.934  12.475  1.00  0.00     0.321 C 
HETATM    9  O   UNL     1     -44.558 -53.543  12.052  1.00  0.00    -0.247 OA
HETATM   10  N   UNL     1     -43.501 -52.411  13.726  1.00  0.00    -0.342 N 
HETATM   11  H   UNL     1     -42.627 -51.930  13.939  1.00  0.00     0.164 HD
HETATM   12  H   UNL     1     -42.551 -53.213  10.772  1.00  0.00     0.172 HD
BRANCH  10  13
HETATM   13  C   UNL     1     -44.531 -52.488  14.729  1.00  0.00     0.128 C 
BRANCH  13  14
HETATM   14  C   UNL     1     -45.419 -51.234  14.793  1.00  0.00    -0.005 C 
HETATM   15  C   UNL     1     -46.778 -51.444  14.118  1.00  0.00     0.011 C 
HETATM   16  C   UNL     1     -45.629 -50.842  16.258  1.00  0.00     0.011 C 
ENDBRANCH  13  14
ENDBRANCH  10  13
ENDBRANCH   4   7
BRANCH   1  17
HETATM   17  C   UNL     1     -38.914 -49.631  11.721  1.00  0.00     0.144 C 
HETATM   18  C   UNL     1     -37.528 -49.975  11.204  1.00  0.00     0.028 C 
ENDBRANCH   1  17
BRANCH   6  19
HETATM   19  C   UNL     1     -38.442 -51.453  14.272  1.00  0.00     0.037 A 
HETATM   20  C   UNL     1     -38.695 -51.938  15.679  1.00  0.00     0.011 A 
HETATM   21  C   UNL     1     -38.825 -50.485  15.376  1.00  0.00     0.011 A 
ENDBRANCH   6  19
TORSDOF 5
ENDMDL
MODEL 3
REMARK VINA RESULT:      -5.7      1.726      6.436
REMARK  5 active torsions:
REMARK  status: ('A' for Active; 'I' for Inactive)
REMARK    1  A    between atoms: C_2  and  N_3 
REMARK    2  A    between atoms: C_6  and  N_7 
REMARK       I    between atoms: N_7  and  C_8 
REMARK       I    between atoms: C_8  and  N_10 
REMARK    3  A    between atoms: N_10  and  C_11 
REMARK    4  A    between atoms: C_11  and  C_12 
REMARK    5  A    between atoms: C_16  and  C_17 
ROOT
HETATM    1  N   UNL     1     -45.611 -52.177  12.607  1.00  0.00    -0.295 N 
HETATM    2  N   UNL     1     -44.454 -52.635  12.106  1.00  0.00    -0.283 N 
ATOM      3  HN  UNL     1     -44.308 -53.128  11.226  1.00  0.00     0.189 HD
HETATM    4  C   UNL     1     -43.533 -52.300  13.016  1.00  0.00     0.125 C 
HETATM    5  C   UNL     1     -44.110 -51.568  14.078  1.00  0.00     0.077 C 
HETATM    6  C   UNL     1     -45.466 -51.594  13.835  1.00  0.00     0.036 C 
ENDROOT
BRANCH   4   7
HETATM    7  N   UNL     1     -42.209 -52.674  12.939  1.00  0.00    -0.294 N 
HETATM    8  C   UNL     1     -41.188 -51.994  12.329  1.00  0.00     0.321 C 
HETATM    9  O   UNL     1     -40.066 -52.494  12.275  1.00  0.00    -0.247 OA
HETATM   10  N   UNL     1     -41.499 -50.786  11.793  1.00  0.00    -0.342 N 
HETATM   11  H   UNL     1     -42.469 -50.497  11.914  1.00  0.00     0.164 HD
HETATM   12  H   UNL     1     -41.956 -53.586  13.282  1.00  0.00     0.172 HD
BRANCH  10  13
HETATM   13  C   UNL     1     -40.584 -49.922  11.092  1.00  0.00     0.128 C 
BRANCH  13  14
HETATM   14  C   UNL     1     -39.657 -49.126  12.026  1.00  0.00    -0.005 C 
HETATM   15  C   UNL     1     -38.179 -49.467  11.814  1.00  0.00     0.011 C 
HETATM   16  C   UNL     1     -39.878 -47.629  11.794  1.00  0.00     0.011 C 
ENDBRANCH  13  14
ENDBRANCH  10  13
ENDBRANCH   4   7
BRANCH   1  17
HETATM   17  C   UNL     1     -46.833 -52.447  11.875  1.00  0.00     0.144 C 
HETATM   18  C   UNL     1     -47.263 -51.266  11.024  1.00  0.00     0.028 C 
ENDBRANCH   1  17
BRANCH   6  19
HETATM   19  C   UNL     1     -46.588 -51.165  14.764  1.00  0.00     0.037 A 
HETATM   20  C   UNL     1     -46.418 -51.164  16.263  1.00  0.00     0.011 A 
HETATM   21  C   UNL     1     -47.196 -52.260  15.620  1.00  0.00     0.011 A 
ENDBRANCH   6  19
TORSDOF 5
ENDMDL
MODEL 4
REMARK VINA RESULT:      -5.7      2.522      3.939
REMARK  5 active torsions:
REMARK  status: ('A' for Active; 'I' for Inactive)
REMARK    1  A    between atoms: C_2  and  N_3 
REMARK    2  A    between atoms: C_6  and  N_7 
REMARK       I    between atoms: N_7  and  C_8 
REMARK       I    between atoms: C_8  and  N_10 
REMARK    3  A    between atoms: N_10  and  C_11 
REMARK    4  A    between atoms: C_11  and  C_12 
REMARK    5  A    between atoms: C_16  and  C_17 
ROOT
HETATM    1  N   UNL     1     -41.818 -47.276  10.275  1.00  0.00    -0.295 N 
HETATM    2  N   UNL     1     -41.770 -48.601  10.070  1.00  0.00    -0.283 N 
ATOM      3  HN  UNL     1     -42.316 -49.148   9.404  1.00  0.00     0.189 HD
HETATM    4  C   UNL     1     -40.849 -49.045  10.930  1.00  0.00     0.125 C 
HETATM    5  C   UNL     1     -40.264 -47.977  11.646  1.00  0.00     0.077 C 
HETATM    6  C   UNL     1     -40.982 -46.861  11.274  1.00  0.00     0.036 C 
ENDROOT
BRANCH   4   7
HETATM    7  N   UNL     1     -40.557 -50.379  11.118  1.00  0.00    -0.294 N 
HETATM    8  C   UNL     1     -41.287 -51.298  11.826  1.00  0.00     0.321 C 
HETATM    9  O   UNL     1     -40.857 -52.440  11.971  1.00  0.00    -0.247 OA
HETATM   10  N   UNL     1     -42.462 -50.864  12.351  1.00  0.00    -0.342 N 
HETATM   11  H   UNL     1     -42.692 -49.891  12.149  1.00  0.00     0.164 HD
HETATM   12  H   UNL     1     -39.670 -50.719  10.786  1.00  0.00     0.172 HD
BRANCH  10  13
HETATM   13  C   UNL     1     -43.367 -51.657  13.142  1.00  0.00     0.128 C 
BRANCH  13  14
HETATM   14  C   UNL     1     -44.615 -50.885  13.603  1.00  0.00    -0.005 C 
HETATM   15  C   UNL     1     -45.916 -51.538  13.126  1.00  0.00     0.011 C 
HETATM   16  C   UNL     1     -44.614 -50.797  15.131  1.00  0.00     0.011 C 
ENDBRANCH  13  14
ENDBRANCH  10  13
ENDBRANCH   4   7
BRANCH   1  17
HETATM   17  C   UNL     1     -42.789 -46.498   9.530  1.00  0.00     0.144 C 
HETATM   18  C   UNL     1     -43.498 -47.327   8.474  1.00  0.00     0.028 C 
ENDBRANCH   1  17
BRANCH   6  19
HETATM   19  C   UNL     1     -40.944 -45.477  11.897  1.00  0.00     0.037 A 
HETATM   20  C   UNL     1     -40.400 -44.286  11.146  1.00  0.00     0.011 A 
HETATM   21  C   UNL     1     -39.563 -44.924  12.201  1.00  0.00     0.011 A 
ENDBRANCH   6  19
TORSDOF 5
ENDMDL
MODEL 5
REMARK VINA RESULT:      -5.5      2.679      6.433
REMARK  5 active torsions:
REMARK  status: ('A' for Active; 'I' for Inactive)
REMARK    1  A    between atoms: C_2  and  N_3 
REMARK    2  A    between atoms: C_6  and  N_7 
REMARK       I    between atoms: N_7  and  C_8 
REMARK       I    between atoms: C_8  and  N_10 
REMARK    3  A    between atoms: N_10  and  C_11 
REMARK    4  A    between atoms: C_11  and  C_12 
REMARK    5  A    between atoms: C_16  and  C_17 
ROOT
HETATM    1  N   UNL     1     -44.264 -52.560  12.790  1.00  0.00    -0.295 N 
HETATM    2  N   UNL     1     -43.007 -52.172  12.525  1.00  0.00    -0.283 N 
ATOM      3  HN  UNL     1     -42.256 -52.731  12.121  1.00  0.00     0.189 HD
HETATM    4  C   UNL     1     -42.958 -50.892  12.907  1.00  0.00     0.125 C 
HETATM    5  C   UNL     1     -44.220 -50.449  13.364  1.00  0.00     0.077 C 
HETATM    6  C   UNL     1     -45.014 -51.575  13.370  1.00  0.00     0.036 C 
ENDROOT
BRANCH   4   7
HETATM    7  N   UNL     1     -41.808 -50.134  12.900  1.00  0.00    -0.294 N 
HETATM    8  C   UNL     1     -41.475 -49.137  12.021  1.00  0.00     0.321 C 
HETATM    9  O   UNL     1     -40.372 -48.600  12.094  1.00  0.00    -0.247 OA
HETATM   10  N   UNL     1     -42.408 -48.813  11.089  1.00  0.00    -0.342 N 
HETATM   11  H   UNL     1     -43.279 -49.342  11.148  1.00  0.00     0.164 HD
HETATM   12  H   UNL     1     -41.075 -50.383  13.544  1.00  0.00     0.172 HD
BRANCH  10  13
HETATM   13  C   UNL     1     -42.254 -47.814  10.064  1.00  0.00     0.128 C 
BRANCH  13  14
HETATM   14  C   UNL     1     -43.496 -47.657   9.170  1.00  0.00    -0.005 C 
HETATM   15  C   UNL     1     -44.794 -47.579   9.980  1.00  0.00     0.011 C 
HETATM   16  C   UNL     1     -43.345 -46.394   8.319  1.00  0.00     0.011 C 
ENDBRANCH  13  14
ENDBRANCH  10  13
ENDBRANCH   4   7
BRANCH   1  17
HETATM   17  C   UNL     1     -44.624 -53.943  12.547  1.00  0.00     0.144 C 
HETATM   18  C   UNL     1     -44.216 -54.850  13.694  1.00  0.00     0.028 C 
ENDBRANCH   1  17
BRANCH   6  19
HETATM   19  C   UNL     1     -46.395 -51.739  13.981  1.00  0.00     0.037 A 
HETATM   20  C   UNL     1     -46.742 -51.143  15.324  1.00  0.00     0.011 A 
HETATM   21  C   UNL     1     -46.471 -52.605  15.225  1.00  0.00     0.011 A 
ENDBRANCH   6  19
TORSDOF 5
ENDMDL
MODEL 6
REMARK VINA RESULT:      -5.4      1.612      2.732
REMARK  5 active torsions:
REMARK  status: ('A' for Active; 'I' for Inactive)
REMARK    1  A    between atoms: C_2  and  N_3 
REMARK    2  A    between atoms: C_6  and  N_7 
REMARK       I    between atoms: N_7  and  C_8 
REMARK       I    between atoms: C_8  and  N_10 
REMARK    3  A    between atoms: N_10  and  C_11 
REMARK    4  A    between atoms: C_11  and  C_12 
REMARK    5  A    between atoms: C_16  and  C_17 
ROOT
HETATM    1  N   UNL     1     -40.077 -52.845  13.622  1.00  0.00    -0.295 N 
HETATM    2  N   UNL     1     -41.103 -53.708  13.660  1.00  0.00    -0.283 N 
ATOM      3  HN  UNL     1     -41.191 -54.545  14.237  1.00  0.00     0.189 HD
HETATM    4  C   UNL     1     -41.983 -53.230  12.775  1.00  0.00     0.125 C 
HETATM    5  C   UNL     1     -41.531 -52.013  12.215  1.00  0.00     0.077 C 
HETATM    6  C   UNL     1     -40.255 -51.846  12.707  1.00  0.00     0.036 C 
ENDROOT
BRANCH   4   7
HETATM    7  N   UNL     1     -43.148 -53.877  12.427  1.00  0.00    -0.294 N 
HETATM    8  C   UNL     1     -44.331 -53.888  13.120  1.00  0.00     0.321 C 
HETATM    9  O   UNL     1     -45.266 -54.579  12.722  1.00  0.00    -0.247 OA
HETATM   10  N   UNL     1     -44.384 -53.126  14.242  1.00  0.00    -0.342 N 
HETATM   11  H   UNL     1     -43.533 -52.604  14.451  1.00  0.00     0.164 HD
HETATM   12  H   UNL     1     -43.128 -54.491  11.630  1.00  0.00     0.172 HD
BRANCH  10  13
HETATM   13  C   UNL     1     -45.518 -53.012  15.122  1.00  0.00     0.128 C 
BRANCH  13  14
HETATM   14  C   UNL     1     -46.225 -51.649  15.036  1.00  0.00    -0.005 C 
HETATM   15  C   UNL     1     -46.790 -51.370  13.640  1.00  0.00     0.011 C 
HETATM   16  C   UNL     1     -47.356 -51.605  16.067  1.00  0.00     0.011 C 
ENDBRANCH  13  14
ENDBRANCH  10  13
ENDBRANCH   4   7
BRANCH   1  17
HETATM   17  C   UNL     1     -38.909 -53.127  14.434  1.00  0.00     0.144 C 
HETATM   18  C   UNL     1     -38.916 -54.547  14.973  1.00  0.00     0.028 C 
ENDBRANCH   1  17
BRANCH   6  19
HETATM   19  C   UNL     1     -39.211 -50.835  12.265  1.00  0.00     0.037 A 
HETATM   20  C   UNL     1     -38.643 -49.815  13.220  1.00  0.00     0.011 A 
HETATM   21  C   UNL     1     -39.664 -49.388  12.223  1.00  0.00     0.011 A 
ENDBRANCH   6  19
TORSDOF 5
ENDMDL
MODEL 7
REMARK VINA RESULT:      -5.3      2.867      5.779
REMARK  5 active torsions:
REMARK  status: ('A' for Active; 'I' for Inactive)
REMARK    1  A    between atoms: C_2  and  N_3 
REMARK    2  A    between atoms: C_6  and  N_7 
REMARK       I    between atoms: N_7  and  C_8 
REMARK       I    between atoms: C_8  and  N_10 
REMARK    3  A    between atoms: N_10  and  C_11 
REMARK    4  A    between atoms: C_11  and  C_12 
REMARK    5  A    between atoms: C_16  and  C_17 
ROOT
HETATM    1  N   UNL     1     -44.163 -51.562  13.338  1.00  0.00    -0.295 N 
HETATM    2  N   UNL     1     -43.676 -50.394  12.890  1.00  0.00    -0.283 N 
ATOM      3  HN  UNL     1     -44.160 -49.498  12.834  1.00  0.00     0.189 HD
HETATM    4  C   UNL     1     -42.416 -50.666  12.534  1.00  0.00     0.125 C 
HETATM    5  C   UNL     1     -42.085 -52.010  12.818  1.00  0.00     0.077 C 
HETATM    6  C   UNL     1     -43.264 -52.586  13.241  1.00  0.00     0.036 C 
ENDROOT
BRANCH   4   7
HETATM    7  N   UNL     1     -41.580 -49.756  11.923  1.00  0.00    -0.294 N 
HETATM    8  C   UNL     1     -41.942 -48.639  11.216  1.00  0.00     0.321 C 
HETATM    9  O   UNL     1     -41.081 -47.962  10.659  1.00  0.00    -0.247 OA
HETATM   10  N   UNL     1     -43.270 -48.360  11.161  1.00  0.00    -0.342 N 
HETATM   11  H   UNL     1     -43.869 -49.009  11.671  1.00  0.00     0.164 HD
HETATM   12  H   UNL     1     -40.595 -49.961  11.901  1.00  0.00     0.172 HD
BRANCH  10  13
HETATM   13  C   UNL     1     -43.862 -47.252  10.458  1.00  0.00     0.128 C 
BRANCH  13  14
HETATM   14  C   UNL     1     -44.639 -47.671   9.198  1.00  0.00    -0.005 C 
HETATM   15  C   UNL     1     -45.882 -46.808   8.963  1.00  0.00     0.011 C 
HETATM   16  C   UNL     1     -43.712 -47.579   7.984  1.00  0.00     0.011 C 
ENDBRANCH  13  14
ENDBRANCH  10  13
ENDBRANCH   4   7
BRANCH   1  17
HETATM   17  C   UNL     1     -45.554 -51.617  13.742  1.00  0.00     0.144 C 
HETATM   18  C   UNL     1     -46.492 -51.719  12.552  1.00  0.00     0.028 C 
ENDBRANCH   1  17
BRANCH   6  19
HETATM   19  C   UNL     1     -43.554 -54.061  13.460  1.00  0.00     0.037 A 
HETATM   20  C   UNL     1     -44.194 -54.561  14.732  1.00  0.00     0.011 A 
HETATM   21  C   UNL     1     -42.729 -54.747  14.532  1.00  0.00     0.011 A 
ENDBRANCH   6  19
TORSDOF 5
ENDMDL
MODEL 8
REMARK VINA RESULT:      -5.3      3.014      4.382
REMARK  5 active torsions:
REMARK  status: ('A' for Active; 'I' for Inactive)
REMARK    1  A    between atoms: C_2  and  N_3 
REMARK    2  A    between atoms: C_6  and  N_7 
REMARK       I    between atoms: N_7  and  C_8 
REMARK       I    between atoms: C_8  and  N_10 
REMARK    3  A    between atoms: N_10  and  C_11 
REMARK    4  A    between atoms: C_11  and  C_12 
REMARK    5  A    between atoms: C_16  and  C_17 
ROOT
HETATM    1  N   UNL     1     -41.297 -53.664  14.292  1.00  0.00    -0.295 N 
HETATM    2  N   UNL     1     -41.950 -53.214  13.210  1.00  0.00    -0.283 N 
ATOM      3  HN  UNL     1     -41.610 -52.563  12.503  1.00  0.00     0.189 HD
HETATM    4  C   UNL     1     -43.147 -53.809  13.264  1.00  0.00     0.125 C 
HETATM    5  C   UNL     1     -43.227 -54.693  14.364  1.00  0.00     0.077 C 
HETATM    6  C   UNL     1     -42.055 -54.500  15.063  1.00  0.00     0.036 C 
ENDROOT
BRANCH   4   7
HETATM    7  N   UNL     1     -44.174 -53.543  12.386  1.00  0.00    -0.294 N 
HETATM    8  C   UNL     1     -45.322 -52.837  12.637  1.00  0.00     0.321 C 
HETATM    9  O   UNL     1     -46.188 -52.748  11.771  1.00  0.00    -0.247 OA
HETATM   10  N   UNL     1     -45.434 -52.282  13.872  1.00  0.00    -0.342 N 
HETATM   11  H   UNL     1     -44.636 -52.437  14.489  1.00  0.00     0.164 HD
HETATM   12  H   UNL     1     -44.146 -53.981  11.480  1.00  0.00     0.172 HD
BRANCH  10  13
HETATM   13  C   UNL     1     -46.561 -51.522  14.347  1.00  0.00     0.128 C 
BRANCH  13  14
HETATM   14  C   UNL     1     -47.221 -52.124  15.599  1.00  0.00    -0.005 C 
HETATM   15  C   UNL     1     -46.324 -53.150  16.298  1.00  0.00     0.011 C 
HETATM   16  C   UNL     1     -47.568 -50.996  16.574  1.00  0.00     0.011 C 
ENDBRANCH  13  14
ENDBRANCH  10  13
ENDBRANCH   4   7
BRANCH   1  17
HETATM   17  C   UNL     1     -39.971 -53.143  14.561  1.00  0.00     0.144 C 
HETATM   18  C   UNL     1     -38.878 -54.098  14.111  1.00  0.00     0.028 C 
ENDBRANCH   1  17
BRANCH   6  19
HETATM   19  C   UNL     1     -41.700 -55.014  16.447  1.00  0.00     0.037 A 
HETATM   20  C   UNL     1     -40.578 -56.000  16.662  1.00  0.00     0.011 A 
HETATM   21  C   UNL     1     -41.987 -56.482  16.704  1.00  0.00     0.011 A 
ENDBRANCH   6  19
TORSDOF 5
ENDMDL
MODEL 9
REMARK VINA RESULT:      -5.1      3.912      5.839
REMARK  5 active torsions:
REMARK  status: ('A' for Active; 'I' for Inactive)
REMARK    1  A    between atoms: C_2  and  N_3 
REMARK    2  A    between atoms: C_6  and  N_7 
REMARK       I    between atoms: N_7  and  C_8 
REMARK       I    between atoms: C_8  and  N_10 
REMARK    3  A    between atoms: N_10  and  C_11 
REMARK    4  A    between atoms: C_11  and  C_12 
REMARK    5  A    between atoms: C_16  and  C_17 
ROOT
HETATM    1  N   UNL     1     -40.224 -49.828  11.946  1.00  0.00    -0.295 N 
HETATM    2  N   UNL     1     -40.513 -48.812  11.119  1.00  0.00    -0.283 N 
ATOM      3  HN  UNL     1     -41.103 -48.835  10.287  1.00  0.00     0.189 HD
HETATM    4  C   UNL     1     -39.857 -47.764  11.626  1.00  0.00     0.125 C 
HETATM    5  C   UNL     1     -39.193 -48.110  12.824  1.00  0.00     0.077 C 
HETATM    6  C   UNL     1     -39.366 -49.471  12.948  1.00  0.00     0.036 C 
ENDROOT
BRANCH   4   7
HETATM    7  N   UNL     1     -39.802 -46.528  11.018  1.00  0.00    -0.294 N 
HETATM    8  C   UNL     1     -40.783 -45.922  10.277  1.00  0.00     0.321 C 
HETATM    9  O   UNL     1     -40.559 -44.845   9.729  1.00  0.00    -0.247 OA
HETATM   10  N   UNL     1     -41.965 -46.584  10.179  1.00  0.00    -0.342 N 
HETATM   11  H   UNL     1     -42.008 -47.467  10.686  1.00  0.00     0.164 HD
HETATM   12  H   UNL     1     -38.924 -46.035  11.029  1.00  0.00     0.172 HD
BRANCH  10  13
HETATM   13  C   UNL     1     -43.113 -46.136   9.434  1.00  0.00     0.128 C 
BRANCH  13  14
HETATM   14  C   UNL     1     -44.078 -47.272   9.055  1.00  0.00    -0.005 C 
HETATM   15  C   UNL     1     -45.533 -46.801   8.969  1.00  0.00     0.011 C 
HETATM   16  C   UNL     1     -43.650 -47.866   7.711  1.00  0.00     0.011 C 
ENDBRANCH  13  14
ENDBRANCH  10  13
ENDBRANCH   4   7
BRANCH   1  17
HETATM   17  C   UNL     1     -40.739 -51.145  11.625  1.00  0.00     0.144 C 
HETATM   18  C   UNL     1     -41.949 -51.508  12.467  1.00  0.00     0.028 C 
ENDBRANCH   1  17
BRANCH   6  19
HETATM   19  C   UNL     1     -38.679 -50.414  13.921  1.00  0.00     0.037 A 
HETATM   20  C   UNL     1     -37.383 -50.043  14.600  1.00  0.00     0.011 A 
HETATM   21  C   UNL     1     -37.358 -50.999  13.457  1.00  0.00     0.011 A 
ENDBRANCH   6  19
TORSDOF 5
ENDMDL
