MODEL 1
REMARK VINA RESULT:      -6.1      0.000      0.000
REMARK  7 active torsions:
REMARK  status: ('A' for Active; 'I' for Inactive)
REMARK    1  A    between atoms: C_2  and  C_4 
REMARK    2  A    between atoms: C_4  and  O_5 
REMARK    3  A    between atoms: O_5  and  C_6 
REMARK    4  A    between atoms: C_6  and  C_8 
REMARK       I    between atoms: C_8  and  N_10 
REMARK    5  A    between atoms: N_10  and  C_11 
REMARK    6  A    between atoms: C_11  and  C_12 
REMARK    7  A    between atoms: C_15  and  N_19 
ROOT
HETATM    1  C   UNL     1     -41.710 -51.084  12.585  1.00  0.00    -0.025 A 
HETATM    2  C   UNL     1     -42.736 -50.179  12.838  1.00  0.00     0.014 A 
HETATM    3  C   UNL     1     -42.824 -49.007  12.084  1.00  0.00     0.049 A 
HETATM    4  C   UNL     1     -41.898 -48.750  11.072  1.00  0.00     0.103 A 
HETATM    5  N   UNL     1     -40.874 -49.603  10.856  1.00  0.00    -0.352 N 
ATOM      6  HN  UNL     1     -40.177 -49.408  10.137  1.00  0.00     0.166 HD
HETATM    7  C   UNL     1     -40.791 -50.726  11.612  1.00  0.00     0.098 A 
ENDROOT
BRANCH   1   8
HETATM    8  C   UNL     1     -41.626 -52.402  13.288  1.00  0.00     0.162 C 
BRANCH   8   9
HETATM    9  N   UNL     1     -42.913 -52.915  13.676  1.00  0.00    -0.355 N 
HETATM   10  C   UNL     1     -43.018 -53.928  14.600  1.00  0.00     0.246 C 
HETATM   11  O   UNL     1     -42.045 -54.398  15.188  1.00  0.00    -0.271 OA
HETATM   12  H   UNL     1     -43.767 -52.627  13.205  1.00  0.00     0.162 HD
BRANCH  10  13
HETATM   13  C   UNL     1     -44.456 -54.430  14.840  1.00  0.00     0.209 C 
HETATM   14  C   UNL     1     -45.046 -54.872  13.503  1.00  0.00     0.049 C 
BRANCH  13  15
HETATM   15  O   UNL     1     -45.258 -53.410  15.453  1.00  0.00    -0.377 OA
BRANCH  15  16
HETATM   16  C   UNL     1     -46.473 -53.150  14.746  1.00  0.00     0.172 C 
BRANCH  16  17
HETATM   17  C   UNL     1     -46.542 -51.669  14.355  1.00  0.00     0.001 C 
HETATM   18  C   UNL     1     -45.507 -50.871  15.149  1.00  0.00     0.011 C 
HETATM   19  C   UNL     1     -46.334 -51.471  12.854  1.00  0.00     0.011 C 
ENDBRANCH  16  17
ENDBRANCH  15  16
ENDBRANCH  13  15
ENDBRANCH  10  13
ENDBRANCH   8   9
ENDBRANCH   1   8
BRANCH   4  20
HETATM   20  N   UNL     1     -42.042 -47.667  10.239  1.00  0.00    -0.363 N 
HETATM   21  C   UNL     1     -41.420 -46.386  10.588  1.00  0.00     0.150 C 
HETATM   22  C   UNL     1     -42.469 -45.270  10.665  1.00  0.00     0.187 C 
HETATM   23  O   UNL     1     -43.274 -45.216   9.474  1.00  0.00    -0.388 OA
HETATM   24  C   UNL     1     -43.967 -46.462   9.298  1.00  0.00     0.187 C 
HETATM   25  C   UNL     1     -42.989 -47.638   9.126  1.00  0.00     0.150 C 
ENDBRANCH   4  20
TORSDOF 7
ENDMDL
MODEL 2
REMARK VINA RESULT:      -5.8      1.752      7.371
REMARK  7 active torsions:
REMARK  status: ('A' for Active; 'I' for Inactive)
REMARK    1  A    between atoms: C_2  and  C_4 
REMARK    2  A    between atoms: C_4  and  O_5 
REMARK    3  A    between atoms: O_5  and  C_6 
REMARK    4  A    between atoms: C_6  and  C_8 
REMARK       I    between atoms: C_8  and  N_10 
REMARK    5  A    between atoms: N_10  and  C_11 
REMARK    6  A    between atoms: C_11  and  C_12 
REMARK    7  A    between atoms: C_15  and  N_19 
ROOT
HETATM    1  C   UNL     1     -41.531 -50.996  12.031  1.00  0.00    -0.025 A 
HETATM    2  C   UNL     1     -42.571 -50.585  12.858  1.00  0.00     0.014 A 
HETATM    3  C   UNL     1     -43.371 -51.541  13.486  1.00  0.00     0.049 A 
HETATM    4  C   UNL     1     -43.121 -52.901  13.300  1.00  0.00     0.103 A 
HETATM    5  N   UNL     1     -42.142 -53.303  12.461  1.00  0.00    -0.352 N 
ATOM      6  HN  UNL     1     -41.972 -54.295  12.297  1.00  0.00     0.166 HD
HETATM    7  C   UNL     1     -41.389 -52.361  11.840  1.00  0.00     0.098 A 
ENDROOT
BRANCH   1   8
HETATM    8  C   UNL     1     -40.577 -50.021  11.414  1.00  0.00     0.162 C 
BRANCH   8   9
HETATM    9  N   UNL     1     -41.211 -49.133  10.476  1.00  0.00    -0.355 N 
HETATM   10  C   UNL     1     -41.438 -47.815  10.798  1.00  0.00     0.246 C 
HETATM   11  O   UNL     1     -41.058 -47.311  11.854  1.00  0.00    -0.271 OA
HETATM   12  H   UNL     1     -41.606 -49.471   9.603  1.00  0.00     0.162 HD
BRANCH  10  13
HETATM   13  C   UNL     1     -42.208 -47.017   9.726  1.00  0.00     0.209 C 
HETATM   14  C   UNL     1     -42.716 -45.723  10.357  1.00  0.00     0.049 C 
BRANCH  13  15
HETATM   15  O   UNL     1     -43.286 -47.795   9.186  1.00  0.00    -0.377 OA
BRANCH  15  16
HETATM   16  C   UNL     1     -44.442 -47.013   8.876  1.00  0.00     0.172 C 
BRANCH  16  17
HETATM   17  C   UNL     1     -45.697 -47.891   8.935  1.00  0.00     0.001 C 
HETATM   18  C   UNL     1     -46.929 -47.025   9.199  1.00  0.00     0.011 C 
HETATM   19  C   UNL     1     -45.879 -48.703   7.653  1.00  0.00     0.011 C 
ENDBRANCH  16  17
ENDBRANCH  15  16
ENDBRANCH  13  15
ENDBRANCH  10  13
ENDBRANCH   8   9
ENDBRANCH   1   8
BRANCH   4  20
HETATM   20  N   UNL     1     -43.815 -53.852  14.008  1.00  0.00    -0.363 N 
HETATM   21  C   UNL     1     -45.089 -54.365  13.492  1.00  0.00     0.150 C 
HETATM   22  C   UNL     1     -46.218 -54.147  14.506  1.00  0.00     0.187 C 
HETATM   23  O   UNL     1     -45.871 -54.662  15.804  1.00  0.00    -0.388 OA
HETATM   24  C   UNL     1     -44.700 -53.991  16.297  1.00  0.00     0.187 C 
HETATM   25  C   UNL     1     -43.484 -54.222  15.382  1.00  0.00     0.150 C 
ENDBRANCH   4  20
TORSDOF 7
ENDMDL
MODEL 3
REMARK VINA RESULT:      -5.7      1.545      2.059
REMARK  7 active torsions:
REMARK  status: ('A' for Active; 'I' for Inactive)
REMARK    1  A    between atoms: C_2  and  C_4 
REMARK    2  A    between atoms: C_4  and  O_5 
REMARK    3  A    between atoms: O_5  and  C_6 
REMARK    4  A    between atoms: C_6  and  C_8 
REMARK       I    between atoms: C_8  and  N_10 
REMARK    5  A    between atoms: N_10  and  C_11 
REMARK    6  A    between atoms: C_11  and  C_12 
REMARK    7  A    between atoms: C_15  and  N_19 
ROOT
HETATM    1  C   UNL     1     -41.085 -50.078  11.857  1.00  0.00    -0.025 A 
HETATM    2  C   UNL     1     -42.295 -49.395  11.924  1.00  0.00     0.014 A 
HETATM    3  C   UNL     1     -42.354 -48.058  11.525  1.00  0.00     0.049 A 
HETATM    4  C   UNL     1     -41.212 -47.414  11.049  1.00  0.00     0.103 A 
HETATM    5  N   UNL     1     -40.027 -48.060  11.027  1.00  0.00    -0.352 N 
ATOM      6  HN  UNL     1     -39.182 -47.587  10.707  1.00  0.00     0.166 HD
HETATM    7  C   UNL     1     -39.982 -49.351  11.439  1.00  0.00     0.098 A 
ENDROOT
BRANCH   1   8
HETATM    8  C   UNL     1     -40.982 -51.538  12.171  1.00  0.00     0.162 C 
BRANCH   8   9
HETATM    9  N   UNL     1     -42.179 -52.070  12.767  1.00  0.00    -0.355 N 
HETATM   10  C   UNL     1     -42.120 -53.137  13.632  1.00  0.00     0.246 C 
HETATM   11  O   UNL     1     -41.059 -53.644  13.995  1.00  0.00    -0.271 OA
HETATM   12  H   UNL     1     -43.102 -51.752  12.486  1.00  0.00     0.162 HD
BRANCH  10  13
HETATM   13  C   UNL     1     -43.493 -53.649  14.113  1.00  0.00     0.209 C 
HETATM   14  C   UNL     1     -43.290 -54.982  14.829  1.00  0.00     0.049 C 
BRANCH  13  15
HETATM   15  O   UNL     1     -44.403 -53.781  13.011  1.00  0.00    -0.377 OA
BRANCH  15  16
HETATM   16  C   UNL     1     -45.757 -53.482  13.362  1.00  0.00     0.172 C 
BRANCH  16  17
HETATM   17  C   UNL     1     -46.017 -51.980  13.198  1.00  0.00     0.001 C 
HETATM   18  C   UNL     1     -46.860 -51.730  11.948  1.00  0.00     0.011 C 
HETATM   19  C   UNL     1     -46.699 -51.387  14.431  1.00  0.00     0.011 C 
ENDBRANCH  16  17
ENDBRANCH  15  16
ENDBRANCH  13  15
ENDBRANCH  10  13
ENDBRANCH   8   9
ENDBRANCH   1   8
BRANCH   4  20
HETATM   20  N   UNL     1     -41.279 -46.141  10.535  1.00  0.00    -0.363 N 
HETATM   21  C   UNL     1     -40.049 -45.374  10.316  1.00  0.00     0.150 C 
HETATM   22  C   UNL     1     -40.084 -44.048  11.085  1.00  0.00     0.187 C 
HETATM   23  O   UNL     1     -41.286 -43.306  10.807  1.00  0.00    -0.388 OA
HETATM   24  C   UNL     1     -42.435 -44.075  11.198  1.00  0.00     0.187 C 
HETATM   25  C   UNL     1     -42.530 -45.396  10.413  1.00  0.00     0.150 C 
ENDBRANCH   4  20
TORSDOF 7
ENDMDL
MODEL 4
REMARK VINA RESULT:      -5.3      2.073      2.655
REMARK  7 active torsions:
REMARK  status: ('A' for Active; 'I' for Inactive)
REMARK    1  A    between atoms: C_2  and  C_4 
REMARK    2  A    between atoms: C_4  and  O_5 
REMARK    3  A    between atoms: O_5  and  C_6 
REMARK    4  A    between atoms: C_6  and  C_8 
REMARK       I    between atoms: C_8  and  N_10 
REMARK    5  A    between atoms: N_10  and  C_11 
REMARK    6  A    between atoms: C_11  and  C_12 
REMARK    7  A    between atoms: C_15  and  N_19 
ROOT
HETATM    1  C   UNL     1     -39.403 -49.549  12.811  1.00  0.00    -0.025 A 
HETATM    2  C   UNL     1     -39.188 -48.288  13.358  1.00  0.00     0.014 A 
HETATM    3  C   UNL     1     -39.573 -47.152  12.645  1.00  0.00     0.049 A 
HETATM    4  C   UNL     1     -40.185 -47.278  11.397  1.00  0.00     0.103 A 
HETATM    5  N   UNL     1     -40.353 -48.498  10.843  1.00  0.00    -0.352 N 
ATOM      6  HN  UNL     1     -40.773 -48.596   9.918  1.00  0.00     0.166 HD
HETATM    7  C   UNL     1     -39.952 -49.590  11.539  1.00  0.00     0.098 A 
ENDROOT
BRANCH   1   8
HETATM    8  C   UNL     1     -39.107 -50.803  13.571  1.00  0.00     0.162 C 
BRANCH   8   9
HETATM    9  N   UNL     1     -40.290 -51.443  14.082  1.00  0.00    -0.355 N 
HETATM   10  C   UNL     1     -40.545 -52.768  13.817  1.00  0.00     0.246 C 
HETATM   11  O   UNL     1     -39.759 -53.488  13.200  1.00  0.00    -0.271 OA
HETATM   12  H   UNL     1     -41.020 -50.917  14.554  1.00  0.00     0.162 HD
BRANCH  10  13
HETATM   13  C   UNL     1     -41.895 -53.282  14.355  1.00  0.00     0.209 C 
HETATM   14  C   UNL     1     -42.643 -53.968  13.214  1.00  0.00     0.049 C 
BRANCH  13  15
HETATM   15  O   UNL     1     -42.665 -52.207  14.912  1.00  0.00    -0.377 OA
BRANCH  15  16
HETATM   16  C   UNL     1     -44.074 -52.447  14.874  1.00  0.00     0.172 C 
BRANCH  16  17
HETATM   17  C   UNL     1     -44.810 -51.165  14.465  1.00  0.00     0.001 C 
HETATM   18  C   UNL     1     -44.050 -50.465  13.338  1.00  0.00     0.011 C 
HETATM   19  C   UNL     1     -46.250 -51.451  14.042  1.00  0.00     0.011 C 
ENDBRANCH  16  17
ENDBRANCH  15  16
ENDBRANCH  13  15
ENDBRANCH  10  13
ENDBRANCH   8   9
ENDBRANCH   1   8
BRANCH   4  20
HETATM   20  N   UNL     1     -40.684 -46.180  10.739  1.00  0.00    -0.363 N 
HETATM   21  C   UNL     1     -39.785 -45.091  10.344  1.00  0.00     0.150 C 
HETATM   22  C   UNL     1     -40.241 -43.757  10.947  1.00  0.00     0.187 C 
HETATM   23  O   UNL     1     -41.627 -43.493  10.665  1.00  0.00    -0.388 OA
HETATM   24  C   UNL     1     -42.444 -44.534  11.225  1.00  0.00     0.187 C 
HETATM   25  C   UNL     1     -42.115 -45.908  10.615  1.00  0.00     0.150 C 
ENDBRANCH   4  20
TORSDOF 7
ENDMDL
MODEL 5
REMARK VINA RESULT:      -5.2      1.580      2.066
REMARK  7 active torsions:
REMARK  status: ('A' for Active; 'I' for Inactive)
REMARK    1  A    between atoms: C_2  and  C_4 
REMARK    2  A    between atoms: C_4  and  O_5 
REMARK    3  A    between atoms: O_5  and  C_6 
REMARK    4  A    between atoms: C_6  and  C_8 
REMARK       I    between atoms: C_8  and  N_10 
REMARK    5  A    between atoms: N_10  and  C_11 
REMARK    6  A    between atoms: C_11  and  C_12 
REMARK    7  A    between atoms: C_15  and  N_19 
ROOT
HETATM    1  C   UNL     1     -41.514 -50.789  12.094  1.00  0.00    -0.025 A 
HETATM    2  C   UNL     1     -42.364 -50.000  12.863  1.00  0.00     0.014 A 
HETATM    3  C   UNL     1     -42.209 -48.613  12.857  1.00  0.00     0.049 A 
HETATM    4  C   UNL     1     -41.220 -48.018  12.074  1.00  0.00     0.103 A 
HETATM    5  N   UNL     1     -40.364 -48.783  11.364  1.00  0.00    -0.352 N 
ATOM      6  HN  UNL     1     -39.620 -48.356  10.812  1.00  0.00     0.166 HD
HETATM    7  C   UNL     1     -40.513 -50.130  11.398  1.00  0.00     0.098 A 
ENDROOT
BRANCH   1   8
HETATM    8  C   UNL     1     -41.697 -52.270  11.979  1.00  0.00     0.162 C 
BRANCH   8   9
HETATM    9  N   UNL     1     -43.074 -52.674  12.070  1.00  0.00    -0.355 N 
HETATM   10  C   UNL     1     -43.519 -53.424  13.134  1.00  0.00     0.246 C 
HETATM   11  O   UNL     1     -42.799 -53.726  14.085  1.00  0.00    -0.271 OA
HETATM   12  H   UNL     1     -43.729 -52.518  11.308  1.00  0.00     0.162 HD
BRANCH  10  13
HETATM   13  C   UNL     1     -44.996 -53.856  13.040  1.00  0.00     0.209 C 
HETATM   14  C   UNL     1     -45.794 -52.722  12.401  1.00  0.00     0.049 C 
BRANCH  13  15
HETATM   15  O   UNL     1     -45.513 -54.193  14.336  1.00  0.00    -0.377 OA
BRANCH  15  16
HETATM   16  C   UNL     1     -46.720 -53.497  14.658  1.00  0.00     0.172 C 
BRANCH  16  17
HETATM   17  C   UNL     1     -46.553 -52.751  15.987  1.00  0.00     0.001 C 
HETATM   18  C   UNL     1     -45.358 -53.317  16.756  1.00  0.00     0.011 C 
HETATM   19  C   UNL     1     -46.388 -51.247  15.773  1.00  0.00     0.011 C 
ENDBRANCH  16  17
ENDBRANCH  15  16
ENDBRANCH  13  15
ENDBRANCH  10  13
ENDBRANCH   8   9
ENDBRANCH   1   8
BRANCH   4  20
HETATM   20  N   UNL     1     -41.136 -46.651  11.958  1.00  0.00    -0.363 N 
HETATM   21  C   UNL     1     -42.357 -45.839  11.945  1.00  0.00     0.150 C 
HETATM   22  C   UNL     1     -42.441 -44.995  10.669  1.00  0.00     0.187 C 
HETATM   23  O   UNL     1     -41.239 -44.233  10.457  1.00  0.00    -0.388 OA
HETATM   24  C   UNL     1     -40.116 -45.121  10.327  1.00  0.00     0.187 C 
HETATM   25  C   UNL     1     -39.900 -45.956  11.601  1.00  0.00     0.150 C 
ENDBRANCH   4  20
TORSDOF 7
ENDMDL
MODEL 6
REMARK VINA RESULT:      -5.2      2.923      7.353
REMARK  7 active torsions:
REMARK  status: ('A' for Active; 'I' for Inactive)
REMARK    1  A    between atoms: C_2  and  C_4 
REMARK    2  A    between atoms: C_4  and  O_5 
REMARK    3  A    between atoms: O_5  and  C_6 
REMARK    4  A    between atoms: C_6  and  C_8 
REMARK       I    between atoms: C_8  and  N_10 
REMARK    5  A    between atoms: N_10  and  C_11 
REMARK    6  A    between atoms: C_11  and  C_12 
REMARK    7  A    between atoms: C_15  and  N_19 
ROOT
HETATM    1  C   UNL     1     -40.408 -52.972  14.107  1.00  0.00    -0.025 A 
HETATM    2  C   UNL     1     -40.858 -54.022  13.313  1.00  0.00     0.014 A 
HETATM    3  C   UNL     1     -42.229 -54.264  13.202  1.00  0.00     0.049 A 
HETATM    4  C   UNL     1     -43.144 -53.451  13.870  1.00  0.00     0.103 A 
HETATM    5  N   UNL     1     -42.709 -52.461  14.679  1.00  0.00    -0.352 N 
ATOM      6  HN  UNL     1     -43.372 -51.881  15.194  1.00  0.00     0.166 HD
HETATM    7  C   UNL     1     -41.374 -52.254  14.794  1.00  0.00     0.098 A 
ENDROOT
BRANCH   1   8
HETATM    8  C   UNL     1     -38.961 -52.600  14.182  1.00  0.00     0.162 C 
BRANCH   8   9
HETATM    9  N   UNL     1     -38.711 -51.237  13.794  1.00  0.00    -0.355 N 
HETATM   10  C   UNL     1     -37.719 -50.933  12.891  1.00  0.00     0.246 C 
HETATM   11  O   UNL     1     -37.050 -51.793  12.320  1.00  0.00    -0.271 OA
HETATM   12  H   UNL     1     -39.176 -50.458  14.251  1.00  0.00     0.162 HD
BRANCH  10  13
HETATM   13  C   UNL     1     -37.514 -49.424  12.649  1.00  0.00     0.209 C 
HETATM   14  C   UNL     1     -37.714 -48.689  13.972  1.00  0.00     0.049 C 
BRANCH  13  15
HETATM   15  O   UNL     1     -38.413 -48.941  11.640  1.00  0.00    -0.377 OA
BRANCH  15  16
HETATM   16  C   UNL     1     -39.577 -48.310  12.181  1.00  0.00     0.172 C 
BRANCH  16  17
HETATM   17  C   UNL     1     -39.886 -47.028  11.399  1.00  0.00     0.001 C 
HETATM   18  C   UNL     1     -41.273 -47.126  10.764  1.00  0.00     0.011 C 
HETATM   19  C   UNL     1     -39.789 -45.788  12.286  1.00  0.00     0.011 C 
ENDBRANCH  16  17
ENDBRANCH  15  16
ENDBRANCH  13  15
ENDBRANCH  10  13
ENDBRANCH   8   9
ENDBRANCH   1   8
BRANCH   4  20
HETATM   20  N   UNL     1     -44.496 -53.596  13.673  1.00  0.00    -0.363 N 
HETATM   21  C   UNL     1     -45.306 -52.440  13.275  1.00  0.00     0.150 C 
HETATM   22  C   UNL     1     -46.437 -52.191  14.279  1.00  0.00     0.187 C 
HETATM   23  O   UNL     1     -47.208 -53.383  14.516  1.00  0.00    -0.388 OA
HETATM   24  C   UNL     1     -46.360 -54.412  15.051  1.00  0.00     0.187 C 
HETATM   25  C   UNL     1     -45.236 -54.791  14.071  1.00  0.00     0.150 C 
ENDBRANCH   4  20
TORSDOF 7
ENDMDL
MODEL 7
REMARK VINA RESULT:      -5.1      3.183      4.271
REMARK  7 active torsions:
REMARK  status: ('A' for Active; 'I' for Inactive)
REMARK    1  A    between atoms: C_2  and  C_4 
REMARK    2  A    between atoms: C_4  and  O_5 
REMARK    3  A    between atoms: O_5  and  C_6 
REMARK    4  A    between atoms: C_6  and  C_8 
REMARK       I    between atoms: C_8  and  N_10 
REMARK    5  A    between atoms: N_10  and  C_11 
REMARK    6  A    between atoms: C_11  and  C_12 
REMARK    7  A    between atoms: C_15  and  N_19 
ROOT
HETATM    1  C   UNL     1     -42.800 -53.547  13.041  1.00  0.00    -0.025 A 
HETATM    2  C   UNL     1     -41.547 -53.914  13.522  1.00  0.00     0.014 A 
HETATM    3  C   UNL     1     -40.437 -53.119  13.230  1.00  0.00     0.049 A 
HETATM    4  C   UNL     1     -40.583 -51.955  12.475  1.00  0.00     0.103 A 
HETATM    5  N   UNL     1     -41.789 -51.621  11.968  1.00  0.00    -0.352 N 
ATOM      6  HN  UNL     1     -41.898 -50.787  11.391  1.00  0.00     0.166 HD
HETATM    7  C   UNL     1     -42.852 -52.417  12.241  1.00  0.00     0.098 A 
ENDROOT
BRANCH   1   8
HETATM    8  C   UNL     1     -44.040 -54.300  13.407  1.00  0.00     0.162 C 
BRANCH   8   9
HETATM    9  N   UNL     1     -45.127 -53.440  13.789  1.00  0.00    -0.355 N 
HETATM   10  C   UNL     1     -45.819 -53.656  14.958  1.00  0.00     0.246 C 
HETATM   11  O   UNL     1     -45.511 -54.534  15.763  1.00  0.00    -0.271 OA
HETATM   12  H   UNL     1     -45.488 -52.724  13.163  1.00  0.00     0.162 HD
BRANCH  10  13
HETATM   13  C   UNL     1     -47.014 -52.707  15.180  1.00  0.00     0.209 C 
HETATM   14  C   UNL     1     -46.837 -51.485  14.283  1.00  0.00     0.049 C 
BRANCH  13  15
HETATM   15  O   UNL     1     -47.118 -52.331  16.561  1.00  0.00    -0.377 OA
BRANCH  15  16
HETATM   16  C   UNL     1     -47.022 -50.919  16.767  1.00  0.00     0.172 C 
BRANCH  16  17
HETATM   17  C   UNL     1     -45.812 -50.603  17.654  1.00  0.00     0.001 C 
HETATM   18  C   UNL     1     -45.341 -51.871  18.367  1.00  0.00     0.011 C 
HETATM   19  C   UNL     1     -44.669 -49.985  16.850  1.00  0.00     0.011 C 
ENDBRANCH  16  17
ENDBRANCH  15  16
ENDBRANCH  13  15
ENDBRANCH  10  13
ENDBRANCH   8   9
ENDBRANCH   1   8
BRANCH   4  20
HETATM   20  N   UNL     1     -39.527 -51.096  12.286  1.00  0.00    -0.363 N 
HETATM   21  C   UNL     1     -38.314 -51.235  13.099  1.00  0.00     0.150 C 
HETATM   22  C   UNL     1     -38.009 -49.936  13.854  1.00  0.00     0.187 C 
HETATM   23  O   UNL     1     -37.985 -48.802  12.970  1.00  0.00    -0.388 OA
HETATM   24  C   UNL     1     -39.264 -48.653  12.333  1.00  0.00     0.187 C 
HETATM   25  C   UNL     1     -39.622 -49.882  11.479  1.00  0.00     0.150 C 
ENDBRANCH   4  20
TORSDOF 7
ENDMDL
MODEL 8
REMARK VINA RESULT:      -5.0      3.482      4.493
REMARK  7 active torsions:
REMARK  status: ('A' for Active; 'I' for Inactive)
REMARK    1  A    between atoms: C_2  and  C_4 
REMARK    2  A    between atoms: C_4  and  O_5 
REMARK    3  A    between atoms: O_5  and  C_6 
REMARK    4  A    between atoms: C_6  and  C_8 
REMARK       I    between atoms: C_8  and  N_10 
REMARK    5  A    between atoms: N_10  and  C_11 
REMARK    6  A    between atoms: C_11  and  C_12 
REMARK    7  A    between atoms: C_15  and  N_19 
ROOT
HETATM    1  C   UNL     1     -41.906 -53.836  14.260  1.00  0.00    -0.025 A 
HETATM    2  C   UNL     1     -41.181 -53.309  15.323  1.00  0.00     0.014 A 
HETATM    3  C   UNL     1     -40.168 -52.381  15.074  1.00  0.00     0.049 A 
HETATM    4  C   UNL     1     -39.893 -51.972  13.769  1.00  0.00     0.103 A 
HETATM    5  N   UNL     1     -40.564 -52.516  12.731  1.00  0.00    -0.352 N 
ATOM      6  HN  UNL     1     -40.348 -52.243  11.772  1.00  0.00     0.166 HD
HETATM    7  C   UNL     1     -41.529 -53.433  12.989  1.00  0.00     0.098 A 
ENDROOT
BRANCH   1   8
HETATM    8  C   UNL     1     -43.070 -54.753  14.472  1.00  0.00     0.162 C 
BRANCH   8   9
HETATM    9  N   UNL     1     -44.300 -54.050  14.719  1.00  0.00    -0.355 N 
HETATM   10  C   UNL     1     -45.174 -53.776  13.692  1.00  0.00     0.246 C 
HETATM   11  O   UNL     1     -44.992 -54.169  12.540  1.00  0.00    -0.271 OA
HETATM   12  H   UNL     1     -44.509 -53.641  15.626  1.00  0.00     0.162 HD
BRANCH  10  13
HETATM   13  C   UNL     1     -46.401 -52.937  14.101  1.00  0.00     0.209 C 
HETATM   14  C   UNL     1     -46.546 -51.779  13.116  1.00  0.00     0.049 C 
BRANCH  13  15
HETATM   15  O   UNL     1     -46.270 -52.463  15.449  1.00  0.00    -0.377 OA
BRANCH  15  16
HETATM   16  C   UNL     1     -47.218 -51.445  15.781  1.00  0.00     0.172 C 
BRANCH  16  17
HETATM   17  C   UNL     1     -47.673 -51.612  17.235  1.00  0.00     0.001 C 
HETATM   18  C   UNL     1     -46.561 -52.259  18.060  1.00  0.00     0.011 C 
HETATM   19  C   UNL     1     -48.090 -50.278  17.853  1.00  0.00     0.011 C 
ENDBRANCH  16  17
ENDBRANCH  15  16
ENDBRANCH  13  15
ENDBRANCH  10  13
ENDBRANCH   8   9
ENDBRANCH   1   8
BRANCH   4  20
HETATM   20  N   UNL     1     -38.988 -50.968  13.517  1.00  0.00    -0.363 N 
HETATM   21  C   UNL     1     -39.437 -49.573  13.463  1.00  0.00     0.150 C 
HETATM   22  C   UNL     1     -39.088 -48.937  12.113  1.00  0.00     0.187 C 
HETATM   23  O   UNL     1     -37.697 -49.109  11.789  1.00  0.00    -0.388 OA
HETATM   24  C   UNL     1     -37.384 -50.509  11.711  1.00  0.00     0.187 C 
HETATM   25  C   UNL     1     -37.626 -51.222  13.054  1.00  0.00     0.150 C 
ENDBRANCH   4  20
TORSDOF 7
ENDMDL
MODEL 9
REMARK VINA RESULT:      -5.0      2.375      3.574
REMARK  7 active torsions:
REMARK  status: ('A' for Active; 'I' for Inactive)
REMARK    1  A    between atoms: C_2  and  C_4 
REMARK    2  A    between atoms: C_4  and  O_5 
REMARK    3  A    between atoms: O_5  and  C_6 
REMARK    4  A    between atoms: C_6  and  C_8 
REMARK       I    between atoms: C_8  and  N_10 
REMARK    5  A    between atoms: N_10  and  C_11 
REMARK    6  A    between atoms: C_11  and  C_12 
REMARK    7  A    between atoms: C_15  and  N_19 
ROOT
HETATM    1  C   UNL     1     -39.859 -49.771  12.352  1.00  0.00    -0.025 A 
HETATM    2  C   UNL     1     -39.257 -48.603  12.809  1.00  0.00     0.014 A 
HETATM    3  C   UNL     1     -39.533 -47.391  12.173  1.00  0.00     0.049 A 
HETATM    4  C   UNL     1     -40.416 -47.347  11.094  1.00  0.00     0.103 A 
HETATM    5  N   UNL     1     -40.965 -48.486  10.618  1.00  0.00    -0.352 N 
ATOM      6  HN  UNL     1     -41.589 -48.465   9.812  1.00  0.00     0.166 HD
HETATM    7  C   UNL     1     -40.669 -49.657  11.233  1.00  0.00     0.098 A 
ENDROOT
BRANCH   1   8
HETATM    8  C   UNL     1     -39.684 -51.080  13.056  1.00  0.00     0.162 C 
BRANCH   8   9
HETATM    9  N   UNL     1     -40.922 -51.791  13.233  1.00  0.00    -0.355 N 
HETATM   10  C   UNL     1     -40.956 -53.166  13.195  1.00  0.00     0.246 C 
HETATM   11  O   UNL     1     -39.942 -53.855  13.081  1.00  0.00    -0.271 OA
HETATM   12  H   UNL     1     -41.814 -51.308  13.279  1.00  0.00     0.162 HD
BRANCH  10  13
HETATM   13  C   UNL     1     -42.367 -53.776  13.308  1.00  0.00     0.209 C 
HETATM   14  C   UNL     1     -43.335 -52.910  12.506  1.00  0.00     0.049 C 
BRANCH  13  15
HETATM   15  O   UNL     1     -42.772 -53.878  14.681  1.00  0.00    -0.377 OA
BRANCH  15  16
HETATM   16  C   UNL     1     -42.613 -55.194  15.218  1.00  0.00     0.172 C 
BRANCH  16  17
HETATM   17  C   UNL     1     -41.736 -55.142  16.474  1.00  0.00     0.001 C 
HETATM   18  C   UNL     1     -42.311 -56.063  17.550  1.00  0.00     0.011 C 
HETATM   19  C   UNL     1     -40.287 -55.518  16.167  1.00  0.00     0.011 C 
ENDBRANCH  16  17
ENDBRANCH  15  16
ENDBRANCH  13  15
ENDBRANCH  10  13
ENDBRANCH   8   9
ENDBRANCH   1   8
BRANCH   4  20
HETATM   20  N   UNL     1     -40.795 -46.149  10.538  1.00  0.00    -0.363 N 
HETATM   21  C   UNL     1     -39.798 -45.098  10.311  1.00  0.00     0.150 C 
HETATM   22  C   UNL     1     -40.190 -43.805  11.035  1.00  0.00     0.187 C 
HETATM   23  O   UNL     1     -41.534 -43.404  10.715  1.00  0.00    -0.388 OA
HETATM   24  C   UNL     1     -42.457 -44.431  11.114  1.00  0.00     0.187 C 
HETATM   25  C   UNL     1     -42.192 -45.754  10.373  1.00  0.00     0.150 C 
ENDBRANCH   4  20
TORSDOF 7
ENDMDL
