MODEL 1
REMARK VINA RESULT:      -5.2      0.000      0.000
REMARK  4 active torsions:
REMARK  status: ('A' for Active; 'I' for Inactive)
REMARK    1  A    between atoms: C_2  and  N_3 
REMARK    2  A    between atoms: N_6  and  C_7 
REMARK    3  A    between atoms: C_7  and  C_8 
REMARK    4  A    between atoms: C_8  and  O_10 
ROOT
HETATM    1  N   UNL     1     -40.800 -45.900  10.721  1.00  0.00    -0.298 N 
HETATM    2  C   UNL     1     -42.129 -45.801  10.255  1.00  0.00     0.330 A 
HETATM    3  O   UNL     1     -42.682 -44.809   9.807  1.00  0.00    -0.246 OA
HETATM    4  N   UNL     1     -42.705 -47.079  10.428  1.00  0.00    -0.295 N 
HETATM    5  C   UNL     1     -41.764 -47.925  11.029  1.00  0.00     0.066 A 
HETATM    6  C   UNL     1     -41.869 -49.241  11.429  1.00  0.00     0.032 A 
HETATM    7  C   UNL     1     -40.743 -49.824  12.020  1.00  0.00     0.002 A 
HETATM    8  C   UNL     1     -39.548 -49.093  12.185  1.00  0.00     0.002 A 
HETATM    9  C   UNL     1     -39.458 -47.760  11.773  1.00  0.00     0.032 A 
HETATM   10  C   UNL     1     -40.583 -47.198  11.204  1.00  0.00     0.065 A 
ENDROOT
BRANCH   4  11
HETATM   11  C   UNL     1     -44.053 -47.428  10.060  1.00  0.00     0.165 C 
BRANCH  11  12
HETATM   12  C   UNL     1     -44.379 -47.228   8.571  1.00  0.00     0.132 C 
HETATM   13  C   UNL     1     -43.441 -47.974   7.631  1.00  0.00     0.041 C 
BRANCH  12  14
HETATM   14  O   UNL     1     -45.719 -47.672   8.321  1.00  0.00    -0.394 OA
HETATM   15  H   UNL     1     -45.871 -47.625   7.361  1.00  0.00     0.210 HD
ENDBRANCH  12  14
ENDBRANCH  11  12
ENDBRANCH   4  11
BRANCH   1  16
HETATM   16  C   UNL     1     -39.871 -44.803  10.800  1.00  0.00     0.130 C 
HETATM   17  C   UNL     1     -39.083 -44.629   9.512  1.00  0.00     0.027 C 
ENDBRANCH   1  16
TORSDOF 4
ENDMDL
MODEL 2
REMARK VINA RESULT:      -5.0      5.846      7.946
REMARK  4 active torsions:
REMARK  status: ('A' for Active; 'I' for Inactive)
REMARK    1  A    between atoms: C_2  and  N_3 
REMARK    2  A    between atoms: N_6  and  C_7 
REMARK    3  A    between atoms: C_7  and  C_8 
REMARK    4  A    between atoms: C_8  and  O_10 
ROOT
HETATM    1  N   UNL     1     -40.867 -54.385  14.573  1.00  0.00    -0.298 N 
HETATM    2  C   UNL     1     -40.237 -53.504  13.668  1.00  0.00     0.330 A 
HETATM    3  O   UNL     1     -39.060 -53.177  13.655  1.00  0.00    -0.246 OA
HETATM    4  N   UNL     1     -41.244 -53.058  12.784  1.00  0.00    -0.295 N 
HETATM    5  C   UNL     1     -42.469 -53.617  13.171  1.00  0.00     0.066 A 
HETATM    6  C   UNL     1     -43.735 -53.450  12.648  1.00  0.00     0.032 A 
HETATM    7  C   UNL     1     -44.781 -54.144  13.266  1.00  0.00     0.002 A 
HETATM    8  C   UNL     1     -44.541 -54.986  14.371  1.00  0.00     0.002 A 
HETATM    9  C   UNL     1     -43.252 -55.145  14.888  1.00  0.00     0.032 A 
HETATM   10  C   UNL     1     -42.235 -54.444  14.273  1.00  0.00     0.065 A 
ENDROOT
BRANCH   4  11
HETATM   11  C   UNL     1     -41.028 -52.155  11.683  1.00  0.00     0.165 C 
BRANCH  11  12
HETATM   12  C   UNL     1     -41.046 -50.667  12.067  1.00  0.00     0.132 C 
HETATM   13  C   UNL     1     -39.940 -49.850  11.413  1.00  0.00     0.041 C 
BRANCH  12  14
HETATM   14  O   UNL     1     -42.309 -50.101  11.694  1.00  0.00    -0.394 OA
HETATM   15  H   UNL     1     -42.916 -50.211  12.446  1.00  0.00     0.210 HD
ENDBRANCH  12  14
ENDBRANCH  11  12
ENDBRANCH   4  11
BRANCH   1  16
HETATM   16  C   UNL     1     -40.221 -55.013  15.697  1.00  0.00     0.130 C 
HETATM   17  C   UNL     1     -40.220 -54.118  16.926  1.00  0.00     0.027 C 
ENDBRANCH   1  16
TORSDOF 4
ENDMDL
MODEL 3
REMARK VINA RESULT:      -5.0      7.020      8.853
REMARK  4 active torsions:
REMARK  status: ('A' for Active; 'I' for Inactive)
REMARK    1  A    between atoms: C_2  and  N_3 
REMARK    2  A    between atoms: N_6  and  C_7 
REMARK    3  A    between atoms: C_7  and  C_8 
REMARK    4  A    between atoms: C_8  and  O_10 
ROOT
HETATM    1  N   UNL     1     -45.237 -53.393  14.453  1.00  0.00    -0.298 N 
HETATM    2  C   UNL     1     -44.358 -53.561  13.361  1.00  0.00     0.330 A 
HETATM    3  O   UNL     1     -44.598 -53.351  12.182  1.00  0.00    -0.246 OA
HETATM    4  N   UNL     1     -43.144 -54.040  13.899  1.00  0.00    -0.295 N 
HETATM    5  C   UNL     1     -43.294 -54.205  15.283  1.00  0.00     0.066 A 
HETATM    6  C   UNL     1     -42.410 -54.682  16.229  1.00  0.00     0.032 A 
HETATM    7  C   UNL     1     -42.858 -54.741  17.553  1.00  0.00     0.002 A 
HETATM    8  C   UNL     1     -44.158 -54.319  17.900  1.00  0.00     0.002 A 
HETATM    9  C   UNL     1     -45.041 -53.838  16.929  1.00  0.00     0.032 A 
HETATM   10  C   UNL     1     -44.586 -53.798  15.627  1.00  0.00     0.065 A 
ENDROOT
BRANCH   4  11
HETATM   11  C   UNL     1     -41.962 -54.328  13.129  1.00  0.00     0.165 C 
BRANCH  11  12
HETATM   12  C   UNL     1     -41.137 -53.091  12.741  1.00  0.00     0.132 C 
HETATM   13  C   UNL     1     -40.000 -52.782  13.706  1.00  0.00     0.041 C 
BRANCH  12  14
HETATM   14  O   UNL     1     -40.581 -53.288  11.435  1.00  0.00    -0.394 OA
HETATM   15  H   UNL     1     -40.794 -52.503  10.902  1.00  0.00     0.210 HD
ENDBRANCH  12  14
ENDBRANCH  11  12
ENDBRANCH   4  11
BRANCH   1  16
HETATM   16  C   UNL     1     -46.616 -52.992  14.347  1.00  0.00     0.130 C 
HETATM   17  C   UNL     1     -46.784 -51.487  14.486  1.00  0.00     0.027 C 
ENDBRANCH   1  16
TORSDOF 4
ENDMDL
MODEL 4
REMARK VINA RESULT:      -5.0      5.182      7.093
REMARK  4 active torsions:
REMARK  status: ('A' for Active; 'I' for Inactive)
REMARK    1  A    between atoms: C_2  and  N_3 
REMARK    2  A    between atoms: N_6  and  C_7 
REMARK    3  A    between atoms: C_7  and  C_8 
REMARK    4  A    between atoms: C_8  and  O_10 
ROOT
HETATM    1  N   UNL     1     -42.783 -50.422  13.126  1.00  0.00    -0.298 N 
HETATM    2  C   UNL     1     -41.554 -51.069  12.872  1.00  0.00     0.330 A 
HETATM    3  O   UNL     1     -40.460 -50.545  12.734  1.00  0.00    -0.246 OA
HETATM    4  N   UNL     1     -41.843 -52.449  12.789  1.00  0.00    -0.295 N 
HETATM    5  C   UNL     1     -43.224 -52.635  12.942  1.00  0.00     0.066 A 
HETATM    6  C   UNL     1     -43.983 -53.785  12.896  1.00  0.00     0.032 A 
HETATM    7  C   UNL     1     -45.364 -53.650  13.076  1.00  0.00     0.002 A 
HETATM    8  C   UNL     1     -45.947 -52.387  13.305  1.00  0.00     0.002 A 
HETATM    9  C   UNL     1     -45.163 -51.230  13.348  1.00  0.00     0.032 A 
HETATM   10  C   UNL     1     -43.804 -51.382  13.157  1.00  0.00     0.065 A 
ENDROOT
BRANCH   4  11
HETATM   11  C   UNL     1     -40.864 -53.480  12.560  1.00  0.00     0.165 C 
BRANCH  11  12
HETATM   12  C   UNL     1     -39.979 -53.799  13.775  1.00  0.00     0.132 C 
HETATM   13  C   UNL     1     -40.725 -54.470  14.920  1.00  0.00     0.041 C 
BRANCH  12  14
HETATM   14  O   UNL     1     -38.911 -54.661  13.364  1.00  0.00    -0.394 OA
HETATM   15  H   UNL     1     -39.172 -55.076  12.524  1.00  0.00     0.210 HD
ENDBRANCH  12  14
ENDBRANCH  11  12
ENDBRANCH   4  11
BRANCH   1  16
HETATM   16  C   UNL     1     -42.961 -48.995  13.208  1.00  0.00     0.130 C 
HETATM   17  C   UNL     1     -43.091 -48.357  11.834  1.00  0.00     0.027 C 
ENDBRANCH   1  16
TORSDOF 4
ENDMDL
MODEL 5
REMARK VINA RESULT:      -4.9      1.857      3.966
REMARK  4 active torsions:
REMARK  status: ('A' for Active; 'I' for Inactive)
REMARK    1  A    between atoms: C_2  and  N_3 
REMARK    2  A    between atoms: N_6  and  C_7 
REMARK    3  A    between atoms: C_7  and  C_8 
REMARK    4  A    between atoms: C_8  and  O_10 
ROOT
HETATM    1  N   UNL     1     -43.074 -46.758   9.759  1.00  0.00    -0.298 N 
HETATM    2  C   UNL     1     -43.047 -45.349   9.850  1.00  0.00     0.330 A 
HETATM    3  O   UNL     1     -43.798 -44.561   9.298  1.00  0.00    -0.246 OA
HETATM    4  N   UNL     1     -41.962 -45.028  10.694  1.00  0.00    -0.295 N 
HETATM    5  C   UNL     1     -41.313 -46.211  11.073  1.00  0.00     0.066 A 
HETATM    6  C   UNL     1     -40.190 -46.408  11.849  1.00  0.00     0.032 A 
HETATM    7  C   UNL     1     -39.768 -47.727  12.043  1.00  0.00     0.002 A 
HETATM    8  C   UNL     1     -40.474 -48.808  11.475  1.00  0.00     0.002 A 
HETATM    9  C   UNL     1     -41.610 -48.591  10.690  1.00  0.00     0.032 A 
HETATM   10  C   UNL     1     -42.005 -47.282  10.500  1.00  0.00     0.065 A 
ENDROOT
BRANCH   4  11
HETATM   11  C   UNL     1     -41.586 -43.691  11.074  1.00  0.00     0.165 C 
BRANCH  11  12
HETATM   12  C   UNL     1     -42.428 -43.091  12.211  1.00  0.00     0.132 C 
HETATM   13  C   UNL     1     -43.440 -42.053  11.746  1.00  0.00     0.041 C 
BRANCH  12  14
HETATM   14  O   UNL     1     -43.134 -44.145  12.878  1.00  0.00    -0.394 OA
HETATM   15  H   UNL     1     -43.863 -43.741  13.380  1.00  0.00     0.210 HD
ENDBRANCH  12  14
ENDBRANCH  11  12
ENDBRANCH   4  11
BRANCH   1  16
HETATM   16  C   UNL     1     -43.979 -47.514   8.932  1.00  0.00     0.130 C 
HETATM   17  C   UNL     1     -43.375 -47.839   7.576  1.00  0.00     0.027 C 
ENDBRANCH   1  16
TORSDOF 4
ENDMDL
MODEL 6
REMARK VINA RESULT:      -4.9      7.002      8.882
REMARK  4 active torsions:
REMARK  status: ('A' for Active; 'I' for Inactive)
REMARK    1  A    between atoms: C_2  and  N_3 
REMARK    2  A    between atoms: N_6  and  C_7 
REMARK    3  A    between atoms: C_7  and  C_8 
REMARK    4  A    between atoms: C_8  and  O_10 
ROOT
HETATM    1  N   UNL     1     -44.129 -53.001  16.199  1.00  0.00    -0.298 N 
HETATM    2  C   UNL     1     -42.996 -53.652  15.666  1.00  0.00     0.330 A 
HETATM    3  O   UNL     1     -42.073 -54.155  16.289  1.00  0.00    -0.246 OA
HETATM    4  N   UNL     1     -43.128 -53.593  14.262  1.00  0.00    -0.295 N 
HETATM    5  C   UNL     1     -44.292 -52.880  13.944  1.00  0.00     0.066 A 
HETATM    6  C   UNL     1     -44.820 -52.527  12.720  1.00  0.00     0.032 A 
HETATM    7  C   UNL     1     -46.011 -51.792  12.722  1.00  0.00     0.002 A 
HETATM    8  C   UNL     1     -46.645 -51.440  13.932  1.00  0.00     0.002 A 
HETATM    9  C   UNL     1     -46.096 -51.805  15.164  1.00  0.00     0.032 A 
HETATM   10  C   UNL     1     -44.915 -52.520  15.142  1.00  0.00     0.065 A 
ENDROOT
BRANCH   4  11
HETATM   11  C   UNL     1     -42.193 -54.159  13.325  1.00  0.00     0.165 C 
BRANCH  11  12
HETATM   12  C   UNL     1     -41.012 -53.243  12.970  1.00  0.00     0.132 C 
HETATM   13  C   UNL     1     -39.757 -53.511  13.791  1.00  0.00     0.041 C 
BRANCH  12  14
HETATM   14  O   UNL     1     -40.690 -53.407  11.584  1.00  0.00    -0.394 OA
HETATM   15  H   UNL     1     -41.015 -52.623  11.110  1.00  0.00     0.210 HD
ENDBRANCH  12  14
ENDBRANCH  11  12
ENDBRANCH   4  11
BRANCH   1  16
HETATM   16  C   UNL     1     -44.361 -52.764  17.600  1.00  0.00     0.130 C 
HETATM   17  C   UNL     1     -45.229 -53.845  18.225  1.00  0.00     0.027 C 
ENDBRANCH   1  16
TORSDOF 4
ENDMDL
MODEL 7
REMARK VINA RESULT:      -4.8      6.309      8.026
REMARK  4 active torsions:
REMARK  status: ('A' for Active; 'I' for Inactive)
REMARK    1  A    between atoms: C_2  and  N_3 
REMARK    2  A    between atoms: N_6  and  C_7 
REMARK    3  A    between atoms: C_7  and  C_8 
REMARK    4  A    between atoms: C_8  and  O_10 
ROOT
HETATM    1  N   UNL     1     -41.741 -54.357  14.924  1.00  0.00    -0.298 N 
HETATM    2  C   UNL     1     -43.044 -54.622  14.450  1.00  0.00     0.330 A 
HETATM    3  O   UNL     1     -43.828 -55.457  14.874  1.00  0.00    -0.246 OA
HETATM    4  N   UNL     1     -43.260 -53.738  13.370  1.00  0.00    -0.295 N 
HETATM    5  C   UNL     1     -42.097 -52.985  13.159  1.00  0.00     0.066 A 
HETATM    6  C   UNL     1     -41.808 -52.031  12.205  1.00  0.00     0.032 A 
HETATM    7  C   UNL     1     -40.535 -51.452  12.243  1.00  0.00     0.002 A 
HETATM    8  C   UNL     1     -39.595 -51.825  13.225  1.00  0.00     0.002 A 
HETATM    9  C   UNL     1     -39.904 -52.794  14.184  1.00  0.00     0.032 A 
HETATM   10  C   UNL     1     -41.160 -53.362  14.125  1.00  0.00     0.065 A 
ENDROOT
BRANCH   4  11
HETATM   11  C   UNL     1     -44.478 -53.658  12.606  1.00  0.00     0.165 C 
BRANCH  11  12
HETATM   12  C   UNL     1     -45.650 -52.993  13.344  1.00  0.00     0.132 C 
HETATM   13  C   UNL     1     -46.498 -52.087  12.462  1.00  0.00     0.041 C 
BRANCH  12  14
HETATM   14  O   UNL     1     -46.496 -54.011  13.894  1.00  0.00    -0.394 OA
HETATM   15  H   UNL     1     -45.942 -54.591  14.445  1.00  0.00     0.210 HD
ENDBRANCH  12  14
ENDBRANCH  11  12
ENDBRANCH   4  11
BRANCH   1  16
HETATM   16  C   UNL     1     -41.082 -55.088  15.976  1.00  0.00     0.130 C 
HETATM   17  C   UNL     1     -41.364 -54.493  17.346  1.00  0.00     0.027 C 
ENDBRANCH   1  16
TORSDOF 4
ENDMDL
MODEL 8
REMARK VINA RESULT:      -4.7     12.413     15.000
REMARK  4 active torsions:
REMARK  status: ('A' for Active; 'I' for Inactive)
REMARK    1  A    between atoms: C_2  and  N_3 
REMARK    2  A    between atoms: N_6  and  C_7 
REMARK    3  A    between atoms: C_7  and  C_8 
REMARK    4  A    between atoms: C_8  and  O_10 
ROOT
HETATM    1  N   UNL     1     -49.595 -52.165  -0.791  1.00  0.00    -0.298 N 
HETATM    2  C   UNL     1     -49.377 -50.823  -0.411  1.00  0.00     0.330 A 
HETATM    3  O   UNL     1     -48.302 -50.271  -0.235  1.00  0.00    -0.246 OA
HETATM    4  N   UNL     1     -50.655 -50.243  -0.256  1.00  0.00    -0.295 N 
HETATM    5  C   UNL     1     -51.630 -51.222  -0.489  1.00  0.00     0.066 A 
HETATM    6  C   UNL     1     -53.006 -51.150  -0.418  1.00  0.00     0.032 A 
HETATM    7  C   UNL     1     -53.724 -52.317  -0.700  1.00  0.00     0.002 A 
HETATM    8  C   UNL     1     -53.062 -53.511  -1.052  1.00  0.00     0.002 A 
HETATM    9  C   UNL     1     -51.667 -53.567  -1.119  1.00  0.00     0.032 A 
HETATM   10  C   UNL     1     -50.975 -52.409  -0.827  1.00  0.00     0.065 A 
ENDROOT
BRANCH   4  11
HETATM   11  C   UNL     1     -50.895 -48.870   0.108  1.00  0.00     0.165 C 
BRANCH  11  12
HETATM   12  C   UNL     1     -50.444 -48.500   1.529  1.00  0.00     0.132 C 
HETATM   13  C   UNL     1     -49.428 -47.367   1.576  1.00  0.00     0.041 C 
BRANCH  12  14
HETATM   14  O   UNL     1     -51.589 -48.114   2.299  1.00  0.00    -0.394 OA
HETATM   15  H   UNL     1     -51.389 -48.288   3.235  1.00  0.00     0.210 HD
ENDBRANCH  12  14
ENDBRANCH  11  12
ENDBRANCH   4  11
BRANCH   1  16
HETATM   16  C   UNL     1     -48.558 -53.146  -0.980  1.00  0.00     0.130 C 
HETATM   17  C   UNL     1     -48.022 -53.141  -2.402  1.00  0.00     0.027 C 
ENDBRANCH   1  16
TORSDOF 4
ENDMDL
MODEL 9
REMARK VINA RESULT:      -4.7      6.585      8.742
REMARK  4 active torsions:
REMARK  status: ('A' for Active; 'I' for Inactive)
REMARK    1  A    between atoms: C_2  and  N_3 
REMARK    2  A    between atoms: N_6  and  C_7 
REMARK    3  A    between atoms: C_7  and  C_8 
REMARK    4  A    between atoms: C_8  and  O_10 
ROOT
HETATM    1  N   UNL     1     -41.271 -52.666  12.877  1.00  0.00    -0.298 N 
HETATM    2  C   UNL     1     -40.227 -52.999  13.767  1.00  0.00     0.330 A 
HETATM    3  O   UNL     1     -39.076 -52.594  13.738  1.00  0.00    -0.246 OA
HETATM    4  N   UNL     1     -40.774 -53.914  14.693  1.00  0.00    -0.295 N 
HETATM    5  C   UNL     1     -42.108 -54.169  14.348  1.00  0.00     0.066 A 
HETATM    6  C   UNL     1     -43.035 -55.015  14.921  1.00  0.00     0.032 A 
HETATM    7  C   UNL     1     -44.305 -55.064  14.336  1.00  0.00     0.002 A 
HETATM    8  C   UNL     1     -44.620 -54.271  13.213  1.00  0.00     0.002 A 
HETATM    9  C   UNL     1     -43.668 -53.419  12.645  1.00  0.00     0.032 A 
HETATM   10  C   UNL     1     -42.418 -53.392  13.228  1.00  0.00     0.065 A 
ENDROOT
BRANCH   4  11
HETATM   11  C   UNL     1     -40.052 -54.496  15.795  1.00  0.00     0.165 C 
BRANCH  11  12
HETATM   12  C   UNL     1     -38.620 -54.939  15.455  1.00  0.00     0.132 C 
HETATM   13  C   UNL     1     -37.993 -55.850  16.502  1.00  0.00     0.041 C 
BRANCH  12  14
HETATM   14  O   UNL     1     -38.629 -55.631  14.200  1.00  0.00    -0.394 OA
HETATM   15  H   UNL     1     -38.616 -56.585  14.387  1.00  0.00     0.210 HD
ENDBRANCH  12  14
ENDBRANCH  11  12
ENDBRANCH   4  11
BRANCH   1  16
HETATM   16  C   UNL     1     -41.130 -51.816  11.722  1.00  0.00     0.130 C 
HETATM   17  C   UNL     1     -41.483 -50.371  12.033  1.00  0.00     0.027 C 
ENDBRANCH   1  16
TORSDOF 4
ENDMDL
