MODEL 1
REMARK VINA RESULT:      -5.7      0.000      0.000
REMARK  6 active torsions:
REMARK  status: ('A' for Active; 'I' for Inactive)
REMARK    1  A    between atoms: O_1  and  C_2 
REMARK    2  A    between atoms: C_2  and  C_3 
REMARK    3  A    between atoms: C_2  and  C_12 
REMARK    4  A    between atoms: C_3  and  O_4 
REMARK    5  A    between atoms: O_4  and  C_5 
REMARK    6  A    between atoms: C_12  and  N_13 
ROOT
HETATM    1  C   UNL     1     -42.763 -55.330  15.507  1.00  0.00     0.160 C 
ENDROOT
BRANCH   1   2
HETATM    2  O   UNL     1     -42.463 -56.468  16.327  1.00  0.00    -0.392 OA
HETATM    3  H   UNL     1     -43.319 -56.784  16.678  1.00  0.00     0.210 HD
ENDBRANCH   1   2
BRANCH   1   4
HETATM    4  C   UNL     1     -43.902 -54.553  16.176  1.00  0.00     0.209 C 
BRANCH   4   5
HETATM    5  O   UNL     1     -45.073 -54.722  15.370  1.00  0.00    -0.345 OA
BRANCH   5   6
HETATM    6  C   UNL     1     -45.519 -53.627  14.679  1.00  0.00     0.107 A 
HETATM    7  C   UNL     1     -46.197 -52.539  15.232  1.00  0.00     0.040 A 
HETATM    8  C   UNL     1     -46.602 -51.474  14.417  1.00  0.00     0.003 A 
HETATM    9  C   UNL     1     -46.331 -51.488  13.050  1.00  0.00     0.003 A 
HETATM   10  C   UNL     1     -45.653 -52.567  12.491  1.00  0.00     0.045 A 
HETATM   11  C   UNL     1     -45.252 -53.624  13.305  1.00  0.00     0.149 A 
HETATM   12  F   UNL     1     -44.604 -54.656  12.745  1.00  0.00    -0.203 F 
ENDBRANCH   5   6
ENDBRANCH   4   5
ENDBRANCH   1   4
BRANCH   1  13
HETATM   13  C   UNL     1     -41.515 -54.454  15.374  1.00  0.00     0.164 C 
BRANCH  13  14
HETATM   14  N   UNL     1     -41.566 -53.605  14.199  1.00  0.00    -0.339 N 
HETATM   15  C   UNL     1     -41.174 -53.986  12.945  1.00  0.00     0.184 A 
HETATM   16  N   UNL     1     -41.366 -53.031  12.064  1.00  0.00    -0.350 N 
HETATM   17  C   UNL     1     -41.923 -51.998  12.775  1.00  0.00     0.060 A 
ATOM     18  HN  UNL     1     -41.148 -53.053  11.068  1.00  0.00     0.166 HD
HETATM   19  C   UNL     1     -42.361 -50.745  12.321  1.00  0.00     0.032 A 
HETATM   20  C   UNL     1     -42.040 -52.319  14.126  1.00  0.00     0.062 A 
HETATM   21  C   UNL     1     -42.900 -49.844  13.248  1.00  0.00     0.002 A 
HETATM   22  C   UNL     1     -42.991 -50.179  14.599  1.00  0.00     0.002 A 
HETATM   23  C   UNL     1     -42.562 -51.427  15.072  1.00  0.00     0.032 A 
ENDBRANCH  13  14
ENDBRANCH   1  13
TORSDOF 6
ENDMDL
MODEL 2
REMARK VINA RESULT:      -5.7      2.719      3.629
REMARK  6 active torsions:
REMARK  status: ('A' for Active; 'I' for Inactive)
REMARK    1  A    between atoms: O_1  and  C_2 
REMARK    2  A    between atoms: C_2  and  C_3 
REMARK    3  A    between atoms: C_2  and  C_12 
REMARK    4  A    between atoms: C_3  and  O_4 
REMARK    5  A    between atoms: O_4  and  C_5 
REMARK    6  A    between atoms: C_12  and  N_13 
ROOT
HETATM    1  C   UNL     1     -41.694 -52.442  12.061  1.00  0.00     0.160 C 
ENDROOT
BRANCH   1   2
HETATM    2  O   UNL     1     -40.692 -53.195  11.363  1.00  0.00    -0.392 OA
HETATM    3  H   UNL     1     -40.815 -52.997  10.414  1.00  0.00     0.210 HD
ENDBRANCH   1   2
BRANCH   1   4
HETATM    4  C   UNL     1     -42.557 -53.427  12.856  1.00  0.00     0.209 C 
BRANCH   4   5
HETATM    5  O   UNL     1     -43.880 -53.380  12.310  1.00  0.00    -0.345 OA
BRANCH   5   6
HETATM    6  C   UNL     1     -44.887 -52.981  13.147  1.00  0.00     0.107 A 
HETATM    7  C   UNL     1     -45.242 -51.659  13.418  1.00  0.00     0.040 A 
HETATM    8  C   UNL     1     -46.296 -51.377  14.296  1.00  0.00     0.003 A 
HETATM    9  C   UNL     1     -47.002 -52.413  14.906  1.00  0.00     0.003 A 
HETATM   10  C   UNL     1     -46.656 -53.735  14.641  1.00  0.00     0.045 A 
HETATM   11  C   UNL     1     -45.607 -54.010  13.766  1.00  0.00     0.149 A 
HETATM   12  F   UNL     1     -45.289 -55.291  13.527  1.00  0.00    -0.203 F 
ENDBRANCH   5   6
ENDBRANCH   4   5
ENDBRANCH   1   4
BRANCH   1  13
HETATM   13  C   UNL     1     -41.017 -51.438  12.998  1.00  0.00     0.164 C 
BRANCH  13  14
HETATM   14  N   UNL     1     -40.649 -50.213  12.313  1.00  0.00    -0.339 N 
HETATM   15  C   UNL     1     -39.396 -49.929  11.843  1.00  0.00     0.184 A 
HETATM   16  N   UNL     1     -39.358 -48.769  11.231  1.00  0.00    -0.350 N 
HETATM   17  C   UNL     1     -40.643 -48.292  11.291  1.00  0.00     0.060 A 
ATOM     18  HN  UNL     1     -38.548 -48.319  10.803  1.00  0.00     0.166 HD
HETATM   19  C   UNL     1     -41.174 -47.106  10.762  1.00  0.00     0.032 A 
HETATM   20  C   UNL     1     -41.475 -49.167  11.987  1.00  0.00     0.062 A 
HETATM   21  C   UNL     1     -42.533 -46.831  10.957  1.00  0.00     0.002 A 
HETATM   22  C   UNL     1     -43.345 -47.713  11.672  1.00  0.00     0.002 A 
HETATM   23  C   UNL     1     -42.834 -48.904  12.206  1.00  0.00     0.032 A 
ENDBRANCH  13  14
ENDBRANCH   1  13
TORSDOF 6
ENDMDL
MODEL 3
REMARK VINA RESULT:      -5.3      2.163      3.323
REMARK  6 active torsions:
REMARK  status: ('A' for Active; 'I' for Inactive)
REMARK    1  A    between atoms: O_1  and  C_2 
REMARK    2  A    between atoms: C_2  and  C_3 
REMARK    3  A    between atoms: C_2  and  C_12 
REMARK    4  A    between atoms: C_3  and  O_4 
REMARK    5  A    between atoms: O_4  and  C_5 
REMARK    6  A    between atoms: C_12  and  N_13 
ROOT
HETATM    1  C   UNL     1     -46.035 -54.548  14.564  1.00  0.00     0.160 C 
ENDROOT
BRANCH   1   2
HETATM    2  O   UNL     1     -47.109 -55.499  14.534  1.00  0.00    -0.392 OA
HETATM    3  H   UNL     1     -47.835 -55.106  15.056  1.00  0.00     0.210 HD
ENDBRANCH   1   2
BRANCH   1   4
HETATM    4  C   UNL     1     -45.918 -54.014  15.996  1.00  0.00     0.209 C 
BRANCH   4   5
HETATM    5  O   UNL     1     -46.034 -52.588  15.935  1.00  0.00    -0.345 OA
BRANCH   5   6
HETATM    6  C   UNL     1     -44.874 -51.873  15.802  1.00  0.00     0.107 A 
HETATM    7  C   UNL     1     -43.758 -51.973  16.634  1.00  0.00     0.040 A 
HETATM    8  C   UNL     1     -42.625 -51.184  16.393  1.00  0.00     0.003 A 
HETATM    9  C   UNL     1     -42.601 -50.294  15.320  1.00  0.00     0.003 A 
HETATM   10  C   UNL     1     -43.709 -50.189  14.484  1.00  0.00     0.045 A 
HETATM   11  C   UNL     1     -44.832 -50.976  14.728  1.00  0.00     0.149 A 
HETATM   12  F   UNL     1     -45.890 -50.855  13.912  1.00  0.00    -0.203 F 
ENDBRANCH   5   6
ENDBRANCH   4   5
ENDBRANCH   1   4
BRANCH   1  13
HETATM   13  C   UNL     1     -44.735 -55.232  14.134  1.00  0.00     0.164 C 
BRANCH  13  14
HETATM   14  N   UNL     1     -43.843 -54.323  13.439  1.00  0.00    -0.339 N 
HETATM   15  C   UNL     1     -44.187 -53.580  12.343  1.00  0.00     0.184 A 
HETATM   16  N   UNL     1     -43.197 -52.816  11.944  1.00  0.00    -0.350 N 
HETATM   17  C   UNL     1     -42.178 -53.061  12.831  1.00  0.00     0.060 A 
ATOM     18  HN  UNL     1     -43.187 -52.179  11.148  1.00  0.00     0.166 HD
HETATM   19  C   UNL     1     -40.900 -52.486  12.893  1.00  0.00     0.032 A 
HETATM   20  C   UNL     1     -42.545 -54.024  13.769  1.00  0.00     0.062 A 
HETATM   21  C   UNL     1     -40.021 -52.905  13.899  1.00  0.00     0.002 A 
HETATM   22  C   UNL     1     -40.404 -53.884  14.819  1.00  0.00     0.002 A 
HETATM   23  C   UNL     1     -41.677 -54.467  14.775  1.00  0.00     0.032 A 
ENDBRANCH  13  14
ENDBRANCH   1  13
TORSDOF 6
ENDMDL
MODEL 4
REMARK VINA RESULT:      -5.3      3.438      5.744
REMARK  6 active torsions:
REMARK  status: ('A' for Active; 'I' for Inactive)
REMARK    1  A    between atoms: O_1  and  C_2 
REMARK    2  A    between atoms: C_2  and  C_3 
REMARK    3  A    between atoms: C_2  and  C_12 
REMARK    4  A    between atoms: C_3  and  O_4 
REMARK    5  A    between atoms: O_4  and  C_5 
REMARK    6  A    between atoms: C_12  and  N_13 
ROOT
HETATM    1  C   UNL     1     -40.992 -53.127  12.677  1.00  0.00     0.160 C 
ENDROOT
BRANCH   1   2
HETATM    2  O   UNL     1     -40.581 -53.205  11.305  1.00  0.00    -0.392 OA
HETATM    3  H   UNL     1     -40.427 -52.284  11.014  1.00  0.00     0.210 HD
ENDBRANCH   1   2
BRANCH   1   4
HETATM    4  C   UNL     1     -39.891 -52.404  13.460  1.00  0.00     0.209 C 
BRANCH   4   5
HETATM    5  O   UNL     1     -39.153 -51.605  12.528  1.00  0.00    -0.345 OA
BRANCH   5   6
HETATM    6  C   UNL     1     -39.144 -50.252  12.737  1.00  0.00     0.107 A 
HETATM    7  C   UNL     1     -38.523 -49.598  13.803  1.00  0.00     0.040 A 
HETATM    8  C   UNL     1     -38.584 -48.203  13.906  1.00  0.00     0.003 A 
HETATM    9  C   UNL     1     -39.262 -47.453  12.947  1.00  0.00     0.003 A 
HETATM   10  C   UNL     1     -39.883 -48.096  11.880  1.00  0.00     0.045 A 
HETATM   11  C   UNL     1     -39.819 -49.484  11.781  1.00  0.00     0.149 A 
HETATM   12  F   UNL     1     -40.428 -50.083  10.747  1.00  0.00    -0.203 F 
ENDBRANCH   5   6
ENDBRANCH   4   5
ENDBRANCH   1   4
BRANCH   1  13
HETATM   13  C   UNL     1     -42.314 -52.361  12.770  1.00  0.00     0.164 C 
BRANCH  13  14
HETATM   14  N   UNL     1     -43.312 -53.085  13.535  1.00  0.00    -0.339 N 
HETATM   15  C   UNL     1     -43.135 -54.335  14.061  1.00  0.00     0.184 A 
HETATM   16  N   UNL     1     -44.187 -54.731  14.738  1.00  0.00    -0.350 N 
HETATM   17  C   UNL     1     -45.074 -53.686  14.663  1.00  0.00     0.060 A 
ATOM     18  HN  UNL     1     -44.318 -55.622  15.216  1.00  0.00     0.166 HD
HETATM   19  C   UNL     1     -46.346 -53.559  15.240  1.00  0.00     0.032 A 
HETATM   20  C   UNL     1     -44.562 -52.644  13.891  1.00  0.00     0.062 A 
HETATM   21  C   UNL     1     -47.073 -52.383  15.016  1.00  0.00     0.002 A 
HETATM   22  C   UNL     1     -46.548 -51.359  14.226  1.00  0.00     0.002 A 
HETATM   23  C   UNL     1     -45.278 -51.465  13.643  1.00  0.00     0.032 A 
ENDBRANCH  13  14
ENDBRANCH   1  13
TORSDOF 6
ENDMDL
MODEL 5
REMARK VINA RESULT:      -5.1      2.418      5.040
REMARK  6 active torsions:
REMARK  status: ('A' for Active; 'I' for Inactive)
REMARK    1  A    between atoms: O_1  and  C_2 
REMARK    2  A    between atoms: C_2  and  C_3 
REMARK    3  A    between atoms: C_2  and  C_12 
REMARK    4  A    between atoms: C_3  and  O_4 
REMARK    5  A    between atoms: O_4  and  C_5 
REMARK    6  A    between atoms: C_12  and  N_13 
ROOT
HETATM    1  C   UNL     1     -41.486 -53.397  12.769  1.00  0.00     0.160 C 
ENDROOT
BRANCH   1   2
HETATM    2  O   UNL     1     -40.648 -53.450  11.606  1.00  0.00    -0.392 OA
HETATM    3  H   UNL     1     -40.019 -52.707  11.690  1.00  0.00     0.210 HD
ENDBRANCH   1   2
BRANCH   1   4
HETATM    4  C   UNL     1     -40.645 -52.865  13.934  1.00  0.00     0.209 C 
BRANCH   4   5
HETATM    5  O   UNL     1     -41.333 -53.189  15.147  1.00  0.00    -0.345 OA
BRANCH   5   6
HETATM    6  C   UNL     1     -41.037 -54.390  15.731  1.00  0.00     0.107 A 
HETATM    7  C   UNL     1     -39.754 -54.857  16.022  1.00  0.00     0.040 A 
HETATM    8  C   UNL     1     -39.579 -56.110  16.625  1.00  0.00     0.003 A 
HETATM    9  C   UNL     1     -40.682 -56.900  16.943  1.00  0.00     0.003 A 
HETATM   10  C   UNL     1     -41.965 -56.442  16.658  1.00  0.00     0.045 A 
HETATM   11  C   UNL     1     -42.134 -55.195  16.059  1.00  0.00     0.149 A 
HETATM   12  F   UNL     1     -43.379 -54.775  15.790  1.00  0.00    -0.203 F 
ENDBRANCH   5   6
ENDBRANCH   4   5
ENDBRANCH   1   4
BRANCH   1  13
HETATM   13  C   UNL     1     -42.677 -52.474  12.497  1.00  0.00     0.164 C 
BRANCH  13  14
HETATM   14  N   UNL     1     -43.924 -53.034  12.983  1.00  0.00    -0.339 N 
HETATM   15  C   UNL     1     -44.394 -54.280  12.669  1.00  0.00     0.184 A 
HETATM   16  N   UNL     1     -45.526 -54.541  13.280  1.00  0.00    -0.350 N 
HETATM   17  C   UNL     1     -45.789 -53.425  14.035  1.00  0.00     0.060 A 
ATOM     18  HN  UNL     1     -46.088 -55.389  13.209  1.00  0.00     0.166 HD
HETATM   19  C   UNL     1     -46.855 -53.180  14.913  1.00  0.00     0.032 A 
HETATM   20  C   UNL     1     -44.812 -52.449  13.851  1.00  0.00     0.062 A 
HETATM   21  C   UNL     1     -46.911 -51.949  15.577  1.00  0.00     0.002 A 
HETATM   22  C   UNL     1     -45.931 -50.978  15.365  1.00  0.00     0.002 A 
HETATM   23  C   UNL     1     -44.856 -51.205  14.495  1.00  0.00     0.032 A 
ENDBRANCH  13  14
ENDBRANCH   1  13
TORSDOF 6
ENDMDL
MODEL 6
REMARK VINA RESULT:      -5.1      2.994      3.719
REMARK  6 active torsions:
REMARK  status: ('A' for Active; 'I' for Inactive)
REMARK    1  A    between atoms: O_1  and  C_2 
REMARK    2  A    between atoms: C_2  and  C_3 
REMARK    3  A    between atoms: C_2  and  C_12 
REMARK    4  A    between atoms: C_3  and  O_4 
REMARK    5  A    between atoms: O_4  and  C_5 
REMARK    6  A    between atoms: C_12  and  N_13 
ROOT
HETATM    1  C   UNL     1     -42.086 -52.746  11.828  1.00  0.00     0.160 C 
ENDROOT
BRANCH   1   2
HETATM    2  O   UNL     1     -40.771 -53.296  11.668  1.00  0.00    -0.392 OA
HETATM    3  H   UNL     1     -40.798 -54.187  12.067  1.00  0.00     0.210 HD
ENDBRANCH   1   2
BRANCH   1   4
HETATM    4  C   UNL     1     -42.892 -53.700  12.716  1.00  0.00     0.209 C 
BRANCH   4   5
HETATM    5  O   UNL     1     -44.250 -53.666  12.265  1.00  0.00    -0.345 OA
BRANCH   5   6
HETATM    6  C   UNL     1     -45.186 -53.183  13.139  1.00  0.00     0.107 A 
HETATM    7  C   UNL     1     -45.582 -51.849  13.251  1.00  0.00     0.040 A 
HETATM    8  C   UNL     1     -46.555 -51.478  14.188  1.00  0.00     0.003 A 
HETATM    9  C   UNL     1     -47.139 -52.436  15.015  1.00  0.00     0.003 A 
HETATM   10  C   UNL     1     -46.752 -53.769  14.910  1.00  0.00     0.045 A 
HETATM   11  C   UNL     1     -45.785 -54.133  13.976  1.00  0.00     0.149 A 
HETATM   12  F   UNL     1     -45.424 -55.422  13.894  1.00  0.00    -0.203 F 
ENDBRANCH   5   6
ENDBRANCH   4   5
ENDBRANCH   1   4
BRANCH   1  13
HETATM   13  C   UNL     1     -41.984 -51.362  12.475  1.00  0.00     0.164 C 
BRANCH  13  14
HETATM   14  N   UNL     1     -40.694 -50.742  12.239  1.00  0.00    -0.339 N 
HETATM   15  C   UNL     1     -40.341 -50.094  11.087  1.00  0.00     0.184 A 
HETATM   16  N   UNL     1     -39.129 -49.596  11.162  1.00  0.00    -0.350 N 
HETATM   17  C   UNL     1     -38.688 -49.918  12.422  1.00  0.00     0.060 A 
ATOM     18  HN  UNL     1     -38.624 -49.080  10.442  1.00  0.00     0.166 HD
HETATM   19  C   UNL     1     -37.472 -49.601  13.044  1.00  0.00     0.032 A 
HETATM   20  C   UNL     1     -39.642 -50.662  13.115  1.00  0.00     0.062 A 
HETATM   21  C   UNL     1     -37.246 -50.050  14.351  1.00  0.00     0.002 A 
HETATM   22  C   UNL     1     -38.208 -50.807  15.021  1.00  0.00     0.002 A 
HETATM   23  C   UNL     1     -39.431 -51.132  14.418  1.00  0.00     0.032 A 
ENDBRANCH  13  14
ENDBRANCH   1  13
TORSDOF 6
ENDMDL
MODEL 7
REMARK VINA RESULT:      -5.0      3.194      5.489
REMARK  6 active torsions:
REMARK  status: ('A' for Active; 'I' for Inactive)
REMARK    1  A    between atoms: O_1  and  C_2 
REMARK    2  A    between atoms: C_2  and  C_3 
REMARK    3  A    between atoms: C_2  and  C_12 
REMARK    4  A    between atoms: C_3  and  O_4 
REMARK    5  A    between atoms: O_4  and  C_5 
REMARK    6  A    between atoms: C_12  and  N_13 
ROOT
HETATM    1  C   UNL     1     -41.716 -53.931  13.287  1.00  0.00     0.160 C 
ENDROOT
BRANCH   1   2
HETATM    2  O   UNL     1     -40.926 -54.481  12.223  1.00  0.00    -0.392 OA
HETATM    3  H   UNL     1     -41.355 -55.324  11.974  1.00  0.00     0.210 HD
ENDBRANCH   1   2
BRANCH   1   4
HETATM    4  C   UNL     1     -40.778 -53.162  14.223  1.00  0.00     0.209 C 
BRANCH   4   5
HETATM    5  O   UNL     1     -40.827 -51.781  13.845  1.00  0.00    -0.345 OA
BRANCH   5   6
HETATM    6  C   UNL     1     -39.718 -51.261  13.234  1.00  0.00     0.107 A 
HETATM    7  C   UNL     1     -38.395 -51.582  13.544  1.00  0.00     0.040 A 
HETATM    8  C   UNL     1     -37.342 -50.980  12.843  1.00  0.00     0.003 A 
HETATM    9  C   UNL     1     -37.603 -50.059  11.830  1.00  0.00     0.003 A 
HETATM   10  C   UNL     1     -38.919 -49.735  11.513  1.00  0.00     0.045 A 
HETATM   11  C   UNL     1     -39.963 -50.336  12.213  1.00  0.00     0.149 A 
HETATM   12  F   UNL     1     -41.224 -50.007  11.893  1.00  0.00    -0.203 F 
ENDBRANCH   5   6
ENDBRANCH   4   5
ENDBRANCH   1   4
BRANCH   1  13
HETATM   13  C   UNL     1     -42.780 -52.998  12.701  1.00  0.00     0.164 C 
BRANCH  13  14
HETATM   14  N   UNL     1     -44.098 -53.264  13.244  1.00  0.00    -0.339 N 
HETATM   15  C   UNL     1     -44.831 -54.392  12.993  1.00  0.00     0.184 A 
HETATM   16  N   UNL     1     -45.970 -54.386  13.645  1.00  0.00    -0.350 N 
HETATM   17  C   UNL     1     -45.965 -53.216  14.362  1.00  0.00     0.060 A 
ATOM     18  HN  UNL     1     -46.701 -55.098  13.623  1.00  0.00     0.166 HD
HETATM   19  C   UNL     1     -46.924 -52.721  15.258  1.00  0.00     0.032 A 
HETATM   20  C   UNL     1     -44.811 -52.475  14.112  1.00  0.00     0.062 A 
HETATM   21  C   UNL     1     -46.696 -51.485  15.874  1.00  0.00     0.002 A 
HETATM   22  C   UNL     1     -45.541 -50.751  15.596  1.00  0.00     0.002 A 
HETATM   23  C   UNL     1     -44.570 -51.230  14.707  1.00  0.00     0.032 A 
ENDBRANCH  13  14
ENDBRANCH   1  13
TORSDOF 6
ENDMDL
MODEL 8
REMARK VINA RESULT:      -5.0      2.069      2.643
REMARK  6 active torsions:
REMARK  status: ('A' for Active; 'I' for Inactive)
REMARK    1  A    between atoms: O_1  and  C_2 
REMARK    2  A    between atoms: C_2  and  C_3 
REMARK    3  A    between atoms: C_2  and  C_12 
REMARK    4  A    between atoms: C_3  and  O_4 
REMARK    5  A    between atoms: O_4  and  C_5 
REMARK    6  A    between atoms: C_12  and  N_13 
ROOT
HETATM    1  C   UNL     1     -40.263 -53.729  13.394  1.00  0.00     0.160 C 
ENDROOT
BRANCH   1   2
HETATM    2  O   UNL     1     -39.134 -54.613  13.354  1.00  0.00    -0.392 OA
HETATM    3  H   UNL     1     -38.344 -54.042  13.287  1.00  0.00     0.210 HD
ENDBRANCH   1   2
BRANCH   1   4
HETATM    4  C   UNL     1     -41.230 -54.246  14.464  1.00  0.00     0.209 C 
BRANCH   4   5
HETATM    5  O   UNL     1     -42.536 -54.296  13.878  1.00  0.00    -0.345 OA
BRANCH   5   6
HETATM    6  C   UNL     1     -43.394 -53.273  14.178  1.00  0.00     0.107 A 
HETATM    7  C   UNL     1     -43.585 -52.717  15.444  1.00  0.00     0.040 A 
HETATM    8  C   UNL     1     -44.495 -51.668  15.625  1.00  0.00     0.003 A 
HETATM    9  C   UNL     1     -45.218 -51.167  14.543  1.00  0.00     0.003 A 
HETATM   10  C   UNL     1     -45.034 -51.714  13.276  1.00  0.00     0.045 A 
HETATM   11  C   UNL     1     -44.126 -52.757  13.102  1.00  0.00     0.149 A 
HETATM   12  F   UNL     1     -43.967 -53.271  11.873  1.00  0.00    -0.203 F 
ENDBRANCH   5   6
ENDBRANCH   4   5
ENDBRANCH   1   4
BRANCH   1  13
HETATM   13  C   UNL     1     -39.790 -52.313  13.732  1.00  0.00     0.164 C 
BRANCH  13  14
HETATM   14  N   UNL     1     -40.653 -51.297  13.158  1.00  0.00    -0.339 N 
HETATM   15  C   UNL     1     -41.008 -51.230  11.839  1.00  0.00     0.184 A 
HETATM   16  N   UNL     1     -41.829 -50.233  11.606  1.00  0.00    -0.350 N 
HETATM   17  C   UNL     1     -42.028 -49.642  12.829  1.00  0.00     0.060 A 
ATOM     18  HN  UNL     1     -42.231 -49.957  10.711  1.00  0.00     0.166 HD
HETATM   19  C   UNL     1     -42.845 -48.553  13.165  1.00  0.00     0.032 A 
HETATM   20  C   UNL     1     -41.281 -50.274  13.823  1.00  0.00     0.062 A 
HETATM   21  C   UNL     1     -42.881 -48.124  14.497  1.00  0.00     0.002 A 
HETATM   22  C   UNL     1     -42.113 -48.760  15.473  1.00  0.00     0.002 A 
HETATM   23  C   UNL     1     -41.293 -49.852  15.159  1.00  0.00     0.032 A 
ENDBRANCH  13  14
ENDBRANCH   1  13
TORSDOF 6
ENDMDL
MODEL 9
REMARK VINA RESULT:      -5.0      3.124      5.483
REMARK  6 active torsions:
REMARK  status: ('A' for Active; 'I' for Inactive)
REMARK    1  A    between atoms: O_1  and  C_2 
REMARK    2  A    between atoms: C_2  and  C_3 
REMARK    3  A    between atoms: C_2  and  C_12 
REMARK    4  A    between atoms: C_3  and  O_4 
REMARK    5  A    between atoms: O_4  and  C_5 
REMARK    6  A    between atoms: C_12  and  N_13 
ROOT
HETATM    1  C   UNL     1     -41.086 -52.578  12.458  1.00  0.00     0.160 C 
ENDROOT
BRANCH   1   2
HETATM    2  O   UNL     1     -40.578 -53.448  11.437  1.00  0.00    -0.392 OA
HETATM    3  H   UNL     1     -40.577 -52.927  10.610  1.00  0.00     0.210 HD
ENDBRANCH   1   2
BRANCH   1   4
HETATM    4  C   UNL     1     -40.323 -51.252  12.372  1.00  0.00     0.209 C 
BRANCH   4   5
HETATM    5  O   UNL     1     -41.181 -50.226  12.884  1.00  0.00    -0.345 OA
BRANCH   5   6
HETATM    6  C   UNL     1     -41.138 -49.009  12.260  1.00  0.00     0.107 A 
HETATM    7  C   UNL     1     -39.979 -48.302  11.937  1.00  0.00     0.040 A 
HETATM    8  C   UNL     1     -40.067 -47.060  11.295  1.00  0.00     0.003 A 
HETATM    9  C   UNL     1     -41.310 -46.519  10.970  1.00  0.00     0.003 A 
HETATM   10  C   UNL     1     -42.471 -47.218  11.287  1.00  0.00     0.045 A 
HETATM   11  C   UNL     1     -42.379 -48.453  11.925  1.00  0.00     0.149 A 
HETATM   12  F   UNL     1     -43.511 -49.107  12.225  1.00  0.00    -0.203 F 
ENDBRANCH   5   6
ENDBRANCH   4   5
ENDBRANCH   1   4
BRANCH   1  13
HETATM   13  C   UNL     1     -42.585 -52.355  12.237  1.00  0.00     0.164 C 
BRANCH  13  14
HETATM   14  N   UNL     1     -43.390 -53.013  13.248  1.00  0.00    -0.339 N 
HETATM   15  C   UNL     1     -43.022 -54.146  13.921  1.00  0.00     0.184 A 
HETATM   16  N   UNL     1     -43.925 -54.500  14.806  1.00  0.00    -0.350 N 
HETATM   17  C   UNL     1     -44.907 -53.546  14.714  1.00  0.00     0.060 A 
ATOM     18  HN  UNL     1     -43.901 -55.308  15.427  1.00  0.00     0.166 HD
HETATM   19  C   UNL     1     -46.090 -53.417  15.458  1.00  0.00     0.032 A 
HETATM   20  C   UNL     1     -44.612 -52.610  13.725  1.00  0.00     0.062 A 
HETATM   21  C   UNL     1     -46.949 -52.348  15.176  1.00  0.00     0.002 A 
HETATM   22  C   UNL     1     -46.642 -51.432  14.169  1.00  0.00     0.002 A 
HETATM   23  C   UNL     1     -45.464 -51.541  13.418  1.00  0.00     0.032 A 
ENDBRANCH  13  14
ENDBRANCH   1  13
TORSDOF 6
ENDMDL
