MODEL 1
REMARK VINA RESULT:      -7.3      0.000      0.000
REMARK  3 active torsions:
REMARK  status: ('A' for Active; 'I' for Inactive)
REMARK    1  A    between atoms: N_2  and  C_4 
REMARK    2  A    between atoms: C_8  and  N_9 
REMARK       I    between atoms: N_9  and  C_10 
REMARK       I    between atoms: C_10  and  N_12 
REMARK    3  A    between atoms: N_12  and  C_13 
ROOT
HETATM    1  N   UNL     1     -40.428 -50.475  11.249  1.00  0.00    -0.295 N 
HETATM    2  C   UNL     1     -40.985 -51.402  12.097  1.00  0.00     0.322 C 
HETATM    3  O   UNL     1     -40.618 -52.574  12.091  1.00  0.00    -0.247 OA
HETATM    4  N   UNL     1     -41.889 -50.882  12.979  1.00  0.00    -0.337 N 
HETATM    5  H   UNL     1     -39.640 -50.832  10.731  1.00  0.00     0.172 HD
HETATM    6  H   UNL     1     -42.198 -49.966  12.650  1.00  0.00     0.164 HD
ENDROOT
BRANCH   1   7
HETATM    7  C   UNL     1     -40.835 -49.140  11.016  1.00  0.00     0.110 A 
HETATM    8  C   UNL     1     -40.072 -48.122  11.557  1.00  0.00     0.049 A 
HETATM    9  C   UNL     1     -40.497 -46.811  11.372  1.00  0.00     0.007 A 
HETATM   10  C   UNL     1     -41.627 -46.553  10.601  1.00  0.00     0.048 A 
HETATM   11  C   UNL     1     -42.323 -47.604  10.025  1.00  0.00     0.103 A 
HETATM   12  N   UNL     1     -41.942 -48.888  10.271  1.00  0.00    -0.329 N 
ATOM     13  HN  UNL     1     -42.489 -49.662   9.894  1.00  0.00     0.169 HD
BRANCH  11  14
HETATM   14  N   UNL     1     -43.432 -47.374   9.202  1.00  0.00    -0.376 N 
HETATM   15  C   UNL     1     -43.412 -47.759   7.796  1.00  0.00     0.150 C 
HETATM   16  C   UNL     1     -44.715 -47.408   9.870  1.00  0.00     0.150 C 
ENDBRANCH  11  14
ENDBRANCH   1   7
BRANCH   4  17
HETATM   17  C   UNL     1     -42.846 -51.524  13.822  1.00  0.00     0.096 A 
HETATM   18  C   UNL     1     -44.089 -51.033  14.583  1.00  0.00     0.019 A 
HETATM   19  C   UNL     1     -44.174 -51.280  13.133  1.00  0.00     0.019 A 
HETATM   20  C   UNL     1     -45.226 -51.952  15.101  1.00  0.00    -0.008 C 
HETATM   21  C   UNL     1     -45.221 -52.340  12.921  1.00  0.00    -0.008 C 
HETATM   22  C   UNL     1     -46.563 -51.619  13.087  1.00  0.00     0.005 C 
HETATM   23  C   UNL     1     -45.139 -53.186  14.189  1.00  0.00     0.010 C 
HETATM   24  C   UNL     1     -46.595 -51.384  14.616  1.00  0.00     0.005 C 
ENDBRANCH   4  17
TORSDOF 3
ENDMDL
MODEL 2
REMARK VINA RESULT:      -6.6      0.964      1.333
REMARK  3 active torsions:
REMARK  status: ('A' for Active; 'I' for Inactive)
REMARK    1  A    between atoms: N_2  and  C_4 
REMARK    2  A    between atoms: C_8  and  N_9 
REMARK       I    between atoms: N_9  and  C_10 
REMARK       I    between atoms: C_10  and  N_12 
REMARK    3  A    between atoms: N_12  and  C_13 
ROOT
HETATM    1  N   UNL     1     -40.040 -51.204  11.641  1.00  0.00    -0.295 N 
HETATM    2  C   UNL     1     -40.856 -52.109  12.277  1.00  0.00     0.322 C 
HETATM    3  O   UNL     1     -40.790 -53.310  12.030  1.00  0.00    -0.247 OA
HETATM    4  N   UNL     1     -41.654 -51.563  13.242  1.00  0.00    -0.337 N 
HETATM    5  H   UNL     1     -39.336 -51.638  11.066  1.00  0.00     0.172 HD
HETATM    6  H   UNL     1     -41.708 -50.552  13.108  1.00  0.00     0.164 HD
ENDROOT
BRANCH   1   7
HETATM    7  C   UNL     1     -40.091 -49.790  11.688  1.00  0.00     0.110 A 
HETATM    8  C   UNL     1     -39.199 -49.132  12.514  1.00  0.00     0.049 A 
HETATM    9  C   UNL     1     -39.280 -47.746  12.599  1.00  0.00     0.007 A 
HETATM   10  C   UNL     1     -40.199 -47.058  11.811  1.00  0.00     0.048 A 
HETATM   11  C   UNL     1     -41.030 -47.758  10.951  1.00  0.00     0.103 A 
HETATM   12  N   UNL     1     -40.993 -49.118  10.926  1.00  0.00    -0.329 N 
ATOM     13  HN  UNL     1     -41.645 -49.634  10.335  1.00  0.00     0.169 HD
BRANCH  11  14
HETATM   14  N   UNL     1     -41.927 -47.091  10.108  1.00  0.00    -0.376 N 
HETATM   15  C   UNL     1     -43.167 -47.727   9.682  1.00  0.00     0.150 C 
HETATM   16  C   UNL     1     -41.945 -45.650  10.242  1.00  0.00     0.150 C 
ENDBRANCH  11  14
ENDBRANCH   1   7
BRANCH   4  17
HETATM   17  C   UNL     1     -42.786 -52.096  13.928  1.00  0.00     0.096 A 
HETATM   18  C   UNL     1     -44.040 -51.466  14.557  1.00  0.00     0.019 A 
HETATM   19  C   UNL     1     -43.972 -51.649  13.097  1.00  0.00     0.019 A 
HETATM   20  C   UNL     1     -45.345 -52.238  14.886  1.00  0.00    -0.008 C 
HETATM   21  C   UNL     1     -45.114 -52.547  12.705  1.00  0.00    -0.008 C 
HETATM   22  C   UNL     1     -46.359 -51.655  12.744  1.00  0.00     0.005 C 
HETATM   23  C   UNL     1     -45.306 -53.440  13.929  1.00  0.00     0.010 C 
HETATM   24  C   UNL     1     -46.555 -51.470  14.268  1.00  0.00     0.005 C 
ENDBRANCH   4  17
TORSDOF 3
ENDMDL
MODEL 3
REMARK VINA RESULT:      -6.2      3.018      6.638
REMARK  3 active torsions:
REMARK  status: ('A' for Active; 'I' for Inactive)
REMARK    1  A    between atoms: N_2  and  C_4 
REMARK    2  A    between atoms: C_8  and  N_9 
REMARK       I    between atoms: N_9  and  C_10 
REMARK       I    between atoms: C_10  and  N_12 
REMARK    3  A    between atoms: N_12  and  C_13 
ROOT
HETATM    1  N   UNL     1     -41.059 -51.517  11.258  1.00  0.00    -0.295 N 
HETATM    2  C   UNL     1     -40.586 -50.266  11.575  1.00  0.00     0.322 C 
HETATM    3  O   UNL     1     -40.009 -49.572  10.742  1.00  0.00    -0.247 OA
HETATM    4  N   UNL     1     -40.894 -49.854  12.841  1.00  0.00    -0.337 N 
HETATM    5  H   UNL     1     -40.984 -51.734  10.277  1.00  0.00     0.172 HD
HETATM    6  H   UNL     1     -41.159 -50.663  13.407  1.00  0.00     0.164 HD
ENDROOT
BRANCH   1   7
HETATM    7  C   UNL     1     -41.597 -52.499  12.124  1.00  0.00     0.110 A 
HETATM    8  C   UNL     1     -40.736 -53.146  12.991  1.00  0.00     0.049 A 
HETATM    9  C   UNL     1     -41.253 -54.146  13.807  1.00  0.00     0.007 A 
HETATM   10  C   UNL     1     -42.618 -54.421  13.783  1.00  0.00     0.048 A 
HETATM   11  C   UNL     1     -43.452 -53.701  12.942  1.00  0.00     0.103 A 
HETATM   12  N   UNL     1     -42.927 -52.774  12.094  1.00  0.00    -0.329 N 
ATOM     13  HN  UNL     1     -43.533 -52.286  11.436  1.00  0.00     0.169 HD
BRANCH  11  14
HETATM   14  N   UNL     1     -44.834 -53.918  12.933  1.00  0.00    -0.376 N 
HETATM   15  C   UNL     1     -45.428 -54.992  13.719  1.00  0.00     0.150 C 
HETATM   16  C   UNL     1     -45.644 -52.736  12.727  1.00  0.00     0.150 C 
ENDBRANCH  11  14
ENDBRANCH   1   7
BRANCH   4  17
HETATM   17  C   UNL     1     -40.388 -48.770  13.620  1.00  0.00     0.096 A 
HETATM   18  C   UNL     1     -39.913 -48.640  15.076  1.00  0.00     0.019 A 
HETATM   19  C   UNL     1     -39.020 -49.240  14.071  1.00  0.00     0.019 A 
HETATM   20  C   UNL     1     -39.017 -47.493  15.613  1.00  0.00    -0.008 C 
HETATM   21  C   UNL     1     -37.777 -48.394  14.015  1.00  0.00    -0.008 C 
HETATM   22  C   UNL     1     -36.973 -48.778  15.262  1.00  0.00     0.005 C 
HETATM   23  C   UNL     1     -38.279 -46.994  14.361  1.00  0.00     0.010 C 
HETATM   24  C   UNL     1     -37.809 -48.113  16.381  1.00  0.00     0.005 C 
ENDBRANCH   4  17
TORSDOF 3
ENDMDL
MODEL 4
REMARK VINA RESULT:      -6.2      1.631      2.954
REMARK  3 active torsions:
REMARK  status: ('A' for Active; 'I' for Inactive)
REMARK    1  A    between atoms: N_2  and  C_4 
REMARK    2  A    between atoms: C_8  and  N_9 
REMARK       I    between atoms: N_9  and  C_10 
REMARK       I    between atoms: C_10  and  N_12 
REMARK    3  A    between atoms: N_12  and  C_13 
ROOT
HETATM    1  N   UNL     1     -40.536 -50.567  11.293  1.00  0.00    -0.295 N 
HETATM    2  C   UNL     1     -41.243 -51.505  12.007  1.00  0.00     0.322 C 
HETATM    3  O   UNL     1     -41.200 -52.696  11.711  1.00  0.00    -0.247 OA
HETATM    4  N   UNL     1     -41.901 -51.004  13.095  1.00  0.00    -0.337 N 
HETATM    5  H   UNL     1     -39.917 -50.971  10.609  1.00  0.00     0.172 HD
HETATM    6  H   UNL     1     -41.984 -49.990  13.004  1.00  0.00     0.164 HD
ENDROOT
BRANCH   1   7
HETATM    7  C   UNL     1     -40.595 -49.157  11.396  1.00  0.00     0.110 A 
HETATM    8  C   UNL     1     -41.504 -48.482  10.601  1.00  0.00     0.049 A 
HETATM    9  C   UNL     1     -41.529 -47.093  10.664  1.00  0.00     0.007 A 
HETATM   10  C   UNL     1     -40.700 -46.427  11.563  1.00  0.00     0.048 A 
HETATM   11  C   UNL     1     -39.852 -47.151  12.385  1.00  0.00     0.103 A 
HETATM   12  N   UNL     1     -39.781 -48.505  12.266  1.00  0.00    -0.329 N 
ATOM     13  HN  UNL     1     -39.115 -49.031  12.831  1.00  0.00     0.169 HD
BRANCH  11  14
HETATM   14  N   UNL     1     -39.045 -46.513  13.335  1.00  0.00    -0.376 N 
HETATM   15  C   UNL     1     -39.305 -45.136  13.733  1.00  0.00     0.150 C 
HETATM   16  C   UNL     1     -38.461 -47.383  14.333  1.00  0.00     0.150 C 
ENDBRANCH  11  14
ENDBRANCH   1   7
BRANCH   4  17
HETATM   17  C   UNL     1     -42.917 -51.577  13.916  1.00  0.00     0.096 A 
HETATM   18  C   UNL     1     -44.194 -51.020  14.569  1.00  0.00     0.019 A 
HETATM   19  C   UNL     1     -44.197 -51.358  13.135  1.00  0.00     0.019 A 
HETATM   20  C   UNL     1     -45.376 -51.888  15.074  1.00  0.00    -0.008 C 
HETATM   21  C   UNL     1     -45.249 -52.413  12.927  1.00  0.00    -0.008 C 
HETATM   22  C   UNL     1     -46.585 -51.663  12.966  1.00  0.00     0.005 C 
HETATM   23  C   UNL     1     -45.258 -53.178  14.248  1.00  0.00     0.010 C 
HETATM   24  C   UNL     1     -46.704 -51.331  14.473  1.00  0.00     0.005 C 
ENDBRANCH   4  17
TORSDOF 3
ENDMDL
MODEL 5
REMARK VINA RESULT:      -6.0      2.214      4.160
REMARK  3 active torsions:
REMARK  status: ('A' for Active; 'I' for Inactive)
REMARK    1  A    between atoms: N_2  and  C_4 
REMARK    2  A    between atoms: C_8  and  N_9 
REMARK       I    between atoms: N_9  and  C_10 
REMARK       I    between atoms: C_10  and  N_12 
REMARK    3  A    between atoms: N_12  and  C_13 
ROOT
HETATM    1  N   UNL     1     -43.279 -53.037  12.036  1.00  0.00    -0.295 N 
HETATM    2  C   UNL     1     -44.475 -52.871  12.694  1.00  0.00     0.322 C 
HETATM    3  O   UNL     1     -45.501 -53.416  12.298  1.00  0.00    -0.247 OA
HETATM    4  N   UNL     1     -44.385 -52.139  13.843  1.00  0.00    -0.337 N 
HETATM    5  H   UNL     1     -43.323 -53.721  11.297  1.00  0.00     0.172 HD
HETATM    6  H   UNL     1     -43.512 -51.608  13.842  1.00  0.00     0.164 HD
ENDROOT
BRANCH   1   7
HETATM    7  C   UNL     1     -42.053 -52.366  12.259  1.00  0.00     0.110 A 
HETATM    8  C   UNL     1     -41.073 -53.022  12.981  1.00  0.00     0.049 A 
HETATM    9  C   UNL     1     -39.886 -52.347  13.244  1.00  0.00     0.007 A 
HETATM   10  C   UNL     1     -39.687 -51.070  12.724  1.00  0.00     0.048 A 
HETATM   11  C   UNL     1     -40.675 -50.479  11.952  1.00  0.00     0.103 A 
HETATM   12  N   UNL     1     -41.861 -51.118  11.760  1.00  0.00    -0.329 N 
ATOM     13  HN  UNL     1     -42.608 -50.657  11.240  1.00  0.00     0.169 HD
BRANCH  11  14
HETATM   14  N   UNL     1     -40.484 -49.219  11.372  1.00  0.00    -0.376 N 
HETATM   15  C   UNL     1     -41.604 -48.477  10.810  1.00  0.00     0.150 C 
HETATM   16  C   UNL     1     -39.399 -48.441  11.932  1.00  0.00     0.150 C 
ENDBRANCH  11  14
ENDBRANCH   1   7
BRANCH   4  17
HETATM   17  C   UNL     1     -45.399 -51.542  14.651  1.00  0.00     0.096 A 
HETATM   18  C   UNL     1     -46.542 -52.108  15.510  1.00  0.00     0.019 A 
HETATM   19  C   UNL     1     -45.165 -52.120  16.033  1.00  0.00     0.019 A 
HETATM   20  C   UNL     1     -47.272 -51.326  16.633  1.00  0.00    -0.008 C 
HETATM   21  C   UNL     1     -45.160 -51.307  17.298  1.00  0.00    -0.008 C 
HETATM   22  C   UNL     1     -45.793 -52.211  18.361  1.00  0.00     0.005 C 
HETATM   23  C   UNL     1     -46.248 -50.262  17.059  1.00  0.00     0.010 C 
HETATM   24  C   UNL     1     -47.279 -52.194  17.930  1.00  0.00     0.005 C 
ENDBRANCH   4  17
TORSDOF 3
ENDMDL
MODEL 6
REMARK VINA RESULT:      -5.9      2.468      3.417
REMARK  3 active torsions:
REMARK  status: ('A' for Active; 'I' for Inactive)
REMARK    1  A    between atoms: N_2  and  C_4 
REMARK    2  A    between atoms: C_8  and  N_9 
REMARK       I    between atoms: N_9  and  C_10 
REMARK       I    between atoms: C_10  and  N_12 
REMARK    3  A    between atoms: N_12  and  C_13 
ROOT
HETATM    1  N   UNL     1     -37.576 -49.582  12.300  1.00  0.00    -0.295 N 
HETATM    2  C   UNL     1     -37.705 -50.910  12.628  1.00  0.00     0.322 C 
HETATM    3  O   UNL     1     -36.864 -51.736  12.286  1.00  0.00    -0.247 OA
HETATM    4  N   UNL     1     -38.781 -51.190  13.423  1.00  0.00    -0.337 N 
HETATM    5  H   UNL     1     -36.692 -49.362  11.870  1.00  0.00     0.172 HD
HETATM    6  H   UNL     1     -39.446 -50.415  13.381  1.00  0.00     0.164 HD
ENDROOT
BRANCH   1   7
HETATM    7  C   UNL     1     -38.517 -48.538  12.474  1.00  0.00     0.110 A 
HETATM    8  C   UNL     1     -38.481 -47.817  13.653  1.00  0.00     0.049 A 
HETATM    9  C   UNL     1     -39.435 -46.825  13.847  1.00  0.00     0.007 A 
HETATM   10  C   UNL     1     -40.348 -46.537  12.835  1.00  0.00     0.048 A 
HETATM   11  C   UNL     1     -40.304 -47.244  11.645  1.00  0.00     0.103 A 
HETATM   12  N   UNL     1     -39.413 -48.263  11.491  1.00  0.00    -0.329 N 
ATOM     13  HN  UNL     1     -39.420 -48.820  10.637  1.00  0.00     0.169 HD
BRANCH  11  14
HETATM   14  N   UNL     1     -41.174 -46.943  10.590  1.00  0.00    -0.376 N 
HETATM   15  C   UNL     1     -42.193 -47.894  10.166  1.00  0.00     0.150 C 
HETATM   16  C   UNL     1     -41.483 -45.538  10.427  1.00  0.00     0.150 C 
ENDBRANCH  11  14
ENDBRANCH   1   7
BRANCH   4  17
HETATM   17  C   UNL     1     -39.394 -52.433  13.762  1.00  0.00     0.096 A 
HETATM   18  C   UNL     1     -40.482 -52.841  14.769  1.00  0.00     0.019 A 
HETATM   19  C   UNL     1     -40.869 -52.208  13.496  1.00  0.00     0.019 A 
HETATM   20  C   UNL     1     -41.300 -54.158  14.698  1.00  0.00    -0.008 C 
HETATM   21  C   UNL     1     -41.752 -53.180  12.763  1.00  0.00    -0.008 C 
HETATM   22  C   UNL     1     -43.114 -53.093  13.460  1.00  0.00     0.005 C 
HETATM   23  C   UNL     1     -41.235 -54.545  13.212  1.00  0.00     0.010 C 
HETATM   24  C   UNL     1     -42.819 -53.814  14.797  1.00  0.00     0.005 C 
ENDBRANCH   4  17
TORSDOF 3
ENDMDL
MODEL 7
REMARK VINA RESULT:      -5.9      3.287      6.884
REMARK  3 active torsions:
REMARK  status: ('A' for Active; 'I' for Inactive)
REMARK    1  A    between atoms: N_2  and  C_4 
REMARK    2  A    between atoms: C_8  and  N_9 
REMARK       I    between atoms: N_9  and  C_10 
REMARK       I    between atoms: C_10  and  N_12 
REMARK    3  A    between atoms: N_12  and  C_13 
ROOT
HETATM    1  N   UNL     1     -43.567 -53.916  13.205  1.00  0.00    -0.295 N 
HETATM    2  C   UNL     1     -42.225 -53.636  13.302  1.00  0.00     0.322 C 
HETATM    3  O   UNL     1     -41.377 -54.505  13.118  1.00  0.00    -0.247 OA
HETATM    4  N   UNL     1     -41.942 -52.318  13.525  1.00  0.00    -0.337 N 
HETATM    5  H   UNL     1     -43.757 -54.845  12.865  1.00  0.00     0.172 HD
HETATM    6  H   UNL     1     -42.779 -51.843  13.869  1.00  0.00     0.164 HD
ENDROOT
BRANCH   1   7
HETATM    7  C   UNL     1     -44.665 -53.085  13.536  1.00  0.00     0.110 A 
HETATM    8  C   UNL     1     -45.377 -52.503  12.504  1.00  0.00     0.049 A 
HETATM    9  C   UNL     1     -46.424 -51.647  12.827  1.00  0.00     0.007 A 
HETATM   10  C   UNL     1     -46.770 -51.452  14.162  1.00  0.00     0.048 A 
HETATM   11  C   UNL     1     -46.067 -52.109  15.159  1.00  0.00     0.103 A 
HETATM   12  N   UNL     1     -44.998 -52.887  14.838  1.00  0.00    -0.329 N 
ATOM     13  HN  UNL     1     -44.446 -53.323  15.576  1.00  0.00     0.169 HD
BRANCH  11  14
HETATM   14  N   UNL     1     -46.424 -51.974  16.506  1.00  0.00    -0.376 N 
HETATM   15  C   UNL     1     -47.622 -51.240  16.892  1.00  0.00     0.150 C 
HETATM   16  C   UNL     1     -46.025 -53.070  17.363  1.00  0.00     0.150 C 
ENDBRANCH  11  14
ENDBRANCH   1   7
BRANCH   4  17
HETATM   17  C   UNL     1     -40.732 -51.679  13.930  1.00  0.00     0.096 A 
HETATM   18  C   UNL     1     -39.255 -51.859  13.542  1.00  0.00     0.019 A 
HETATM   19  C   UNL     1     -40.157 -51.117  12.645  1.00  0.00     0.019 A 
HETATM   20  C   UNL     1     -38.145 -50.801  13.778  1.00  0.00    -0.008 C 
HETATM   21  C   UNL     1     -39.604 -49.725  12.506  1.00  0.00    -0.008 C 
HETATM   22  C   UNL     1     -38.419 -49.856  11.544  1.00  0.00     0.005 C 
HETATM   23  C   UNL     1     -38.919 -49.474  13.847  1.00  0.00     0.010 C 
HETATM   24  C   UNL     1     -37.377 -50.568  12.440  1.00  0.00     0.005 C 
ENDBRANCH   4  17
TORSDOF 3
ENDMDL
MODEL 8
REMARK VINA RESULT:      -5.8      1.891      6.483
REMARK  3 active torsions:
REMARK  status: ('A' for Active; 'I' for Inactive)
REMARK    1  A    between atoms: N_2  and  C_4 
REMARK    2  A    between atoms: C_8  and  N_9 
REMARK       I    between atoms: N_9  and  C_10 
REMARK       I    between atoms: C_10  and  N_12 
REMARK    3  A    between atoms: N_12  and  C_13 
ROOT
HETATM    1  N   UNL     1     -43.168 -52.830  12.694  1.00  0.00    -0.295 N 
HETATM    2  C   UNL     1     -42.112 -52.107  12.191  1.00  0.00     0.322 C 
HETATM    3  O   UNL     1     -41.080 -52.660  11.819  1.00  0.00    -0.247 OA
HETATM    4  N   UNL     1     -42.357 -50.769  12.068  1.00  0.00    -0.337 N 
HETATM    5  H   UNL     1     -43.043 -53.827  12.611  1.00  0.00     0.172 HD
HETATM    6  H   UNL     1     -43.163 -50.516  12.642  1.00  0.00     0.164 HD
ENDROOT
BRANCH   1   7
HETATM    7  C   UNL     1     -44.350 -52.350  13.305  1.00  0.00     0.110 A 
HETATM    8  C   UNL     1     -45.505 -52.306  12.547  1.00  0.00     0.049 A 
HETATM    9  C   UNL     1     -46.656 -51.788  13.130  1.00  0.00     0.007 A 
HETATM   10  C   UNL     1     -46.637 -51.395  14.466  1.00  0.00     0.048 A 
HETATM   11  C   UNL     1     -45.471 -51.518  15.204  1.00  0.00     0.103 A 
HETATM   12  N   UNL     1     -44.330 -51.958  14.605  1.00  0.00    -0.329 N 
ATOM     13  HN  UNL     1     -43.459 -51.993  15.135  1.00  0.00     0.169 HD
BRANCH  11  14
HETATM   14  N   UNL     1     -45.434 -51.180  16.562  1.00  0.00    -0.376 N 
HETATM   15  C   UNL     1     -45.386 -52.213  17.589  1.00  0.00     0.150 C 
HETATM   16  C   UNL     1     -44.783 -49.924  16.869  1.00  0.00     0.150 C 
ENDBRANCH  11  14
ENDBRANCH   1   7
BRANCH   4  17
HETATM   17  C   UNL     1     -41.469 -49.675  11.840  1.00  0.00     0.096 A 
HETATM   18  C   UNL     1     -41.453 -48.514  10.831  1.00  0.00     0.019 A 
HETATM   19  C   UNL     1     -42.341 -48.446  12.004  1.00  0.00     0.019 A 
HETATM   20  C   UNL     1     -40.639 -47.205  11.006  1.00  0.00    -0.008 C 
HETATM   21  C   UNL     1     -41.944 -47.230  12.795  1.00  0.00    -0.008 C 
HETATM   22  C   UNL     1     -42.526 -46.040  12.025  1.00  0.00     0.005 C 
HETATM   23  C   UNL     1     -40.447 -47.099  12.527  1.00  0.00     0.010 C 
HETATM   24  C   UNL     1     -41.591 -45.987  10.794  1.00  0.00     0.005 C 
ENDBRANCH   4  17
TORSDOF 3
ENDMDL
MODEL 9
REMARK VINA RESULT:      -5.5      3.388      4.342
REMARK  3 active torsions:
REMARK  status: ('A' for Active; 'I' for Inactive)
REMARK    1  A    between atoms: N_2  and  C_4 
REMARK    2  A    between atoms: C_8  and  N_9 
REMARK       I    between atoms: N_9  and  C_10 
REMARK       I    between atoms: C_10  and  N_12 
REMARK    3  A    between atoms: N_12  and  C_13 
ROOT
HETATM    1  N   UNL     1     -38.884 -48.920  11.335  1.00  0.00    -0.295 N 
HETATM    2  C   UNL     1     -38.338 -50.052  11.891  1.00  0.00     0.322 C 
HETATM    3  O   UNL     1     -37.303 -50.543  11.449  1.00  0.00    -0.247 OA
HETATM    4  N   UNL     1     -38.992 -50.501  13.003  1.00  0.00    -0.337 N 
HETATM    5  H   UNL     1     -38.297 -48.498  10.633  1.00  0.00     0.172 HD
HETATM    6  H   UNL     1     -39.926 -50.090  13.039  1.00  0.00     0.164 HD
ENDROOT
BRANCH   1   7
HETATM    7  C   UNL     1     -40.136 -48.320  11.613  1.00  0.00     0.110 A 
HETATM    8  C   UNL     1     -41.264 -48.864  11.027  1.00  0.00     0.049 A 
HETATM    9  C   UNL     1     -42.488 -48.246  11.258  1.00  0.00     0.007 A 
HETATM   10  C   UNL     1     -42.559 -47.152  12.117  1.00  0.00     0.048 A 
HETATM   11  C   UNL     1     -41.410 -46.683  12.731  1.00  0.00     0.103 A 
HETATM   12  N   UNL     1     -40.205 -47.248  12.443  1.00  0.00    -0.329 N 
ATOM     13  HN  UNL     1     -39.353 -46.864  12.851  1.00  0.00     0.169 HD
BRANCH  11  14
HETATM   14  N   UNL     1     -41.457 -45.619  13.640  1.00  0.00    -0.376 N 
HETATM   15  C   UNL     1     -40.233 -45.035  14.173  1.00  0.00     0.150 C 
HETATM   16  C   UNL     1     -42.593 -44.734  13.495  1.00  0.00     0.150 C 
ENDBRANCH  11  14
ENDBRANCH   1   7
BRANCH   4  17
HETATM   17  C   UNL     1     -38.903 -51.744  13.700  1.00  0.00     0.096 A 
HETATM   18  C   UNL     1     -39.672 -52.356  14.882  1.00  0.00     0.019 A 
HETATM   19  C   UNL     1     -40.278 -52.362  13.540  1.00  0.00     0.019 A 
HETATM   20  C   UNL     1     -39.708 -53.868  15.224  1.00  0.00    -0.008 C 
HETATM   21  C   UNL     1     -40.518 -53.798  13.164  1.00  0.00    -0.008 C 
HETATM   22  C   UNL     1     -41.762 -54.218  13.954  1.00  0.00     0.005 C 
HETATM   23  C   UNL     1     -39.399 -54.550  13.881  1.00  0.00     0.010 C 
HETATM   24  C   UNL     1     -41.194 -54.313  15.390  1.00  0.00     0.005 C 
ENDBRANCH   4  17
TORSDOF 3
ENDMDL
