MODEL 1
REMARK VINA RESULT:      -6.2      0.000      0.000
REMARK  3 active torsions:
REMARK  status: ('A' for Active; 'I' for Inactive)
REMARK    1  A    between atoms: S_2  and  C_3 
REMARK    2  A    between atoms: C_6  and  N_8 
REMARK       I    between atoms: N_8  and  C_9 
REMARK       I    between atoms: C_9  and  N_11 
REMARK    3  A    between atoms: N_11  and  C_12 
ROOT
HETATM    1  N   UNL     1     -40.450 -48.752  10.931  1.00  0.00    -0.338 N 
HETATM    2  C   UNL     1     -41.710 -48.182  10.926  1.00  0.00     0.323 C 
HETATM    3  O   UNL     1     -42.245 -47.777  11.947  1.00  0.00    -0.247 OA
HETATM    4  N   UNL     1     -42.211 -48.082   9.654  1.00  0.00    -0.273 N 
HETATM    5  H   UNL     1     -40.254 -49.434  10.212  1.00  0.00     0.164 HD
HETATM    6  H   UNL     1     -41.582 -48.117   8.872  1.00  0.00     0.174 HD
ENDROOT
BRANCH   1   7
HETATM    7  C   UNL     1     -39.662 -48.782  12.157  1.00  0.00     0.087 C 
HETATM    8  C   UNL     1     -38.197 -49.092  11.865  1.00  0.00     0.026 C 
HETATM    9  C   UNL     1     -38.001 -50.584  12.129  1.00  0.00     0.017 C 
HETATM   10  C   UNL     1     -39.336 -51.117  12.664  1.00  0.00     0.049 C 
HETATM   11  C   UNL     1     -40.099 -49.878  13.128  1.00  0.00     0.040 C 
BRANCH  10  12
HETATM   12  S   UNL     1     -39.040 -52.350  13.977  1.00  0.00    -0.169 SA
HETATM   13  C   UNL     1     -40.275 -53.591  13.533  1.00  0.00     0.090 C 
ENDBRANCH  10  12
ENDBRANCH   1   7
BRANCH   4  14
HETATM   14  C   UNL     1     -43.409 -47.467   9.413  1.00  0.00     0.252 A 
HETATM   15  N   UNL     1     -44.593 -47.997   9.618  1.00  0.00    -0.309 N 
HETATM   16  C   UNL     1     -45.428 -47.000   9.175  1.00  0.00     0.101 A 
ATOM     17  HN  UNL     1     -44.831 -48.910  10.004  1.00  0.00     0.170 HD
HETATM   18  C   UNL     1     -46.893 -47.153   9.112  1.00  0.00     0.091 C 
HETATM   19  N   UNL     1     -44.815 -45.879   8.776  1.00  0.00    -0.246 N 
HETATM   20  O   UNL     1     -43.460 -46.193   8.928  1.00  0.00    -0.199 OA
ATOM     21  HN  UNL     1     -45.232 -45.011   8.443  1.00  0.00     0.196 HD
ENDBRANCH   4  14
TORSDOF 3
ENDMDL
MODEL 2
REMARK VINA RESULT:      -5.6      3.338      4.601
REMARK  3 active torsions:
REMARK  status: ('A' for Active; 'I' for Inactive)
REMARK    1  A    between atoms: S_2  and  C_3 
REMARK    2  A    between atoms: C_6  and  N_8 
REMARK       I    between atoms: N_8  and  C_9 
REMARK       I    between atoms: C_9  and  N_11 
REMARK    3  A    between atoms: N_11  and  C_12 
ROOT
HETATM    1  N   UNL     1     -42.351 -51.095  12.206  1.00  0.00    -0.338 N 
HETATM    2  C   UNL     1     -42.192 -49.723  12.131  1.00  0.00     0.323 C 
HETATM    3  O   UNL     1     -42.332 -48.997  13.104  1.00  0.00    -0.247 OA
HETATM    4  N   UNL     1     -41.804 -49.330  10.876  1.00  0.00    -0.273 N 
HETATM    5  H   UNL     1     -42.659 -51.565  11.368  1.00  0.00     0.164 HD
HETATM    6  H   UNL     1     -41.389 -50.002  10.255  1.00  0.00     0.174 HD
ENDROOT
BRANCH   1   7
HETATM    7  C   UNL     1     -42.579 -51.737  13.494  1.00  0.00     0.087 C 
HETATM    8  C   UNL     1     -41.706 -52.979  13.654  1.00  0.00     0.026 C 
HETATM    9  C   UNL     1     -42.582 -54.181  13.305  1.00  0.00     0.017 C 
HETATM   10  C   UNL     1     -43.990 -53.638  13.032  1.00  0.00     0.049 C 
HETATM   11  C   UNL     1     -44.009 -52.250  13.668  1.00  0.00     0.040 C 
BRANCH  10  12
HETATM   12  S   UNL     1     -45.246 -54.784  13.698  1.00  0.00    -0.169 SA
HETATM   13  C   UNL     1     -46.322 -53.612  14.555  1.00  0.00     0.090 C 
ENDBRANCH  10  12
ENDBRANCH   1   7
BRANCH   4  14
HETATM   14  C   UNL     1     -41.507 -48.022  10.605  1.00  0.00     0.252 A 
HETATM   15  N   UNL     1     -40.422 -47.392  10.992  1.00  0.00    -0.309 N 
HETATM   16  C   UNL     1     -40.645 -46.125  10.509  1.00  0.00     0.101 A 
ATOM     17  HN  UNL     1     -39.623 -47.749  11.515  1.00  0.00     0.170 HD
HETATM   18  C   UNL     1     -39.733 -44.997  10.771  1.00  0.00     0.091 C 
HETATM   19  N   UNL     1     -41.771 -45.977   9.801  1.00  0.00    -0.246 N 
HETATM   20  O   UNL     1     -42.354 -47.246   9.870  1.00  0.00    -0.199 OA
ATOM     21  HN  UNL     1     -42.119 -45.143   9.327  1.00  0.00     0.196 HD
ENDBRANCH   4  14
TORSDOF 3
ENDMDL
MODEL 3
REMARK VINA RESULT:      -5.5      4.536      6.568
REMARK  3 active torsions:
REMARK  status: ('A' for Active; 'I' for Inactive)
REMARK    1  A    between atoms: S_2  and  C_3 
REMARK    2  A    between atoms: C_6  and  N_8 
REMARK       I    between atoms: N_8  and  C_9 
REMARK       I    between atoms: C_9  and  N_11 
REMARK    3  A    between atoms: N_11  and  C_12 
ROOT
HETATM    1  N   UNL     1     -43.807 -51.173  12.594  1.00  0.00    -0.338 N 
HETATM    2  C   UNL     1     -42.446 -50.934  12.644  1.00  0.00     0.323 C 
HETATM    3  O   UNL     1     -41.700 -51.566  13.378  1.00  0.00    -0.247 OA
HETATM    4  N   UNL     1     -42.070 -49.976  11.739  1.00  0.00    -0.273 N 
HETATM    5  H   UNL     1     -44.399 -50.392  12.349  1.00  0.00     0.164 HD
HETATM    6  H   UNL     1     -42.672 -49.769  10.962  1.00  0.00     0.174 HD
ENDROOT
BRANCH   1   7
HETATM    7  C   UNL     1     -44.386 -52.282  13.342  1.00  0.00     0.087 C 
HETATM    8  C   UNL     1     -45.667 -52.784  12.682  1.00  0.00     0.026 C 
HETATM    9  C   UNL     1     -46.831 -52.141  13.434  1.00  0.00     0.017 C 
HETATM   10  C   UNL     1     -46.221 -51.338  14.589  1.00  0.00     0.049 C 
HETATM   11  C   UNL     1     -44.811 -51.898  14.759  1.00  0.00     0.040 C 
BRANCH  10  12
HETATM   12  S   UNL     1     -47.269 -51.484  16.078  1.00  0.00    -0.169 SA
HETATM   13  C   UNL     1     -46.133 -50.846  17.330  1.00  0.00     0.090 C 
ENDBRANCH  10  12
ENDBRANCH   1   7
BRANCH   4  14
HETATM   14  C   UNL     1     -40.754 -49.649  11.561  1.00  0.00     0.252 A 
HETATM   15  N   UNL     1     -39.763 -50.505  11.459  1.00  0.00    -0.309 N 
HETATM   16  C   UNL     1     -38.679 -49.669  11.347  1.00  0.00     0.101 A 
ATOM     17  HN  UNL     1     -39.791 -51.524  11.462  1.00  0.00     0.170 HD
HETATM   18  C   UNL     1     -37.290 -50.162  11.298  1.00  0.00     0.091 C 
HETATM   19  N   UNL     1     -38.969 -48.362  11.313  1.00  0.00    -0.246 N 
HETATM   20  O   UNL     1     -40.359 -48.347  11.463  1.00  0.00    -0.199 OA
ATOM     21  HN  UNL     1     -38.333 -47.573  11.204  1.00  0.00     0.196 HD
ENDBRANCH   4  14
TORSDOF 3
ENDMDL
MODEL 4
REMARK VINA RESULT:      -5.4      3.673      7.080
REMARK  3 active torsions:
REMARK  status: ('A' for Active; 'I' for Inactive)
REMARK    1  A    between atoms: S_2  and  C_3 
REMARK    2  A    between atoms: C_6  and  N_8 
REMARK       I    between atoms: N_8  and  C_9 
REMARK       I    between atoms: C_9  and  N_11 
REMARK    3  A    between atoms: N_11  and  C_12 
ROOT
HETATM    1  N   UNL     1     -42.096 -48.917  11.054  1.00  0.00    -0.338 N 
HETATM    2  C   UNL     1     -41.932 -49.979  11.925  1.00  0.00     0.323 C 
HETATM    3  O   UNL     1     -42.602 -50.098  12.941  1.00  0.00    -0.247 OA
HETATM    4  N   UNL     1     -40.997 -50.868  11.462  1.00  0.00    -0.273 N 
HETATM    5  H   UNL     1     -41.285 -48.631  10.525  1.00  0.00     0.164 HD
HETATM    6  H   UNL     1     -40.759 -50.870  10.487  1.00  0.00     0.174 HD
ENDROOT
BRANCH   1   7
HETATM    7  C   UNL     1     -43.171 -47.955  11.265  1.00  0.00     0.087 C 
HETATM    8  C   UNL     1     -43.706 -47.426   9.937  1.00  0.00     0.026 C 
HETATM    9  C   UNL     1     -43.031 -46.077   9.696  1.00  0.00     0.017 C 
HETATM   10  C   UNL     1     -42.175 -45.784  10.934  1.00  0.00     0.049 C 
HETATM   11  C   UNL     1     -42.723 -46.705  12.021  1.00  0.00     0.040 C 
BRANCH  10  12
HETATM   12  S   UNL     1     -42.253 -44.007  11.347  1.00  0.00    -0.169 SA
HETATM   13  C   UNL     1     -40.516 -43.555  11.138  1.00  0.00     0.090 C 
ENDBRANCH  10  12
ENDBRANCH   1   7
BRANCH   4  14
HETATM   14  C   UNL     1     -40.743 -52.036  12.128  1.00  0.00     0.252 A 
HETATM   15  N   UNL     1     -40.094 -52.140  13.265  1.00  0.00    -0.309 N 
HETATM   16  C   UNL     1     -40.078 -53.500  13.458  1.00  0.00     0.101 A 
ATOM     17  HN  UNL     1     -39.704 -51.403  13.853  1.00  0.00     0.170 HD
HETATM   18  C   UNL     1     -39.368 -54.141  14.579  1.00  0.00     0.091 C 
HETATM   19  N   UNL     1     -40.734 -54.213  12.534  1.00  0.00    -0.246 N 
HETATM   20  O   UNL     1     -41.175 -53.234  11.638  1.00  0.00    -0.199 OA
ATOM     21  HN  UNL     1     -40.878 -55.221  12.494  1.00  0.00     0.196 HD
ENDBRANCH   4  14
TORSDOF 3
ENDMDL
MODEL 5
REMARK VINA RESULT:      -5.4      1.833      2.384
REMARK  3 active torsions:
REMARK  status: ('A' for Active; 'I' for Inactive)
REMARK    1  A    between atoms: S_2  and  C_3 
REMARK    2  A    between atoms: C_6  and  N_8 
REMARK       I    between atoms: N_8  and  C_9 
REMARK       I    between atoms: C_9  and  N_11 
REMARK    3  A    between atoms: N_11  and  C_12 
ROOT
HETATM    1  N   UNL     1     -40.215 -48.407  11.088  1.00  0.00    -0.338 N 
HETATM    2  C   UNL     1     -41.570 -48.275  10.843  1.00  0.00     0.323 C 
HETATM    3  O   UNL     1     -42.405 -48.961  11.416  1.00  0.00    -0.247 OA
HETATM    4  N   UNL     1     -41.824 -47.261   9.957  1.00  0.00    -0.273 N 
HETATM    5  H   UNL     1     -39.590 -48.175  10.330  1.00  0.00     0.164 HD
HETATM    6  H   UNL     1     -41.132 -46.548   9.811  1.00  0.00     0.174 HD
ENDROOT
BRANCH   1   7
HETATM    7  C   UNL     1     -39.742 -49.301  12.137  1.00  0.00     0.087 C 
HETATM    8  C   UNL     1     -40.561 -49.134  13.415  1.00  0.00     0.026 C 
HETATM    9  C   UNL     1     -39.759 -48.214  14.334  1.00  0.00     0.017 C 
HETATM   10  C   UNL     1     -38.432 -47.925  13.622  1.00  0.00     0.049 C 
HETATM   11  C   UNL     1     -38.302 -49.021  12.566  1.00  0.00     0.040 C 
BRANCH  10  12
HETATM   12  S   UNL     1     -37.064 -47.886  14.831  1.00  0.00    -0.169 SA
HETATM   13  C   UNL     1     -37.067 -49.611  15.370  1.00  0.00     0.090 C 
ENDBRANCH  10  12
ENDBRANCH   1   7
BRANCH   4  14
HETATM   14  C   UNL     1     -43.107 -46.903   9.642  1.00  0.00     0.252 A 
HETATM   15  N   UNL     1     -44.144 -47.708   9.638  1.00  0.00    -0.309 N 
HETATM   16  C   UNL     1     -45.148 -46.872   9.212  1.00  0.00     0.101 A 
ATOM     17  HN  UNL     1     -44.192 -48.696   9.887  1.00  0.00     0.170 HD
HETATM   18  C   UNL     1     -46.521 -47.340   8.952  1.00  0.00     0.091 C 
HETATM   19  N   UNL     1     -44.784 -45.598   9.021  1.00  0.00    -0.246 N 
HETATM   20  O   UNL     1     -43.414 -45.618   9.302  1.00  0.00    -0.199 OA
ATOM     21  HN  UNL     1     -45.364 -44.807   8.740  1.00  0.00     0.196 HD
ENDBRANCH   4  14
TORSDOF 3
ENDMDL
MODEL 6
REMARK VINA RESULT:      -5.3      2.779      4.702
REMARK  3 active torsions:
REMARK  status: ('A' for Active; 'I' for Inactive)
REMARK    1  A    between atoms: S_2  and  C_3 
REMARK    2  A    between atoms: C_6  and  N_8 
REMARK       I    between atoms: N_8  and  C_9 
REMARK       I    between atoms: C_9  and  N_11 
REMARK    3  A    between atoms: N_11  and  C_12 
ROOT
HETATM    1  N   UNL     1     -40.178 -52.382  13.502  1.00  0.00    -0.338 N 
HETATM    2  C   UNL     1     -40.581 -51.592  12.440  1.00  0.00     0.323 C 
HETATM    3  O   UNL     1     -41.061 -52.067  11.421  1.00  0.00    -0.247 OA
HETATM    4  N   UNL     1     -40.429 -50.259  12.720  1.00  0.00    -0.273 N 
HETATM    5  H   UNL     1     -39.428 -52.027  14.076  1.00  0.00     0.164 HD
HETATM    6  H   UNL     1     -40.359 -49.961  13.676  1.00  0.00     0.174 HD
ENDROOT
BRANCH   1   7
HETATM    7  C   UNL     1     -40.427 -53.818  13.484  1.00  0.00     0.087 C 
HETATM    8  C   UNL     1     -41.723 -54.163  14.212  1.00  0.00     0.026 C 
HETATM    9  C   UNL     1     -41.331 -54.612  15.619  1.00  0.00     0.017 C 
HETATM   10  C   UNL     1     -39.799 -54.615  15.671  1.00  0.00     0.049 C 
HETATM   11  C   UNL     1     -39.353 -54.627  14.211  1.00  0.00     0.040 C 
BRANCH  10  12
HETATM   12  S   UNL     1     -39.204 -56.040  16.646  1.00  0.00    -0.169 SA
HETATM   13  C   UNL     1     -40.780 -56.825  17.055  1.00  0.00     0.090 C 
ENDBRANCH  10  12
ENDBRANCH   1   7
BRANCH   4  14
HETATM   14  C   UNL     1     -40.849 -49.300  11.839  1.00  0.00     0.252 A 
HETATM   15  N   UNL     1     -42.028 -49.257  11.263  1.00  0.00    -0.309 N 
HETATM   16  C   UNL     1     -41.908 -48.150  10.458  1.00  0.00     0.101 A 
ATOM     17  HN  UNL     1     -42.825 -49.882  11.383  1.00  0.00     0.170 HD
HETATM   18  C   UNL     1     -42.963 -47.726   9.519  1.00  0.00     0.091 C 
HETATM   19  N   UNL     1     -40.748 -47.491  10.566  1.00  0.00    -0.246 N 
HETATM   20  O   UNL     1     -40.033 -48.265  11.486  1.00  0.00    -0.199 OA
ATOM     21  HN  UNL     1     -40.457 -46.636  10.093  1.00  0.00     0.196 HD
ENDBRANCH   4  14
TORSDOF 3
ENDMDL
MODEL 7
REMARK VINA RESULT:      -5.1      2.280      3.184
REMARK  3 active torsions:
REMARK  status: ('A' for Active; 'I' for Inactive)
REMARK    1  A    between atoms: S_2  and  C_3 
REMARK    2  A    between atoms: C_6  and  N_8 
REMARK       I    between atoms: N_8  and  C_9 
REMARK       I    between atoms: C_9  and  N_11 
REMARK    3  A    between atoms: N_11  and  C_12 
ROOT
HETATM    1  N   UNL     1     -41.541 -51.195  12.795  1.00  0.00    -0.338 N 
HETATM    2  C   UNL     1     -41.560 -50.054  12.013  1.00  0.00     0.323 C 
HETATM    3  O   UNL     1     -40.639 -49.764  11.263  1.00  0.00    -0.247 OA
HETATM    4  N   UNL     1     -42.741 -49.371  12.148  1.00  0.00    -0.273 N 
HETATM    5  H   UNL     1     -42.056 -51.161  13.663  1.00  0.00     0.164 HD
HETATM    6  H   UNL     1     -43.549 -49.849  12.504  1.00  0.00     0.174 HD
ENDROOT
BRANCH   1   7
HETATM    7  C   UNL     1     -40.457 -52.159  12.661  1.00  0.00     0.087 C 
HETATM    8  C   UNL     1     -40.996 -53.583  12.555  1.00  0.00     0.026 C 
HETATM    9  C   UNL     1     -40.889 -54.199  13.949  1.00  0.00     0.017 C 
HETATM   10  C   UNL     1     -40.201 -53.159  14.840  1.00  0.00     0.049 C 
HETATM   11  C   UNL     1     -39.524 -52.192  13.871  1.00  0.00     0.040 C 
BRANCH  10  12
HETATM   12  S   UNL     1     -39.055 -53.982  15.999  1.00  0.00    -0.169 SA
HETATM   13  C   UNL     1     -39.941 -55.533  16.274  1.00  0.00     0.090 C 
ENDBRANCH  10  12
ENDBRANCH   1   7
BRANCH   4  14
HETATM   14  C   UNL     1     -43.003 -48.259  11.396  1.00  0.00     0.252 A 
HETATM   15  N   UNL     1     -43.097 -48.229  10.086  1.00  0.00    -0.309 N 
HETATM   16  C   UNL     1     -43.317 -46.893   9.850  1.00  0.00     0.101 A 
ATOM     17  HN  UNL     1     -43.025 -48.996   9.419  1.00  0.00     0.170 HD
HETATM   18  C   UNL     1     -43.400 -46.325   8.493  1.00  0.00     0.091 C 
HETATM   19  N   UNL     1     -43.423 -46.132  10.946  1.00  0.00    -0.246 N 
HETATM   20  O   UNL     1     -43.206 -47.045  11.983  1.00  0.00    -0.199 OA
ATOM     21  HN  UNL     1     -43.615 -45.133  11.009  1.00  0.00     0.196 HD
ENDBRANCH   4  14
TORSDOF 3
ENDMDL
MODEL 8
REMARK VINA RESULT:      -5.1      4.213      6.528
REMARK  3 active torsions:
REMARK  status: ('A' for Active; 'I' for Inactive)
REMARK    1  A    between atoms: S_2  and  C_3 
REMARK    2  A    between atoms: C_6  and  N_8 
REMARK       I    between atoms: N_8  and  C_9 
REMARK       I    between atoms: C_9  and  N_11 
REMARK    3  A    between atoms: N_11  and  C_12 
ROOT
HETATM    1  N   UNL     1     -42.374 -49.295  11.733  1.00  0.00    -0.338 N 
HETATM    2  C   UNL     1     -42.924 -50.295  12.513  1.00  0.00     0.323 C 
HETATM    3  O   UNL     1     -43.755 -50.063  13.379  1.00  0.00    -0.247 OA
HETATM    4  N   UNL     1     -42.469 -51.533  12.138  1.00  0.00    -0.273 N 
HETATM    5  H   UNL     1     -41.439 -49.450  11.384  1.00  0.00     0.164 HD
HETATM    6  H   UNL     1     -42.073 -51.656  11.224  1.00  0.00     0.174 HD
ENDROOT
BRANCH   1   7
HETATM    7  C   UNL     1     -42.862 -47.926  11.842  1.00  0.00     0.087 C 
HETATM    8  C   UNL     1     -43.489 -47.457  10.532  1.00  0.00     0.026 C 
HETATM    9  C   UNL     1     -42.425 -46.638   9.803  1.00  0.00     0.017 C 
HETATM   10  C   UNL     1     -41.213 -46.557  10.738  1.00  0.00     0.049 C 
HETATM   11  C   UNL     1     -41.754 -46.910  12.121  1.00  0.00     0.040 C 
BRANCH  10  12
HETATM   12  S   UNL     1     -40.448 -44.902  10.635  1.00  0.00    -0.169 SA
HETATM   13  C   UNL     1     -39.610 -44.838  12.235  1.00  0.00     0.090 C 
ENDBRANCH  10  12
ENDBRANCH   1   7
BRANCH   4  14
HETATM   14  C   UNL     1     -42.954 -52.671  12.723  1.00  0.00     0.252 A 
HETATM   15  N   UNL     1     -44.166 -53.152  12.567  1.00  0.00    -0.309 N 
HETATM   16  C   UNL     1     -44.142 -54.250  13.393  1.00  0.00     0.101 A 
ATOM     17  HN  UNL     1     -44.926 -52.802  11.984  1.00  0.00     0.170 HD
HETATM   18  C   UNL     1     -45.327 -55.091  13.638  1.00  0.00     0.091 C 
HETATM   19  N   UNL     1     -42.967 -54.489  13.986  1.00  0.00    -0.246 N 
HETATM   20  O   UNL     1     -42.170 -53.428  13.544  1.00  0.00    -0.199 OA
ATOM     21  HN  UNL     1     -42.714 -55.257  14.608  1.00  0.00     0.196 HD
ENDBRANCH   4  14
TORSDOF 3
ENDMDL
MODEL 9
REMARK VINA RESULT:      -5.0      2.697      3.894
REMARK  3 active torsions:
REMARK  status: ('A' for Active; 'I' for Inactive)
REMARK    1  A    between atoms: S_2  and  C_3 
REMARK    2  A    between atoms: C_6  and  N_8 
REMARK       I    between atoms: N_8  and  C_9 
REMARK       I    between atoms: C_9  and  N_11 
REMARK    3  A    between atoms: N_11  and  C_12 
ROOT
HETATM    1  N   UNL     1     -41.435 -51.515  12.253  1.00  0.00    -0.338 N 
HETATM    2  C   UNL     1     -40.954 -50.298  11.803  1.00  0.00     0.323 C 
HETATM    3  O   UNL     1     -39.758 -50.059  11.726  1.00  0.00    -0.247 OA
HETATM    4  N   UNL     1     -41.973 -49.470  11.409  1.00  0.00    -0.273 N 
HETATM    5  H   UNL     1     -42.339 -51.510  12.703  1.00  0.00     0.164 HD
HETATM    6  H   UNL     1     -42.870 -49.864  11.186  1.00  0.00     0.174 HD
ENDROOT
BRANCH   1   7
HETATM    7  C   UNL     1     -40.513 -52.605  12.545  1.00  0.00     0.087 C 
HETATM    8  C   UNL     1     -41.252 -53.935  12.668  1.00  0.00     0.026 C 
HETATM    9  C   UNL     1     -41.458 -54.188  14.161  1.00  0.00     0.017 C 
HETATM   10  C   UNL     1     -40.753 -53.046  14.903  1.00  0.00     0.049 C 
HETATM   11  C   UNL     1     -39.790 -52.444  13.882  1.00  0.00     0.040 C 
BRANCH  10  12
HETATM   12  S   UNL     1     -39.942 -53.682  16.411  1.00  0.00    -0.169 SA
HETATM   13  C   UNL     1     -40.208 -55.456  16.191  1.00  0.00     0.090 C 
ENDBRANCH  10  12
ENDBRANCH   1   7
BRANCH   4  14
HETATM   14  C   UNL     1     -41.715 -48.249  10.848  1.00  0.00     0.252 A 
HETATM   15  N   UNL     1     -40.689 -47.481  11.133  1.00  0.00    -0.309 N 
HETATM   16  C   UNL     1     -40.932 -46.382  10.345  1.00  0.00     0.101 A 
ATOM     17  HN  UNL     1     -39.913 -47.655  11.772  1.00  0.00     0.170 HD
HETATM   18  C   UNL     1     -40.091 -45.172  10.378  1.00  0.00     0.091 C 
HETATM   19  N   UNL     1     -42.011 -46.474   9.558  1.00  0.00    -0.246 N 
HETATM   20  O   UNL     1     -42.541 -47.723   9.899  1.00  0.00    -0.199 OA
ATOM     21  HN  UNL     1     -42.360 -45.800   8.878  1.00  0.00     0.196 HD
ENDBRANCH   4  14
TORSDOF 3
ENDMDL
