MODEL 1
REMARK VINA RESULT:      -5.6      0.000      0.000
REMARK  5 active torsions:
REMARK  status: ('A' for Active; 'I' for Inactive)
REMARK    1  A    between atoms: C_2  and  C_3 
REMARK       I    between atoms: C_2  and  N_10 
REMARK    2  A    between atoms: C_3  and  N_4 
REMARK    3  A    between atoms: N_10  and  C_11 
REMARK    4  A    between atoms: C_11  and  C_12 
REMARK    5  A    between atoms: C_12  and  C_13 
ROOT
HETATM    1  O   UNL     1     -43.577 -55.650  15.415  1.00  0.00    -0.272 OA
HETATM    2  C   UNL     1     -43.736 -54.899  14.453  1.00  0.00     0.235 C 
HETATM    3  N   UNL     1     -42.646 -54.173  14.056  1.00  0.00    -0.359 N 
HETATM    4  H   UNL     1     -41.854 -54.307  14.676  1.00  0.00     0.162 HD
ENDROOT
BRANCH   3   5
HETATM    5  C   UNL     1     -42.597 -53.094  13.081  1.00  0.00     0.127 C 
BRANCH   5   6
HETATM    6  C   UNL     1     -42.655 -51.731  13.774  1.00  0.00     0.059 C 
BRANCH   6   7
HETATM    7  C   UNL     1     -42.426 -50.584  12.834  1.00  0.00    -0.041 A 
HETATM    8  C   UNL     1     -43.266 -49.469  12.831  1.00  0.00     0.010 A 
HETATM    9  C   UNL     1     -43.037 -48.435  11.928  1.00  0.00     0.018 A 
HETATM   10  C   UNL     1     -41.965 -48.549  11.058  1.00  0.00     0.087 A 
HETATM   11  N   UNL     1     -41.124 -49.603  11.040  1.00  0.00    -0.375 N 
HETATM   12  C   UNL     1     -41.371 -50.595  11.925  1.00  0.00     0.094 A 
ATOM     13  HN  UNL     1     -40.339 -49.650  10.389  1.00  0.00     0.164 HD
ENDBRANCH   6   7
ENDBRANCH   5   6
ENDBRANCH   3   5
BRANCH   2  14
HETATM   14  C   UNL     1     -45.040 -54.810  13.641  1.00  0.00     0.228 C 
BRANCH  14  15
HETATM   15  N   UNL     1     -45.852 -53.651  14.006  1.00  0.00    -0.343 N 
HETATM   16  C   UNL     1     -46.040 -53.229  15.371  1.00  0.00     0.127 C 
HETATM   17  C   UNL     1     -46.755 -51.894  15.273  1.00  0.00     0.029 C 
HETATM   18  C   UNL     1     -46.518 -51.412  13.851  1.00  0.00     0.104 C 
HETATM   19  C   UNL     1     -46.158 -52.663  13.091  1.00  0.00     0.220 C 
HETATM   20  O   UNL     1     -46.088 -52.753  11.875  1.00  0.00    -0.273 OA
ENDBRANCH  14  15
ENDBRANCH   2  14
TORSDOF 5
ENDMDL
MODEL 2
REMARK VINA RESULT:      -5.3      1.718      2.032
REMARK  5 active torsions:
REMARK  status: ('A' for Active; 'I' for Inactive)
REMARK    1  A    between atoms: C_2  and  C_3 
REMARK       I    between atoms: C_2  and  N_10 
REMARK    2  A    between atoms: C_3  and  N_4 
REMARK    3  A    between atoms: N_10  and  C_11 
REMARK    4  A    between atoms: C_11  and  C_12 
REMARK    5  A    between atoms: C_12  and  C_13 
ROOT
HETATM    1  O   UNL     1     -43.984 -54.909  16.504  1.00  0.00    -0.272 OA
HETATM    2  C   UNL     1     -43.937 -54.737  15.286  1.00  0.00     0.235 C 
HETATM    3  N   UNL     1     -42.698 -54.536  14.743  1.00  0.00    -0.359 N 
HETATM    4  H   UNL     1     -41.975 -54.484  15.454  1.00  0.00     0.162 HD
ENDROOT
BRANCH   3   5
HETATM    5  C   UNL     1     -42.371 -54.135  13.383  1.00  0.00     0.127 C 
BRANCH   5   6
HETATM    6  C   UNL     1     -40.860 -53.959  13.216  1.00  0.00     0.059 C 
BRANCH   6   7
HETATM    7  C   UNL     1     -40.476 -52.584  12.753  1.00  0.00    -0.041 A 
HETATM    8  C   UNL     1     -39.475 -51.854  13.397  1.00  0.00     0.010 A 
HETATM    9  C   UNL     1     -39.163 -50.573  12.954  1.00  0.00     0.018 A 
HETATM   10  C   UNL     1     -39.862 -50.063  11.873  1.00  0.00     0.087 A 
HETATM   11  N   UNL     1     -40.826 -50.742  11.217  1.00  0.00    -0.375 N 
HETATM   12  C   UNL     1     -41.111 -51.984  11.669  1.00  0.00     0.094 A 
ATOM     13  HN  UNL     1     -41.316 -50.338  10.418  1.00  0.00     0.164 HD
ENDBRANCH   6   7
ENDBRANCH   5   6
ENDBRANCH   3   5
BRANCH   2  14
HETATM   14  C   UNL     1     -45.163 -54.828  14.359  1.00  0.00     0.228 C 
BRANCH  14  15
HETATM   15  N   UNL     1     -45.924 -53.581  14.309  1.00  0.00    -0.343 N 
HETATM   16  C   UNL     1     -46.377 -52.897  15.493  1.00  0.00     0.127 C 
HETATM   17  C   UNL     1     -46.923 -51.571  14.994  1.00  0.00     0.029 C 
HETATM   18  C   UNL     1     -46.325 -51.384  13.609  1.00  0.00     0.104 C 
HETATM   19  C   UNL     1     -45.920 -52.774  13.189  1.00  0.00     0.220 C 
HETATM   20  O   UNL     1     -45.585 -53.100  12.061  1.00  0.00    -0.273 OA
ENDBRANCH  14  15
ENDBRANCH   2  14
TORSDOF 5
ENDMDL
MODEL 3
REMARK VINA RESULT:      -5.3      1.591      2.117
REMARK  5 active torsions:
REMARK  status: ('A' for Active; 'I' for Inactive)
REMARK    1  A    between atoms: C_2  and  C_3 
REMARK       I    between atoms: C_2  and  N_10 
REMARK    2  A    between atoms: C_3  and  N_4 
REMARK    3  A    between atoms: N_10  and  C_11 
REMARK    4  A    between atoms: C_11  and  C_12 
REMARK    5  A    between atoms: C_12  and  C_13 
ROOT
HETATM    1  O   UNL     1     -44.861 -53.496  11.989  1.00  0.00    -0.272 OA
HETATM    2  C   UNL     1     -43.864 -53.206  12.650  1.00  0.00     0.235 C 
HETATM    3  N   UNL     1     -42.858 -52.557  11.988  1.00  0.00    -0.359 N 
HETATM    4  H   UNL     1     -43.052 -52.466  10.996  1.00  0.00     0.162 HD
ENDROOT
BRANCH   3   5
HETATM    5  C   UNL     1     -41.516 -52.260  12.468  1.00  0.00     0.127 C 
BRANCH   5   6
HETATM    6  C   UNL     1     -41.462 -50.870  13.105  1.00  0.00     0.059 C 
BRANCH   6   7
HETATM    7  C   UNL     1     -41.825 -49.771  12.149  1.00  0.00    -0.041 A 
HETATM    8  C   UNL     1     -42.953 -48.974  12.353  1.00  0.00     0.010 A 
HETATM    9  C   UNL     1     -43.271 -47.981  11.432  1.00  0.00     0.018 A 
HETATM   10  C   UNL     1     -42.441 -47.812  10.336  1.00  0.00     0.087 A 
HETATM   11  N   UNL     1     -41.336 -48.552  10.112  1.00  0.00    -0.375 N 
HETATM   12  C   UNL     1     -41.052 -49.512  11.020  1.00  0.00     0.094 A 
ATOM     13  HN  UNL     1     -40.743 -48.395   9.296  1.00  0.00     0.164 HD
ENDBRANCH   6   7
ENDBRANCH   5   6
ENDBRANCH   3   5
BRANCH   2  14
HETATM   14  C   UNL     1     -43.737 -53.451  14.164  1.00  0.00     0.228 C 
BRANCH  14  15
HETATM   15  N   UNL     1     -44.802 -52.807  14.930  1.00  0.00    -0.343 N 
HETATM   16  C   UNL     1     -44.919 -51.376  15.052  1.00  0.00     0.127 C 
HETATM   17  C   UNL     1     -46.255 -51.149  15.735  1.00  0.00     0.029 C 
HETATM   18  C   UNL     1     -47.032 -52.441  15.541  1.00  0.00     0.104 C 
HETATM   19  C   UNL     1     -45.971 -53.470  15.245  1.00  0.00     0.220 C 
HETATM   20  O   UNL     1     -46.148 -54.679  15.226  1.00  0.00    -0.273 OA
ENDBRANCH  14  15
ENDBRANCH   2  14
TORSDOF 5
ENDMDL
MODEL 4
REMARK VINA RESULT:      -5.2      3.119      6.329
REMARK  5 active torsions:
REMARK  status: ('A' for Active; 'I' for Inactive)
REMARK    1  A    between atoms: C_2  and  C_3 
REMARK       I    between atoms: C_2  and  N_10 
REMARK    2  A    between atoms: C_3  and  N_4 
REMARK    3  A    between atoms: N_10  and  C_11 
REMARK    4  A    between atoms: C_11  and  C_12 
REMARK    5  A    between atoms: C_12  and  C_13 
ROOT
HETATM    1  O   UNL     1     -39.026 -54.156  13.605  1.00  0.00    -0.272 OA
HETATM    2  C   UNL     1     -39.777 -53.184  13.681  1.00  0.00     0.235 C 
HETATM    3  N   UNL     1     -41.095 -53.404  13.391  1.00  0.00    -0.359 N 
HETATM    4  H   UNL     1     -41.261 -54.354  13.074  1.00  0.00     0.162 HD
ENDROOT
BRANCH   3   5
HETATM    5  C   UNL     1     -42.153 -52.418  13.229  1.00  0.00     0.127 C 
BRANCH   5   6
HETATM    6  C   UNL     1     -43.335 -53.010  12.458  1.00  0.00     0.059 C 
BRANCH   6   7
HETATM    7  C   UNL     1     -44.641 -52.865  13.184  1.00  0.00    -0.041 A 
HETATM    8  C   UNL     1     -45.138 -51.609  13.539  1.00  0.00     0.010 A 
HETATM    9  C   UNL     1     -46.341 -51.514  14.232  1.00  0.00     0.018 A 
HETATM   10  C   UNL     1     -47.013 -52.685  14.543  1.00  0.00     0.087 A 
HETATM   11  N   UNL     1     -46.572 -53.914  14.205  1.00  0.00    -0.375 N 
HETATM   12  C   UNL     1     -45.400 -53.978  13.534  1.00  0.00     0.094 A 
ATOM     13  HN  UNL     1     -47.098 -54.756  14.444  1.00  0.00     0.164 HD
ENDBRANCH   6   7
ENDBRANCH   5   6
ENDBRANCH   3   5
BRANCH   2  14
HETATM   14  C   UNL     1     -39.331 -51.791  14.163  1.00  0.00     0.228 C 
BRANCH  14  15
HETATM   15  N   UNL     1     -39.041 -50.880  13.059  1.00  0.00    -0.343 N 
HETATM   16  C   UNL     1     -39.792 -49.671  12.829  1.00  0.00     0.127 C 
HETATM   17  C   UNL     1     -39.032 -48.941  11.736  1.00  0.00     0.029 C 
HETATM   18  C   UNL     1     -37.640 -49.552  11.735  1.00  0.00     0.104 C 
HETATM   19  C   UNL     1     -37.820 -50.885  12.416  1.00  0.00     0.220 C 
HETATM   20  O   UNL     1     -36.990 -51.781  12.441  1.00  0.00    -0.273 OA
ENDBRANCH  14  15
ENDBRANCH   2  14
TORSDOF 5
ENDMDL
MODEL 5
REMARK VINA RESULT:      -5.2      2.019      2.973
REMARK  5 active torsions:
REMARK  status: ('A' for Active; 'I' for Inactive)
REMARK    1  A    between atoms: C_2  and  C_3 
REMARK       I    between atoms: C_2  and  N_10 
REMARK    2  A    between atoms: C_3  and  N_4 
REMARK    3  A    between atoms: N_10  and  C_11 
REMARK    4  A    between atoms: C_11  and  C_12 
REMARK    5  A    between atoms: C_12  and  C_13 
ROOT
HETATM    1  O   UNL     1     -44.840 -54.567  12.525  1.00  0.00    -0.272 OA
HETATM    2  C   UNL     1     -43.922 -54.000  13.116  1.00  0.00     0.235 C 
HETATM    3  N   UNL     1     -42.936 -53.457  12.339  1.00  0.00    -0.359 N 
HETATM    4  H   UNL     1     -43.068 -53.667  11.355  1.00  0.00     0.162 HD
ENDROOT
BRANCH   3   5
HETATM    5  C   UNL     1     -41.663 -52.896  12.770  1.00  0.00     0.127 C 
BRANCH   5   6
HETATM    6  C   UNL     1     -41.598 -51.399  12.464  1.00  0.00     0.059 C 
BRANCH   6   7
HETATM    7  C   UNL     1     -40.200 -50.911  12.214  1.00  0.00    -0.041 A 
HETATM    8  C   UNL     1     -39.131 -51.337  13.004  1.00  0.00     0.010 A 
HETATM    9  C   UNL     1     -37.852 -50.846  12.758  1.00  0.00     0.018 A 
HETATM   10  C   UNL     1     -37.684 -49.945  11.720  1.00  0.00     0.087 A 
HETATM   11  N   UNL     1     -38.689 -49.520  10.926  1.00  0.00    -0.375 N 
HETATM   12  C   UNL     1     -39.921 -50.011  11.189  1.00  0.00     0.094 A 
ATOM     13  HN  UNL     1     -38.528 -48.860  10.165  1.00  0.00     0.164 HD
ENDBRANCH   6   7
ENDBRANCH   5   6
ENDBRANCH   3   5
BRANCH   2  14
HETATM   14  C   UNL     1     -43.879 -53.799  14.642  1.00  0.00     0.228 C 
BRANCH  14  15
HETATM   15  N   UNL     1     -44.953 -52.934  15.126  1.00  0.00    -0.343 N 
HETATM   16  C   UNL     1     -45.266 -51.665  14.518  1.00  0.00     0.127 C 
HETATM   17  C   UNL     1     -46.553 -51.218  15.186  1.00  0.00     0.029 C 
HETATM   18  C   UNL     1     -47.147 -52.476  15.800  1.00  0.00     0.104 C 
HETATM   19  C   UNL     1     -45.979 -53.422  15.910  1.00  0.00     0.220 C 
HETATM   20  O   UNL     1     -45.978 -54.470  16.537  1.00  0.00    -0.273 OA
ENDBRANCH  14  15
ENDBRANCH   2  14
TORSDOF 5
ENDMDL
MODEL 6
REMARK VINA RESULT:      -5.2      2.142      2.953
REMARK  5 active torsions:
REMARK  status: ('A' for Active; 'I' for Inactive)
REMARK    1  A    between atoms: C_2  and  C_3 
REMARK       I    between atoms: C_2  and  N_10 
REMARK    2  A    between atoms: C_3  and  N_4 
REMARK    3  A    between atoms: N_10  and  C_11 
REMARK    4  A    between atoms: C_11  and  C_12 
REMARK    5  A    between atoms: C_12  and  C_13 
ROOT
HETATM    1  O   UNL     1     -45.030 -52.683  17.599  1.00  0.00    -0.272 OA
HETATM    2  C   UNL     1     -44.839 -53.550  16.747  1.00  0.00     0.235 C 
HETATM    3  N   UNL     1     -43.576 -54.072  16.675  1.00  0.00    -0.359 N 
HETATM    4  H   UNL     1     -42.935 -53.605  17.308  1.00  0.00     0.162 HD
ENDROOT
BRANCH   3   5
HETATM    5  C   UNL     1     -43.032 -54.964  15.662  1.00  0.00     0.127 C 
BRANCH   5   6
HETATM    6  C   UNL     1     -41.607 -54.554  15.285  1.00  0.00     0.059 C 
BRANCH   6   7
HETATM    7  C   UNL     1     -41.551 -53.689  14.060  1.00  0.00    -0.041 A 
HETATM    8  C   UNL     1     -42.133 -52.420  14.040  1.00  0.00     0.010 A 
HETATM    9  C   UNL     1     -42.081 -51.656  12.878  1.00  0.00     0.018 A 
HETATM   10  C   UNL     1     -41.440 -52.186  11.771  1.00  0.00     0.087 A 
HETATM   11  N   UNL     1     -40.854 -53.402  11.756  1.00  0.00    -0.375 N 
HETATM   12  C   UNL     1     -40.921 -54.124  12.897  1.00  0.00     0.094 A 
ATOM     13  HN  UNL     1     -40.383 -53.758  10.924  1.00  0.00     0.164 HD
ENDBRANCH   6   7
ENDBRANCH   5   6
ENDBRANCH   3   5
BRANCH   2  14
HETATM   14  C   UNL     1     -45.946 -54.125  15.845  1.00  0.00     0.228 C 
BRANCH  14  15
HETATM   15  N   UNL     1     -46.162 -53.326  14.640  1.00  0.00    -0.343 N 
HETATM   16  C   UNL     1     -46.494 -51.925  14.684  1.00  0.00     0.127 C 
HETATM   17  C   UNL     1     -46.416 -51.460  13.241  1.00  0.00     0.029 C 
HETATM   18  C   UNL     1     -45.592 -52.514  12.521  1.00  0.00     0.104 C 
HETATM   19  C   UNL     1     -45.685 -53.728  13.409  1.00  0.00     0.220 C 
HETATM   20  O   UNL     1     -45.333 -54.856  13.100  1.00  0.00    -0.273 OA
ENDBRANCH  14  15
ENDBRANCH   2  14
TORSDOF 5
ENDMDL
MODEL 7
REMARK VINA RESULT:      -5.2      2.513      3.924
REMARK  5 active torsions:
REMARK  status: ('A' for Active; 'I' for Inactive)
REMARK    1  A    between atoms: C_2  and  C_3 
REMARK       I    between atoms: C_2  and  N_10 
REMARK    2  A    between atoms: C_3  and  N_4 
REMARK    3  A    between atoms: N_10  and  C_11 
REMARK    4  A    between atoms: C_11  and  C_12 
REMARK    5  A    between atoms: C_12  and  C_13 
ROOT
HETATM    1  O   UNL     1     -44.759 -54.544  12.415  1.00  0.00    -0.272 OA
HETATM    2  C   UNL     1     -43.968 -53.733  12.896  1.00  0.00     0.235 C 
HETATM    3  N   UNL     1     -43.340 -52.895  12.016  1.00  0.00    -0.359 N 
HETATM    4  H   UNL     1     -43.568 -53.115  11.052  1.00  0.00     0.162 HD
ENDROOT
BRANCH   3   5
HETATM    5  C   UNL     1     -42.242 -51.976  12.282  1.00  0.00     0.127 C 
BRANCH   5   6
HETATM    6  C   UNL     1     -40.893 -52.664  12.066  1.00  0.00     0.059 C 
BRANCH   6   7
HETATM    7  C   UNL     1     -40.222 -53.056  13.351  1.00  0.00    -0.041 A 
HETATM    8  C   UNL     1     -40.051 -54.397  13.701  1.00  0.00     0.010 A 
HETATM    9  C   UNL     1     -39.446 -54.721  14.911  1.00  0.00     0.018 A 
HETATM   10  C   UNL     1     -39.024 -53.689  15.733  1.00  0.00     0.087 A 
HETATM   11  N   UNL     1     -39.160 -52.383  15.423  1.00  0.00    -0.375 N 
HETATM   12  C   UNL     1     -39.753 -52.095  14.243  1.00  0.00     0.094 A 
ATOM     13  HN  UNL     1     -38.830 -51.647  16.049  1.00  0.00     0.164 HD
ENDBRANCH   6   7
ENDBRANCH   5   6
ENDBRANCH   3   5
BRANCH   2  14
HETATM   14  C   UNL     1     -43.729 -53.559  14.407  1.00  0.00     0.228 C 
BRANCH  14  15
HETATM   15  N   UNL     1     -44.812 -52.836  15.069  1.00  0.00    -0.343 N 
HETATM   16  C   UNL     1     -44.950 -51.403  14.999  1.00  0.00     0.127 C 
HETATM   17  C   UNL     1     -46.298 -51.109  15.631  1.00  0.00     0.029 C 
HETATM   18  C   UNL     1     -47.054 -52.427  15.603  1.00  0.00     0.104 C 
HETATM   19  C   UNL     1     -45.975 -53.470  15.457  1.00  0.00     0.220 C 
HETATM   20  O   UNL     1     -46.135 -54.672  15.598  1.00  0.00    -0.273 OA
ENDBRANCH  14  15
ENDBRANCH   2  14
TORSDOF 5
ENDMDL
MODEL 8
REMARK VINA RESULT:      -5.1      2.404      4.007
REMARK  5 active torsions:
REMARK  status: ('A' for Active; 'I' for Inactive)
REMARK    1  A    between atoms: C_2  and  C_3 
REMARK       I    between atoms: C_2  and  N_10 
REMARK    2  A    between atoms: C_3  and  N_4 
REMARK    3  A    between atoms: N_10  and  C_11 
REMARK    4  A    between atoms: C_11  and  C_12 
REMARK    5  A    between atoms: C_12  and  C_13 
ROOT
HETATM    1  O   UNL     1     -41.077 -52.631  11.720  1.00  0.00    -0.272 OA
HETATM    2  C   UNL     1     -41.697 -51.646  12.121  1.00  0.00     0.235 C 
HETATM    3  N   UNL     1     -41.454 -50.465  11.476  1.00  0.00    -0.359 N 
HETATM    4  H   UNL     1     -40.719 -50.555  10.781  1.00  0.00     0.162 HD
ENDROOT
BRANCH   3   5
HETATM    5  C   UNL     1     -41.903 -49.132  11.850  1.00  0.00     0.127 C 
BRANCH   5   6
HETATM    6  C   UNL     1     -41.694 -48.145  10.699  1.00  0.00     0.059 C 
BRANCH   6   7
HETATM    7  C   UNL     1     -42.949 -47.877   9.920  1.00  0.00    -0.041 A 
HETATM    8  C   UNL     1     -44.176 -47.697  10.561  1.00  0.00     0.010 A 
HETATM    9  C   UNL     1     -45.323 -47.474   9.806  1.00  0.00     0.018 A 
HETATM   10  C   UNL     1     -45.203 -47.432   8.427  1.00  0.00     0.087 A 
HETATM   11  N   UNL     1     -44.033 -47.587   7.772  1.00  0.00    -0.375 N 
HETATM   12  C   UNL     1     -42.935 -47.805   8.530  1.00  0.00     0.094 A 
ATOM     13  HN  UNL     1     -43.980 -47.543   6.754  1.00  0.00     0.164 HD
ENDBRANCH   6   7
ENDBRANCH   5   6
ENDBRANCH   3   5
BRANCH   2  14
HETATM   14  C   UNL     1     -42.771 -51.699  13.222  1.00  0.00     0.228 C 
BRANCH  14  15
HETATM   15  N   UNL     1     -43.142 -53.066  13.582  1.00  0.00    -0.343 N 
HETATM   16  C   UNL     1     -42.607 -53.741  14.737  1.00  0.00     0.127 C 
HETATM   17  C   UNL     1     -43.407 -55.026  14.845  1.00  0.00     0.029 C 
HETATM   18  C   UNL     1     -44.662 -54.790  14.022  1.00  0.00     0.104 C 
HETATM   19  C   UNL     1     -44.294 -53.655  13.101  1.00  0.00     0.220 C 
HETATM   20  O   UNL     1     -44.948 -53.289  12.137  1.00  0.00    -0.273 OA
ENDBRANCH  14  15
ENDBRANCH   2  14
TORSDOF 5
ENDMDL
MODEL 9
REMARK VINA RESULT:      -5.0      2.567      4.633
REMARK  5 active torsions:
REMARK  status: ('A' for Active; 'I' for Inactive)
REMARK    1  A    between atoms: C_2  and  C_3 
REMARK       I    between atoms: C_2  and  N_10 
REMARK    2  A    between atoms: C_3  and  N_4 
REMARK    3  A    between atoms: N_10  and  C_11 
REMARK    4  A    between atoms: C_11  and  C_12 
REMARK    5  A    between atoms: C_12  and  C_13 
ROOT
HETATM    1  O   UNL     1     -41.481 -52.022  12.224  1.00  0.00    -0.272 OA
HETATM    2  C   UNL     1     -42.418 -52.744  12.566  1.00  0.00     0.235 C 
HETATM    3  N   UNL     1     -43.671 -52.336  12.200  1.00  0.00    -0.359 N 
HETATM    4  H   UNL     1     -43.658 -51.429  11.745  1.00  0.00     0.162 HD
ENDROOT
BRANCH   3   5
HETATM    5  C   UNL     1     -44.950 -52.891  12.617  1.00  0.00     0.127 C 
BRANCH   5   6
HETATM    6  C   UNL     1     -45.947 -51.776  12.939  1.00  0.00     0.059 C 
BRANCH   6   7
HETATM    7  C   UNL     1     -45.970 -51.411  14.395  1.00  0.00    -0.041 A 
HETATM    8  C   UNL     1     -47.075 -51.701  15.198  1.00  0.00     0.010 A 
HETATM    9  C   UNL     1     -47.071 -51.327  16.538  1.00  0.00     0.018 A 
HETATM   10  C   UNL     1     -45.952 -50.678  17.035  1.00  0.00     0.087 A 
HETATM   11  N   UNL     1     -44.861 -50.393  16.294  1.00  0.00    -0.375 N 
HETATM   12  C   UNL     1     -44.893 -50.765  14.995  1.00  0.00     0.094 A 
ATOM     13  HN  UNL     1     -44.051 -49.920  16.695  1.00  0.00     0.164 HD
ENDBRANCH   6   7
ENDBRANCH   5   6
ENDBRANCH   3   5
BRANCH   2  14
HETATM   14  C   UNL     1     -42.242 -54.094  13.286  1.00  0.00     0.228 C 
BRANCH  14  15
HETATM   15  N   UNL     1     -42.484 -54.001  14.724  1.00  0.00    -0.343 N 
HETATM   16  C   UNL     1     -41.941 -52.943  15.539  1.00  0.00     0.127 C 
HETATM   17  C   UNL     1     -42.606 -53.113  16.893  1.00  0.00     0.029 C 
HETATM   18  C   UNL     1     -43.835 -53.969  16.635  1.00  0.00     0.104 C 
HETATM   19  C   UNL     1     -43.541 -54.654  15.325  1.00  0.00     0.220 C 
HETATM   20  O   UNL     1     -44.180 -55.584  14.858  1.00  0.00    -0.273 OA
ENDBRANCH  14  15
ENDBRANCH   2  14
TORSDOF 5
ENDMDL
