MODEL 1
REMARK VINA RESULT:      -6.0      0.000      0.000
REMARK  6 active torsions:
REMARK  status: ('A' for Active; 'I' for Inactive)
REMARK    1  A    between atoms: C_2  and  C_3 
REMARK    2  A    between atoms: C_3  and  O_4 
REMARK    3  A    between atoms: O_4  and  C_5 
REMARK    4  A    between atoms: C_5  and  C_6 
REMARK    5  A    between atoms: C_6  and  N_7 
REMARK    6  A    between atoms: N_7  and  C_8 
ROOT
HETATM    1  N   UNL     1     -43.063 -53.433  12.218  1.00  0.00    -0.384 N 
HETATM    2  H   UNL     1     -42.645 -54.315  11.921  1.00  0.00     0.159 HD
ENDROOT
BRANCH   1   3
HETATM    3  C   UNL     1     -42.138 -52.300  12.214  1.00  0.00     0.158 C 
BRANCH   3   4
HETATM    4  C   UNL     1     -40.832 -52.583  13.018  1.00  0.00     0.076 C 
HETATM    5  C   UNL     1     -41.032 -52.095  14.475  1.00  0.00     0.040 C 
HETATM    6  C   UNL     1     -39.867 -52.453  15.395  1.00  0.00     0.003 C 
HETATM    7  C   UNL     1     -39.576 -53.950  15.376  1.00  0.00     0.000 C 
HETATM    8  C   UNL     1     -39.365 -54.460  13.956  1.00  0.00     0.003 C 
HETATM    9  C   UNL     1     -40.550 -54.108  13.052  1.00  0.00     0.040 C 
BRANCH   4  10
HETATM   10  O   UNL     1     -39.673 -51.987  12.394  1.00  0.00    -0.379 OA
BRANCH  10  11
HETATM   11  C   UNL     1     -39.697 -50.571  12.226  1.00  0.00     0.168 C 
BRANCH  11  12
HETATM   12  C   UNL     1     -38.265 -50.045  12.238  1.00  0.00     0.022 C 
HETATM   13  C   UNL     1     -37.315 -51.084  12.811  1.00  0.00     0.007 C 
ENDBRANCH  11  12
ENDBRANCH  10  11
ENDBRANCH   4  10
ENDBRANCH   3   4
ENDBRANCH   1   3
BRANCH   1  14
HETATM   14  C   UNL     1     -44.240 -53.517  12.955  1.00  0.00     0.072 A 
HETATM   15  C   UNL     1     -45.427 -52.797  12.398  1.00  0.00     0.138 A 
HETATM   16  N   UNL     1     -46.624 -52.754  12.888  1.00  0.00    -0.307 N 
HETATM   17  N   UNL     1     -46.817 -53.432  14.050  1.00  0.00    -0.265 N 
ATOM     18  HN  UNL     1     -47.377 -52.242  12.429  1.00  0.00     0.186 HD
HETATM   19  C   UNL     1     -45.859 -54.133  14.735  1.00  0.00     0.283 A 
HETATM   20  H   UNL     1     -47.751 -53.408  14.446  1.00  0.00     0.190 HD
HETATM   21  O   UNL     1     -46.124 -54.707  15.786  1.00  0.00    -0.265 OA
HETATM   22  C   UNL     1     -44.498 -54.147  14.118  1.00  0.00     0.131 A 
HETATM   23 CL   UNL     1     -43.285 -54.989  15.025  1.00  0.00    -0.076 Cl
ENDBRANCH   1  14
TORSDOF 6
ENDMDL
MODEL 2
REMARK VINA RESULT:      -5.6      4.434      7.017
REMARK  6 active torsions:
REMARK  status: ('A' for Active; 'I' for Inactive)
REMARK    1  A    between atoms: C_2  and  C_3 
REMARK    2  A    between atoms: C_3  and  O_4 
REMARK    3  A    between atoms: O_4  and  C_5 
REMARK    4  A    between atoms: C_5  and  C_6 
REMARK    5  A    between atoms: C_6  and  N_7 
REMARK    6  A    between atoms: N_7  and  C_8 
ROOT
HETATM    1  N   UNL     1     -42.729 -49.758  11.870  1.00  0.00    -0.384 N 
HETATM    2  H   UNL     1     -43.354 -50.327  11.298  1.00  0.00     0.159 HD
ENDROOT
BRANCH   1   3
HETATM    3  C   UNL     1     -42.847 -49.998  13.308  1.00  0.00     0.158 C 
BRANCH   3   4
HETATM    4  C   UNL     1     -43.968 -51.024  13.659  1.00  0.00     0.076 C 
HETATM    5  C   UNL     1     -44.418 -50.786  15.123  1.00  0.00     0.040 C 
HETATM    6  C   UNL     1     -45.616 -51.641  15.532  1.00  0.00     0.003 C 
HETATM    7  C   UNL     1     -46.793 -51.448  14.581  1.00  0.00     0.000 C 
HETATM    8  C   UNL     1     -46.385 -51.684  13.132  1.00  0.00     0.003 C 
HETATM    9  C   UNL     1     -45.194 -50.806  12.735  1.00  0.00     0.040 C 
BRANCH   4  10
HETATM   10  O   UNL     1     -43.545 -52.386  13.429  1.00  0.00    -0.379 OA
BRANCH  10  11
HETATM   11  C   UNL     1     -42.491 -52.874  14.258  1.00  0.00     0.168 C 
BRANCH  11  12
HETATM   12  C   UNL     1     -42.601 -54.393  14.359  1.00  0.00     0.022 C 
HETATM   13  C   UNL     1     -44.057 -54.822  14.441  1.00  0.00     0.007 C 
ENDBRANCH  11  12
ENDBRANCH  10  11
ENDBRANCH   4  10
ENDBRANCH   3   4
ENDBRANCH   1   3
BRANCH   1  14
HETATM   14  C   UNL     1     -42.217 -48.607  11.279  1.00  0.00     0.072 A 
HETATM   15  C   UNL     1     -40.752 -48.362  11.458  1.00  0.00     0.138 A 
HETATM   16  N   UNL     1     -40.054 -47.383  10.982  1.00  0.00    -0.307 N 
HETATM   17  N   UNL     1     -40.735 -46.466  10.246  1.00  0.00    -0.265 N 
ATOM     18  HN  UNL     1     -39.050 -47.304  11.150  1.00  0.00     0.186 HD
HETATM   19  C   UNL     1     -42.081 -46.493   9.984  1.00  0.00     0.283 A 
HETATM   20  H   UNL     1     -40.201 -45.692   9.865  1.00  0.00     0.190 HD
HETATM   21  O   UNL     1     -42.613 -45.612   9.316  1.00  0.00    -0.265 OA
HETATM   22  C   UNL     1     -42.833 -47.649  10.558  1.00  0.00     0.131 A 
HETATM   23 CL   UNL     1     -44.541 -47.637  10.267  1.00  0.00    -0.076 Cl
ENDBRANCH   1  14
TORSDOF 6
ENDMDL
MODEL 3
REMARK VINA RESULT:      -5.4      3.668      6.786
REMARK  6 active torsions:
REMARK  status: ('A' for Active; 'I' for Inactive)
REMARK    1  A    between atoms: C_2  and  C_3 
REMARK    2  A    between atoms: C_3  and  O_4 
REMARK    3  A    between atoms: O_4  and  C_5 
REMARK    4  A    between atoms: C_5  and  C_6 
REMARK    5  A    between atoms: C_6  and  N_7 
REMARK    6  A    between atoms: N_7  and  C_8 
ROOT
HETATM    1  N   UNL     1     -43.465 -50.329  13.670  1.00  0.00    -0.384 N 
HETATM    2  H   UNL     1     -43.151 -50.209  14.633  1.00  0.00     0.159 HD
ENDROOT
BRANCH   1   3
HETATM    3  C   UNL     1     -44.603 -51.235  13.517  1.00  0.00     0.158 C 
BRANCH   3   4
HETATM    4  C   UNL     1     -45.277 -51.592  14.879  1.00  0.00     0.076 C 
HETATM    5  C   UNL     1     -44.735 -50.631  15.966  1.00  0.00     0.040 C 
HETATM    6  C   UNL     1     -45.433 -50.793  17.315  1.00  0.00     0.003 C 
HETATM    7  C   UNL     1     -46.945 -50.641  17.185  1.00  0.00     0.000 C 
HETATM    8  C   UNL     1     -47.512 -51.580  16.127  1.00  0.00     0.003 C 
HETATM    9  C   UNL     1     -46.812 -51.392  14.778  1.00  0.00     0.040 C 
BRANCH   4  10
HETATM   10  O   UNL     1     -45.088 -52.981  15.228  1.00  0.00    -0.379 OA
BRANCH  10  11
HETATM   11  C   UNL     1     -43.815 -53.547  14.918  1.00  0.00     0.168 C 
BRANCH  11  12
HETATM   12  C   UNL     1     -44.015 -54.980  14.433  1.00  0.00     0.022 C 
HETATM   13  C   UNL     1     -45.390 -55.151  13.809  1.00  0.00     0.007 C 
ENDBRANCH  11  12
ENDBRANCH  10  11
ENDBRANCH   4  10
ENDBRANCH   3   4
ENDBRANCH   1   3
BRANCH   1  14
HETATM   14  C   UNL     1     -42.557 -49.991  12.671  1.00  0.00     0.072 A 
HETATM   15  C   UNL     1     -41.698 -51.098  12.150  1.00  0.00     0.138 A 
HETATM   16  N   UNL     1     -40.809 -51.031  11.212  1.00  0.00    -0.307 N 
HETATM   17  N   UNL     1     -40.629 -49.809  10.647  1.00  0.00    -0.265 N 
ATOM     18  HN  UNL     1     -40.275 -51.848  10.915  1.00  0.00     0.186 HD
HETATM   19  C   UNL     1     -41.295 -48.662  10.995  1.00  0.00     0.283 A 
HETATM   20  H   UNL     1     -39.936 -49.740   9.910  1.00  0.00     0.190 HD
HETATM   21  O   UNL     1     -41.058 -47.597  10.435  1.00  0.00    -0.265 OA
HETATM   22  C   UNL     1     -42.311 -48.804  12.082  1.00  0.00     0.131 A 
HETATM   23 CL   UNL     1     -43.102 -47.335  12.550  1.00  0.00    -0.076 Cl
ENDBRANCH   1  14
TORSDOF 6
ENDMDL
MODEL 4
REMARK VINA RESULT:      -5.4      4.401      6.578
REMARK  6 active torsions:
REMARK  status: ('A' for Active; 'I' for Inactive)
REMARK    1  A    between atoms: C_2  and  C_3 
REMARK    2  A    between atoms: C_3  and  O_4 
REMARK    3  A    between atoms: O_4  and  C_5 
REMARK    4  A    between atoms: C_5  and  C_6 
REMARK    5  A    between atoms: C_6  and  N_7 
REMARK    6  A    between atoms: N_7  and  C_8 
ROOT
HETATM    1  N   UNL     1     -42.346 -49.615  11.492  1.00  0.00    -0.384 N 
HETATM    2  H   UNL     1     -42.623 -50.329  10.818  1.00  0.00     0.159 HD
ENDROOT
BRANCH   1   3
HETATM    3  C   UNL     1     -42.721 -49.917  12.873  1.00  0.00     0.158 C 
BRANCH   3   4
HETATM    4  C   UNL     1     -42.238 -51.327  13.335  1.00  0.00     0.076 C 
HETATM    5  C   UNL     1     -41.476 -51.997  12.164  1.00  0.00     0.040 C 
HETATM    6  C   UNL     1     -40.830 -53.327  12.549  1.00  0.00     0.003 C 
HETATM    7  C   UNL     1     -39.912 -53.176  13.757  1.00  0.00     0.000 C 
HETATM    8  C   UNL     1     -40.635 -52.526  14.930  1.00  0.00     0.003 C 
HETATM    9  C   UNL     1     -41.261 -51.187  14.532  1.00  0.00     0.040 C 
BRANCH   4  10
HETATM   10  O   UNL     1     -43.330 -52.140  13.818  1.00  0.00    -0.379 OA
BRANCH  10  11
HETATM   11  C   UNL     1     -44.272 -52.585  12.843  1.00  0.00     0.168 C 
BRANCH  11  12
HETATM   12  C   UNL     1     -44.439 -54.096  12.967  1.00  0.00     0.022 C 
HETATM   13  C   UNL     1     -43.884 -54.592  14.293  1.00  0.00     0.007 C 
ENDBRANCH  11  12
ENDBRANCH  10  11
ENDBRANCH   4  10
ENDBRANCH   3   4
ENDBRANCH   1   3
BRANCH   1  14
HETATM   14  C   UNL     1     -42.072 -48.349  10.984  1.00  0.00     0.072 A 
HETATM   15  C   UNL     1     -40.657 -47.879  11.094  1.00  0.00     0.138 A 
HETATM   16  N   UNL     1     -40.163 -46.760  10.672  1.00  0.00    -0.307 N 
HETATM   17  N   UNL     1     -41.038 -45.910  10.072  1.00  0.00    -0.265 N 
ATOM     18  HN  UNL     1     -39.176 -46.529  10.784  1.00  0.00     0.186 HD
HETATM   19  C   UNL     1     -42.378 -46.139   9.893  1.00  0.00     0.283 A 
HETATM   20  H   UNL     1     -40.666 -45.029   9.736  1.00  0.00     0.190 HD
HETATM   21  O   UNL     1     -43.095 -45.306   9.349  1.00  0.00    -0.265 OA
HETATM   22  C   UNL     1     -42.888 -47.449  10.399  1.00  0.00     0.131 A 
HETATM   23 CL   UNL     1     -44.593 -47.697  10.218  1.00  0.00    -0.076 Cl
ENDBRANCH   1  14
TORSDOF 6
ENDMDL
MODEL 5
REMARK VINA RESULT:      -5.3      4.341      6.218
REMARK  6 active torsions:
REMARK  status: ('A' for Active; 'I' for Inactive)
REMARK    1  A    between atoms: C_2  and  C_3 
REMARK    2  A    between atoms: C_3  and  O_4 
REMARK    3  A    between atoms: O_4  and  C_5 
REMARK    4  A    between atoms: C_5  and  C_6 
REMARK    5  A    between atoms: C_6  and  N_7 
REMARK    6  A    between atoms: N_7  and  C_8 
ROOT
HETATM    1  N   UNL     1     -41.077 -49.303  10.717  1.00  0.00    -0.384 N 
HETATM    2  H   UNL     1     -40.746 -49.662   9.821  1.00  0.00     0.159 HD
ENDROOT
BRANCH   1   3
HETATM    3  C   UNL     1     -41.307 -50.334  11.729  1.00  0.00     0.158 C 
BRANCH   3   4
HETATM    4  C   UNL     1     -39.989 -50.817  12.409  1.00  0.00     0.076 C 
HETATM    5  C   UNL     1     -38.792 -50.101  11.733  1.00  0.00     0.040 C 
HETATM    6  C   UNL     1     -37.455 -50.388  12.414  1.00  0.00     0.003 C 
HETATM    7  C   UNL     1     -37.501 -50.049  13.901  1.00  0.00     0.000 C 
HETATM    8  C   UNL     1     -38.663 -50.745  14.598  1.00  0.00     0.003 C 
HETATM    9  C   UNL     1     -39.996 -50.433  13.911  1.00  0.00     0.040 C 
BRANCH   4  10
HETATM   10  O   UNL     1     -39.859 -52.255  12.376  1.00  0.00    -0.379 OA
BRANCH  10  11
HETATM   11  C   UNL     1     -41.073 -53.003  12.320  1.00  0.00     0.168 C 
BRANCH  11  12
HETATM   12  C   UNL     1     -41.014 -54.123  13.354  1.00  0.00     0.022 C 
HETATM   13  C   UNL     1     -39.593 -54.317  13.857  1.00  0.00     0.007 C 
ENDBRANCH  11  12
ENDBRANCH  10  11
ENDBRANCH   4  10
ENDBRANCH   3   4
ENDBRANCH   1   3
BRANCH   1  14
HETATM   14  C   UNL     1     -41.645 -48.033  10.708  1.00  0.00     0.072 A 
HETATM   15  C   UNL     1     -42.687 -47.776   9.666  1.00  0.00     0.138 A 
HETATM   16  N   UNL     1     -43.367 -46.691   9.483  1.00  0.00    -0.307 N 
HETATM   17  N   UNL     1     -43.091 -45.663  10.328  1.00  0.00    -0.265 N 
ATOM     18  HN  UNL     1     -44.069 -46.611   8.747  1.00  0.00     0.186 HD
HETATM   19  C   UNL     1     -42.157 -45.684  11.332  1.00  0.00     0.283 A 
HETATM   20  H   UNL     1     -43.616 -44.806  10.197  1.00  0.00     0.190 HD
HETATM   21  O   UNL     1     -41.967 -44.701  12.041  1.00  0.00    -0.265 OA
HETATM   22  C   UNL     1     -41.406 -46.966  11.496  1.00  0.00     0.131 A 
HETATM   23 CL   UNL     1     -40.191 -46.957  12.731  1.00  0.00    -0.076 Cl
ENDBRANCH   1  14
TORSDOF 6
ENDMDL
MODEL 6
REMARK VINA RESULT:      -5.2      2.772      6.275
REMARK  6 active torsions:
REMARK  status: ('A' for Active; 'I' for Inactive)
REMARK    1  A    between atoms: C_2  and  C_3 
REMARK    2  A    between atoms: C_3  and  O_4 
REMARK    3  A    between atoms: O_4  and  C_5 
REMARK    4  A    between atoms: C_5  and  C_6 
REMARK    5  A    between atoms: C_6  and  N_7 
REMARK    6  A    between atoms: N_7  and  C_8 
ROOT
HETATM    1  N   UNL     1     -41.868 -51.429  13.191  1.00  0.00    -0.384 N 
HETATM    2  H   UNL     1     -41.999 -51.141  14.161  1.00  0.00     0.159 HD
ENDROOT
BRANCH   1   3
HETATM    3  C   UNL     1     -42.747 -52.518  12.764  1.00  0.00     0.158 C 
BRANCH   3   4
HETATM    4  C   UNL     1     -44.050 -52.611  13.617  1.00  0.00     0.076 C 
HETATM    5  C   UNL     1     -44.147 -51.350  14.512  1.00  0.00     0.040 C 
HETATM    6  C   UNL     1     -45.460 -51.262  15.288  1.00  0.00     0.003 C 
HETATM    7  C   UNL     1     -46.667 -51.345  14.359  1.00  0.00     0.000 C 
HETATM    8  C   UNL     1     -46.605 -52.581  13.471  1.00  0.00     0.003 C 
HETATM    9  C   UNL     1     -45.290 -52.643  12.688  1.00  0.00     0.040 C 
BRANCH   4  10
HETATM   10  O   UNL     1     -44.106 -53.835  14.384  1.00  0.00    -0.379 OA
BRANCH  10  11
HETATM   11  C   UNL     1     -42.898 -54.588  14.472  1.00  0.00     0.168 C 
BRANCH  11  12
HETATM   12  C   UNL     1     -42.360 -54.499  15.897  1.00  0.00     0.022 C 
HETATM   13  C   UNL     1     -40.969 -55.106  15.986  1.00  0.00     0.007 C 
ENDBRANCH  11  12
ENDBRANCH  10  11
ENDBRANCH   4  10
ENDBRANCH   3   4
ENDBRANCH   1   3
BRANCH   1  14
HETATM   14  C   UNL     1     -40.661 -51.079  12.593  1.00  0.00     0.072 A 
HETATM   15  C   UNL     1     -40.745 -50.179  11.401  1.00  0.00     0.138 A 
HETATM   16  N   UNL     1     -39.765 -49.703  10.703  1.00  0.00    -0.307 N 
HETATM   17  N   UNL     1     -38.518 -50.075  11.094  1.00  0.00    -0.265 N 
ATOM     18  HN  UNL     1     -39.920 -49.084   9.907  1.00  0.00     0.186 HD
HETATM   19  C   UNL     1     -38.225 -50.909  12.142  1.00  0.00     0.283 A 
HETATM   20  H   UNL     1     -37.739 -49.709  10.557  1.00  0.00     0.190 HD
HETATM   21  O   UNL     1     -37.065 -51.200  12.415  1.00  0.00    -0.265 OA
HETATM   22  C   UNL     1     -39.398 -51.426  12.910  1.00  0.00     0.131 A 
HETATM   23 CL   UNL     1     -39.014 -52.523  14.195  1.00  0.00    -0.076 Cl
ENDBRANCH   1  14
TORSDOF 6
ENDMDL
MODEL 7
REMARK VINA RESULT:      -5.1      3.145      6.406
REMARK  6 active torsions:
REMARK  status: ('A' for Active; 'I' for Inactive)
REMARK    1  A    between atoms: C_2  and  C_3 
REMARK    2  A    between atoms: C_3  and  O_4 
REMARK    3  A    between atoms: O_4  and  C_5 
REMARK    4  A    between atoms: C_5  and  C_6 
REMARK    5  A    between atoms: C_6  and  N_7 
REMARK    6  A    between atoms: N_7  and  C_8 
ROOT
HETATM    1  N   UNL     1     -41.341 -50.275  13.520  1.00  0.00    -0.384 N 
HETATM    2  H   UNL     1     -41.304 -50.244  14.540  1.00  0.00     0.159 HD
ENDROOT
BRANCH   1   3
HETATM    3  C   UNL     1     -42.614 -50.751  12.980  1.00  0.00     0.158 C 
BRANCH   3   4
HETATM    4  C   UNL     1     -43.107 -52.063  13.665  1.00  0.00     0.076 C 
HETATM    5  C   UNL     1     -42.241 -53.243  13.155  1.00  0.00     0.040 C 
HETATM    6  C   UNL     1     -42.540 -54.561  13.868  1.00  0.00     0.003 C 
HETATM    7  C   UNL     1     -42.405 -54.422  15.381  1.00  0.00     0.000 C 
HETATM    8  C   UNL     1     -43.252 -53.275  15.915  1.00  0.00     0.003 C 
HETATM    9  C   UNL     1     -42.928 -51.959  15.201  1.00  0.00     0.040 C 
BRANCH   4  10
HETATM   10  O   UNL     1     -44.519 -52.286  13.452  1.00  0.00    -0.379 OA
BRANCH  10  11
HETATM   11  C   UNL     1     -45.353 -51.128  13.455  1.00  0.00     0.168 C 
BRANCH  11  12
HETATM   12  C   UNL     1     -46.725 -51.507  14.007  1.00  0.00     0.022 C 
HETATM   13  C   UNL     1     -46.726 -51.456  15.526  1.00  0.00     0.007 C 
ENDBRANCH  11  12
ENDBRANCH  10  11
ENDBRANCH   4  10
ENDBRANCH   3   4
ENDBRANCH   1   3
BRANCH   1  14
HETATM   14  C   UNL     1     -40.121 -50.285  12.852  1.00  0.00     0.072 A 
HETATM   15  C   UNL     1     -39.932 -49.245  11.793  1.00  0.00     0.138 A 
HETATM   16  N   UNL     1     -38.883 -49.045  11.064  1.00  0.00    -0.307 N 
HETATM   17  N   UNL     1     -37.837 -49.886  11.279  1.00  0.00    -0.265 N 
ATOM     18  HN  UNL     1     -38.842 -48.298  10.370  1.00  0.00     0.186 HD
HETATM   19  C   UNL     1     -37.814 -50.918  12.181  1.00  0.00     0.283 A 
HETATM   20  H   UNL     1     -37.007 -49.741  10.715  1.00  0.00     0.190 HD
HETATM   21  O   UNL     1     -36.827 -51.635  12.298  1.00  0.00    -0.265 OA
HETATM   22  C   UNL     1     -39.055 -51.098  12.995  1.00  0.00     0.131 A 
HETATM   23 CL   UNL     1     -39.031 -52.441  14.090  1.00  0.00    -0.076 Cl
ENDBRANCH   1  14
TORSDOF 6
ENDMDL
MODEL 8
REMARK VINA RESULT:      -5.0      4.316      6.231
REMARK  6 active torsions:
REMARK  status: ('A' for Active; 'I' for Inactive)
REMARK    1  A    between atoms: C_2  and  C_3 
REMARK    2  A    between atoms: C_3  and  O_4 
REMARK    3  A    between atoms: O_4  and  C_5 
REMARK    4  A    between atoms: C_5  and  C_6 
REMARK    5  A    between atoms: C_6  and  N_7 
REMARK    6  A    between atoms: N_7  and  C_8 
ROOT
HETATM    1  N   UNL     1     -41.747 -49.638  12.213  1.00  0.00    -0.384 N 
HETATM    2  H   UNL     1     -42.260 -49.044  12.865  1.00  0.00     0.159 HD
ENDROOT
BRANCH   1   3
HETATM    3  C   UNL     1     -41.248 -48.940  11.029  1.00  0.00     0.158 C 
BRANCH   3   4
HETATM    4  C   UNL     1     -41.497 -47.401  11.086  1.00  0.00     0.076 C 
HETATM    5  C   UNL     1     -42.343 -47.083  12.345  1.00  0.00     0.040 C 
HETATM    6  C   UNL     1     -42.529 -45.585  12.582  1.00  0.00     0.003 C 
HETATM    7  C   UNL     1     -41.189 -44.858  12.650  1.00  0.00     0.000 C 
HETATM    8  C   UNL     1     -40.336 -45.144  11.420  1.00  0.00     0.003 C 
HETATM    9  C   UNL     1     -40.147 -46.649  11.207  1.00  0.00     0.040 C 
BRANCH   4  10
HETATM   10  O   UNL     1     -42.109 -46.908   9.873  1.00  0.00    -0.379 OA
BRANCH  10  11
HETATM   11  C   UNL     1     -43.285 -47.585   9.432  1.00  0.00     0.168 C 
BRANCH  11  12
HETATM   12  C   UNL     1     -44.348 -46.551   9.074  1.00  0.00     0.022 C 
HETATM   13  C   UNL     1     -45.737 -47.168   9.124  1.00  0.00     0.007 C 
ENDBRANCH  11  12
ENDBRANCH  10  11
ENDBRANCH   4  10
ENDBRANCH   3   4
ENDBRANCH   1   3
BRANCH   1  14
HETATM   14  C   UNL     1     -41.964 -51.009  12.316  1.00  0.00     0.072 A 
HETATM   15  C   UNL     1     -40.892 -51.895  11.766  1.00  0.00     0.138 A 
HETATM   16  N   UNL     1     -40.859 -53.189  11.773  1.00  0.00    -0.307 N 
HETATM   17  N   UNL     1     -41.931 -53.810  12.332  1.00  0.00    -0.265 N 
ATOM     18  HN  UNL     1     -40.075 -53.711  11.381  1.00  0.00     0.186 HD
HETATM   19  C   UNL     1     -43.026 -53.184  12.869  1.00  0.00     0.283 A 
HETATM   20  H   UNL     1     -41.920 -54.824  12.345  1.00  0.00     0.190 HD
HETATM   21  O   UNL     1     -43.955 -53.829  13.343  1.00  0.00    -0.265 OA
HETATM   22  C   UNL     1     -43.005 -51.690  12.834  1.00  0.00     0.131 A 
HETATM   23 CL   UNL     1     -44.421 -50.916  13.463  1.00  0.00    -0.076 Cl
ENDBRANCH   1  14
TORSDOF 6
ENDMDL
MODEL 9
REMARK VINA RESULT:      -5.0      2.001      3.495
REMARK  6 active torsions:
REMARK  status: ('A' for Active; 'I' for Inactive)
REMARK    1  A    between atoms: C_2  and  C_3 
REMARK    2  A    between atoms: C_3  and  O_4 
REMARK    3  A    between atoms: O_4  and  C_5 
REMARK    4  A    between atoms: C_5  and  C_6 
REMARK    5  A    between atoms: C_6  and  N_7 
REMARK    6  A    between atoms: N_7  and  C_8 
ROOT
HETATM    1  N   UNL     1     -43.096 -51.461  12.553  1.00  0.00    -0.384 N 
HETATM    2  H   UNL     1     -42.808 -51.504  11.575  1.00  0.00     0.159 HD
ENDROOT
BRANCH   1   3
HETATM    3  C   UNL     1     -42.173 -50.729  13.420  1.00  0.00     0.158 C 
BRANCH   3   4
HETATM    4  C   UNL     1     -41.272 -49.728  12.633  1.00  0.00     0.076 C 
HETATM    5  C   UNL     1     -42.141 -49.010  11.569  1.00  0.00     0.040 C 
HETATM    6  C   UNL     1     -41.395 -47.899  10.832  1.00  0.00     0.003 C 
HETATM    7  C   UNL     1     -40.803 -46.882  11.803  1.00  0.00     0.000 C 
HETATM    8  C   UNL     1     -39.935 -47.557  12.858  1.00  0.00     0.003 C 
HETATM    9  C   UNL     1     -40.703 -48.655  13.598  1.00  0.00     0.040 C 
BRANCH   4  10
HETATM   10  O   UNL     1     -40.120 -50.379  12.053  1.00  0.00    -0.379 OA
BRANCH  10  11
HETATM   11  C   UNL     1     -39.365 -51.226  12.918  1.00  0.00     0.168 C 
BRANCH  11  12
HETATM   12  C   UNL     1     -37.891 -50.841  12.828  1.00  0.00     0.022 C 
HETATM   13  C   UNL     1     -37.599 -50.136  11.513  1.00  0.00     0.007 C 
ENDBRANCH  11  12
ENDBRANCH  10  11
ENDBRANCH   4  10
ENDBRANCH   3   4
ENDBRANCH   1   3
BRANCH   1  14
HETATM   14  C   UNL     1     -44.023 -52.411  12.972  1.00  0.00     0.072 A 
HETATM   15  C   UNL     1     -45.464 -52.024  12.874  1.00  0.00     0.138 A 
HETATM   16  N   UNL     1     -46.496 -52.744  13.176  1.00  0.00    -0.307 N 
HETATM   17  N   UNL     1     -46.235 -53.990  13.650  1.00  0.00    -0.265 N 
ATOM     18  HN  UNL     1     -47.448 -52.396  13.065  1.00  0.00     0.186 HD
HETATM   19  C   UNL     1     -44.988 -54.528  13.840  1.00  0.00     0.283 A 
HETATM   20  H   UNL     1     -47.033 -54.567  13.892  1.00  0.00     0.190 HD
HETATM   21  O   UNL     1     -44.848 -55.663  14.285  1.00  0.00    -0.265 OA
HETATM   22  C   UNL     1     -43.837 -53.649  13.470  1.00  0.00     0.131 A 
HETATM   23 CL   UNL     1     -42.269 -54.322  13.770  1.00  0.00    -0.076 Cl
ENDBRANCH   1  14
TORSDOF 6
ENDMDL
